MODEL 1
REMARK VINA RESULT:    -8.299      0.000      0.000
REMARK INTER + INTRA:         -11.447
REMARK INTER:                 -10.725
REMARK INTRA:                  -0.722
REMARK UNBOUND:                -0.722
REMARK  Name = 
REMARK  6 active torsions:
REMARK  status: ('A' for Active; 'I' for Inactive)
REMARK    1  A    between atoms: C_1  and  O_2
REMARK    2  A    between atoms: O_2  and  C_3
REMARK    3  A    between atoms: C_6  and  C_7
REMARK    4  A    between atoms: C_7  and  N_8
REMARK    5  A    between atoms: N_8  and  C_9
REMARK    6  A    between atoms: C_12  and  C_13
REMARK                            x       y       z     vdW  Elec       q    Type
REMARK                         _______ _______ _______ _____ _____    ______ ____
ROOT
ATOM      1  N   UNL     1      43.757   3.758  10.599  0.00  0.00    +0.000 N 
ATOM      2  H   UNL     1      43.314   2.994  11.097  0.00  0.00    +0.000 HD
ENDROOT
BRANCH   1   3
ATOM      3  C   UNL     1      44.578   3.313   9.548  0.00  0.00    +0.000 A 
ATOM      4  C   UNL     1      45.001   1.993   9.376  0.00  0.00    +0.000 A 
ATOM      5  C   UNL     1      45.919   1.663   8.361  0.00  0.00    +0.000 A 
ATOM      6  C   UNL     1      46.433   2.651   7.513  0.00  0.00    +0.000 A 
ATOM      7  C   UNL     1      46.030   3.975   7.689  0.00  0.00    +0.000 A 
ATOM      8  C   UNL     1      45.118   4.293   8.697  0.00  0.00    +0.000 A 
BRANCH   6   9
ATOM      9  C   UNL     1      47.445   2.275   6.486  0.00  0.00    +0.000 C 
ATOM     10  N   UNL     1      47.454   2.983   5.314  0.00  0.00    +0.000 N 
ATOM     11  O   UNL     1      48.235   1.357   6.668  0.00  0.00    +0.000 OA
ATOM     12  H   UNL     1      46.702   3.592   5.031  0.00  0.00    +0.000 HD
ATOM     13  H   UNL     1      48.102   2.671   4.603  0.00  0.00    +0.000 HD
ENDBRANCH   6   9
ENDBRANCH   1   3
BRANCH   1  14
ATOM     14  C   UNL     1      43.863   5.020  11.344  0.00  0.00    +0.000 C 
ATOM     15  C   UNL     1      42.961   6.203  11.053  0.00  0.00    +0.000 C 
ATOM     16  C   UNL     1      42.633   5.318  12.208  0.00  0.00    +0.000 C 
BRANCH  14  20
ATOM     17  C   UNL     1      47.578   5.745  13.532  0.00  0.00    +0.000 A 
ATOM     18  C   UNL     1      47.288   6.485  12.387  0.00  0.00    +0.000 A 
ATOM     19  C   UNL     1      46.121   6.224  11.655  0.00  0.00    +0.000 A 
ATOM     20  C   UNL     1      45.201   5.237  12.052  0.00  0.00    +0.000 A 
ATOM     21  C   UNL     1      45.538   4.482  13.192  0.00  0.00    +0.000 A 
ATOM     22  C   UNL     1      46.706   4.730  13.917  0.00  0.00    +0.000 A 
BRANCH  17  24
ATOM     23  C   UNL     1      49.252   7.199  14.390  0.00  0.00    +0.000 C 
ATOM     24  O   UNL     1      48.662   5.907  14.350  0.00  0.00    +0.000 OA
ENDBRANCH  17  24
ENDBRANCH  14  20
ENDBRANCH   1  14
TORSDOF 5
ENDMDL
MODEL 2
REMARK VINA RESULT:    -7.974      0.912      1.724
REMARK INTER + INTRA:         -11.027
REMARK INTER:                 -10.268
REMARK INTRA:                  -0.759
REMARK UNBOUND:                -0.722
REMARK  Name = 
REMARK  6 active torsions:
REMARK  status: ('A' for Active; 'I' for Inactive)
REMARK    1  A    between atoms: C_1  and  O_2
REMARK    2  A    between atoms: O_2  and  C_3
REMARK    3  A    between atoms: C_6  and  C_7
REMARK    4  A    between atoms: C_7  and  N_8
REMARK    5  A    between atoms: N_8  and  C_9
REMARK    6  A    between atoms: C_12  and  C_13
REMARK                            x       y       z     vdW  Elec       q    Type
REMARK                         _______ _______ _______ _____ _____    ______ ____
ROOT
ATOM      1  N   UNL     1      43.982   3.708  10.654  0.00  0.00    +0.000 N 
ATOM      2  H   UNL     1      43.628   2.841  11.043  0.00  0.00    +0.000 HD
ENDROOT
BRANCH   1   3
ATOM      3  C   UNL     1      44.897   3.497   9.609  0.00  0.00    +0.000 A 
ATOM      4  C   UNL     1      45.433   4.507   8.807  0.00  0.00    +0.000 A 
ATOM      5  C   UNL     1      46.251   4.188   7.707  0.00  0.00    +0.000 A 
ATOM      6  C   UNL     1      46.534   2.855   7.390  0.00  0.00    +0.000 A 
ATOM      7  C   UNL     1      45.990   1.838   8.174  0.00  0.00    +0.000 A 
ATOM      8  C   UNL     1      45.181   2.164   9.264  0.00  0.00    +0.000 A 
BRANCH   6   9
ATOM      9  C   UNL     1      47.358   2.552   6.185  0.00  0.00    +0.000 C 
ATOM     10  N   UNL     1      48.611   2.038   6.385  0.00  0.00    +0.000 N 
ATOM     11  O   UNL     1      46.945   2.766   5.053  0.00  0.00    +0.000 OA
ATOM     12  H   UNL     1      49.075   2.044   7.281  0.00  0.00    +0.000 HD
ATOM     13  H   UNL     1      49.181   1.901   5.561  0.00  0.00    +0.000 HD
ENDBRANCH   6   9
ENDBRANCH   1   3
BRANCH   1  14
ATOM     14  C   UNL     1      43.884   4.881  11.536  0.00  0.00    +0.000 C 
ATOM     15  C   UNL     1      42.719   5.847  11.459  0.00  0.00    +0.000 C 
ATOM     16  C   UNL     1      42.714   4.800  12.522  0.00  0.00    +0.000 C 
BRANCH  14  20
ATOM     17  C   UNL     1      47.769   6.102  13.126  0.00  0.00    +0.000 A 
ATOM     18  C   UNL     1      47.174   4.922  13.569  0.00  0.00    +0.000 A 
ATOM     19  C   UNL     1      45.906   4.550  13.099  0.00  0.00    +0.000 A 
ATOM     20  C   UNL     1      45.207   5.328  12.158  0.00  0.00    +0.000 A 
ATOM     21  C   UNL     1      45.817   6.531  11.755  0.00  0.00    +0.000 A 
ATOM     22  C   UNL     1      47.074   6.912  12.231  0.00  0.00    +0.000 A 
BRANCH  17  24
ATOM     23  C   UNL     1      49.663   7.417  12.550  0.00  0.00    +0.000 C 
ATOM     24  O   UNL     1      49.002   6.572  13.482  0.00  0.00    +0.000 OA
ENDBRANCH  17  24
ENDBRANCH  14  20
ENDBRANCH   1  14
TORSDOF 5
ENDMDL
MODEL 3
REMARK VINA RESULT:    -7.549      1.696      2.135
REMARK INTER + INTRA:         -10.478
REMARK INTER:                 -10.267
REMARK INTRA:                  -0.211
REMARK UNBOUND:                -0.722
REMARK  Name = 
REMARK  6 active torsions:
REMARK  status: ('A' for Active; 'I' for Inactive)
REMARK    1  A    between atoms: C_1  and  O_2
REMARK    2  A    between atoms: O_2  and  C_3
REMARK    3  A    between atoms: C_6  and  C_7
REMARK    4  A    between atoms: C_7  and  N_8
REMARK    5  A    between atoms: N_8  and  C_9
REMARK    6  A    between atoms: C_12  and  C_13
REMARK                            x       y       z     vdW  Elec       q    Type
REMARK                         _______ _______ _______ _____ _____    ______ ____
ROOT
ATOM      1  N   UNL     1      43.856   4.905  10.083  0.00  0.00    +0.000 N 
ATOM      2  H   UNL     1      42.907   5.003   9.740  0.00  0.00    +0.000 HD
ENDROOT
BRANCH   1   3
ATOM      3  C   UNL     1      44.640   4.067   9.272  0.00  0.00    +0.000 A 
ATOM      4  C   UNL     1      44.679   2.675   9.373  0.00  0.00    +0.000 A 
ATOM      5  C   UNL     1      45.584   1.927   8.597  0.00  0.00    +0.000 A 
ATOM      6  C   UNL     1      46.469   2.564   7.719  0.00  0.00    +0.000 A 
ATOM      7  C   UNL     1      46.450   3.955   7.624  0.00  0.00    +0.000 A 
ATOM      8  C   UNL     1      45.548   4.689   8.397  0.00  0.00    +0.000 A 
BRANCH   6   9
ATOM      9  C   UNL     1      47.452   1.745   6.955  0.00  0.00    +0.000 C 
ATOM     10  N   UNL     1      48.563   2.378   6.465  0.00  0.00    +0.000 N 
ATOM     11  O   UNL     1      47.274   0.550   6.753  0.00  0.00    +0.000 OA
ATOM     12  H   UNL     1      48.650   3.382   6.417  0.00  0.00    +0.000 HD
ATOM     13  H   UNL     1      49.185   1.823   5.893  0.00  0.00    +0.000 HD
ENDBRANCH   6   9
ENDBRANCH   1   3
BRANCH   1  14
ATOM     14  C   UNL     1      44.043   5.200  11.511  0.00  0.00    +0.000 C 
ATOM     15  C   UNL     1      42.979   4.884  12.543  0.00  0.00    +0.000 C 
ATOM     16  C   UNL     1      44.125   3.943  12.383  0.00  0.00    +0.000 C 
BRANCH  14  20
ATOM     17  C   UNL     1      47.063   8.290  12.175  0.00  0.00    +0.000 A 
ATOM     18  C   UNL     1      47.453   6.972  11.947  0.00  0.00    +0.000 A 
ATOM     19  C   UNL     1      46.488   5.969  11.781  0.00  0.00    +0.000 A 
ATOM     20  C   UNL     1      45.111   6.251  11.815  0.00  0.00    +0.000 A 
ATOM     21  C   UNL     1      44.746   7.585  12.081  0.00  0.00    +0.000 A 
ATOM     22  C   UNL     1      45.705   8.586  12.261  0.00  0.00    +0.000 A 
BRANCH  17  24
ATOM     23  C   UNL     1      47.499  10.579  11.700  0.00  0.00    +0.000 C 
ATOM     24  O   UNL     1      47.892   9.366  12.330  0.00  0.00    +0.000 OA
ENDBRANCH  17  24
ENDBRANCH  14  20
ENDBRANCH   1  14
TORSDOF 5
ENDMDL
MODEL 4
REMARK VINA RESULT:    -6.789      2.247      6.759
REMARK INTER + INTRA:          -9.496
REMARK INTER:                  -8.950
REMARK INTRA:                  -0.546
REMARK UNBOUND:                -0.722
REMARK  Name = 
REMARK  6 active torsions:
REMARK  status: ('A' for Active; 'I' for Inactive)
REMARK    1  A    between atoms: C_1  and  O_2
REMARK    2  A    between atoms: O_2  and  C_3
REMARK    3  A    between atoms: C_6  and  C_7
REMARK    4  A    between atoms: C_7  and  N_8
REMARK    5  A    between atoms: N_8  and  C_9
REMARK    6  A    between atoms: C_12  and  C_13
REMARK                            x       y       z     vdW  Elec       q    Type
REMARK                         _______ _______ _______ _____ _____    ______ ____
ROOT
ATOM      1  N   UNL     1      45.399   5.833  11.596  0.00  0.00    +0.000 N 
ATOM      2  H   UNL     1      45.713   6.523  10.923  0.00  0.00    +0.000 HD
ENDROOT
BRANCH   1   3
ATOM      3  C   UNL     1      46.257   5.730  12.704  0.00  0.00    +0.000 A 
ATOM      4  C   UNL     1      46.251   4.673  13.618  0.00  0.00    +0.000 A 
ATOM      5  C   UNL     1      47.068   4.714  14.764  0.00  0.00    +0.000 A 
ATOM      6  C   UNL     1      47.891   5.817  15.015  0.00  0.00    +0.000 A 
ATOM      7  C   UNL     1      47.892   6.885  14.118  0.00  0.00    +0.000 A 
ATOM      8  C   UNL     1      47.080   6.835  12.983  0.00  0.00    +0.000 A 
BRANCH   6   9
ATOM      9  C   UNL     1      48.700   5.852  16.266  0.00  0.00    +0.000 C 
ATOM     10  N   UNL     1      48.123   6.396  17.382  0.00  0.00    +0.000 N 
ATOM     11  O   UNL     1      49.847   5.425  16.302  0.00  0.00    +0.000 OA
ATOM     12  H   UNL     1      47.278   6.947  17.353  0.00  0.00    +0.000 HD
ATOM     13  H   UNL     1      48.708   6.472  18.203  0.00  0.00    +0.000 HD
ENDBRANCH   6   9
ENDBRANCH   1   3
BRANCH   1  14
ATOM     14  C   UNL     1      44.490   4.805  11.069  0.00  0.00    +0.000 C 
ATOM     15  C   UNL     1      43.376   4.211  11.907  0.00  0.00    +0.000 C 
ATOM     16  C   UNL     1      43.043   5.289  10.931  0.00  0.00    +0.000 C 
BRANCH  14  20
ATOM     17  C   UNL     1      46.180   2.557   7.721  0.00  0.00    +0.000 A 
ATOM     18  C   UNL     1      46.252   3.949   7.733  0.00  0.00    +0.000 A 
ATOM     19  C   UNL     1      45.669   4.677   8.781  0.00  0.00    +0.000 A 
ATOM     20  C   UNL     1      45.021   4.042   9.855  0.00  0.00    +0.000 A 
ATOM     21  C   UNL     1      44.933   2.638   9.798  0.00  0.00    +0.000 A 
ATOM     22  C   UNL     1      45.500   1.908   8.750  0.00  0.00    +0.000 A 
BRANCH  17  24
ATOM     23  C   UNL     1      47.929   2.147   6.164  0.00  0.00    +0.000 C 
ATOM     24  O   UNL     1      46.720   1.725   6.781  0.00  0.00    +0.000 OA
ENDBRANCH  17  24
ENDBRANCH  14  20
ENDBRANCH   1  14
TORSDOF 5
ENDMDL
MODEL 5
REMARK VINA RESULT:    -6.777      2.442      6.904
REMARK INTER + INTRA:          -9.480
REMARK INTER:                  -8.920
REMARK INTRA:                  -0.560
REMARK UNBOUND:                -0.722
REMARK  Name = 
REMARK  6 active torsions:
REMARK  status: ('A' for Active; 'I' for Inactive)
REMARK    1  A    between atoms: C_1  and  O_2
REMARK    2  A    between atoms: O_2  and  C_3
REMARK    3  A    between atoms: C_6  and  C_7
REMARK    4  A    between atoms: C_7  and  N_8
REMARK    5  A    between atoms: N_8  and  C_9
REMARK    6  A    between atoms: C_12  and  C_13
REMARK                            x       y       z     vdW  Elec       q    Type
REMARK                         _______ _______ _______ _____ _____    ______ ____
ROOT
ATOM      1  N   UNL     1      44.878   6.282  10.810  0.00  0.00    +0.000 N 
ATOM      2  H   UNL     1      44.975   6.715   9.899  0.00  0.00    +0.000 HD
ENDROOT
BRANCH   1   3
ATOM      3  C   UNL     1      45.611   6.950  11.806  0.00  0.00    +0.000 A 
ATOM      4  C   UNL     1      45.269   8.193  12.344  0.00  0.00    +0.000 A 
ATOM      5  C   UNL     1      46.128   8.839  13.253  0.00  0.00    +0.000 A 
ATOM      6  C   UNL     1      47.344   8.255  13.625  0.00  0.00    +0.000 A 
ATOM      7  C   UNL     1      47.703   7.023  13.080  0.00  0.00    +0.000 A 
ATOM      8  C   UNL     1      46.844   6.388  12.181  0.00  0.00    +0.000 A 
BRANCH   6   9
ATOM      9  C   UNL     1      48.255   8.994  14.546  0.00  0.00    +0.000 C 
ATOM     10  N   UNL     1      47.813   9.232  15.820  0.00  0.00    +0.000 N 
ATOM     11  O   UNL     1      49.354   9.390  14.182  0.00  0.00    +0.000 OA
ATOM     12  H   UNL     1      46.851   9.121  16.101  0.00  0.00    +0.000 HD
ATOM     13  H   UNL     1      48.414   9.792  16.410  0.00  0.00    +0.000 HD
ENDBRANCH   6   9
ENDBRANCH   1   3
BRANCH   1  14
ATOM     14  C   UNL     1      44.464   4.871  10.797  0.00  0.00    +0.000 C 
ATOM     15  C   UNL     1      43.927   4.181  12.035  0.00  0.00    +0.000 C 
ATOM     16  C   UNL     1      42.960   4.680  11.014  0.00  0.00    +0.000 C 
BRANCH  14  20
ATOM     17  C   UNL     1      46.305   2.443   7.663  0.00  0.00    +0.000 A 
ATOM     18  C   UNL     1      46.362   3.834   7.591  0.00  0.00    +0.000 A 
ATOM     19  C   UNL     1      45.732   4.617   8.568  0.00  0.00    +0.000 A 
ATOM     20  C   UNL     1      45.049   4.042   9.654  0.00  0.00    +0.000 A 
ATOM     21  C   UNL     1      44.979   2.636   9.682  0.00  0.00    +0.000 A 
ATOM     22  C   UNL     1      45.594   1.851   8.704  0.00  0.00    +0.000 A 
BRANCH  17  24
ATOM     23  C   UNL     1      47.844   2.089   5.885  0.00  0.00    +0.000 C 
ATOM     24  O   UNL     1      46.890   1.561   6.797  0.00  0.00    +0.000 OA
ENDBRANCH  17  24
ENDBRANCH  14  20
ENDBRANCH   1  14
TORSDOF 5
ENDMDL
MODEL 6
REMARK VINA RESULT:    -5.665      2.878      4.517
REMARK INTER + INTRA:          -8.043
REMARK INTER:                  -7.778
REMARK INTRA:                  -0.266
REMARK UNBOUND:                -0.722
REMARK  Name = 
REMARK  6 active torsions:
REMARK  status: ('A' for Active; 'I' for Inactive)
REMARK    1  A    between atoms: C_1  and  O_2
REMARK    2  A    between atoms: O_2  and  C_3
REMARK    3  A    between atoms: C_6  and  C_7
REMARK    4  A    between atoms: C_7  and  N_8
REMARK    5  A    between atoms: N_8  and  C_9
REMARK    6  A    between atoms: C_12  and  C_13
REMARK                            x       y       z     vdW  Elec       q    Type
REMARK                         _______ _______ _______ _____ _____    ______ ____
ROOT
ATOM      1  N   UNL     1      46.192   6.224  13.454  0.00  0.00    +0.000 N 
ATOM      2  H   UNL     1      45.498   6.439  14.161  0.00  0.00    +0.000 HD
ENDROOT
BRANCH   1   3
ATOM      3  C   UNL     1      45.690   5.390  12.441  0.00  0.00    +0.000 A 
ATOM      4  C   UNL     1      45.323   4.054  12.622  0.00  0.00    +0.000 A 
ATOM      5  C   UNL     1      44.942   3.262  11.522  0.00  0.00    +0.000 A 
ATOM      6  C   UNL     1      44.935   3.794  10.227  0.00  0.00    +0.000 A 
ATOM      7  C   UNL     1      45.317   5.121  10.034  0.00  0.00    +0.000 A 
ATOM      8  C   UNL     1      45.692   5.899  11.131  0.00  0.00    +0.000 A 
BRANCH   6   9
ATOM      9  C   UNL     1      44.581   2.911   9.080  0.00  0.00    +0.000 C 
ATOM     10  N   UNL     1      44.254   3.511   7.894  0.00  0.00    +0.000 N 
ATOM     11  O   UNL     1      44.565   1.691   9.188  0.00  0.00    +0.000 OA
ATOM     12  H   UNL     1      44.044   4.494   7.812  0.00  0.00    +0.000 HD
ATOM     13  H   UNL     1      43.951   2.901   7.146  0.00  0.00    +0.000 HD
ENDBRANCH   6   9
ENDBRANCH   1   3
BRANCH   1  14
ATOM     14  C   UNL     1      47.592   6.376  13.878  0.00  0.00    +0.000 C 
ATOM     15  C   UNL     1      48.697   6.701  12.894  0.00  0.00    +0.000 C 
ATOM     16  C   UNL     1      48.121   7.804  13.716  0.00  0.00    +0.000 C 
BRANCH  14  20
ATOM     17  C   UNL     1      48.746   4.430  17.619  0.00  0.00    +0.000 A 
ATOM     18  C   UNL     1      47.713   3.901  16.848  0.00  0.00    +0.000 A 
ATOM     19  C   UNL     1      47.306   4.548  15.672  0.00  0.00    +0.000 A 
ATOM     20  C   UNL     1      47.930   5.724  15.219  0.00  0.00    +0.000 A 
ATOM     21  C   UNL     1      48.947   6.254  16.035  0.00  0.00    +0.000 A 
ATOM     22  C   UNL     1      49.347   5.621  17.215  0.00  0.00    +0.000 A 
BRANCH  17  24
ATOM     23  C   UNL     1      48.800   4.448  19.996  0.00  0.00    +0.000 C 
ATOM     24  O   UNL     1      49.257   3.895  18.768  0.00  0.00    +0.000 OA
ENDBRANCH  17  24
ENDBRANCH  14  20
ENDBRANCH   1  14
TORSDOF 5
ENDMDL
MODEL 7
REMARK VINA RESULT:    -5.491      3.088      5.423
REMARK INTER + INTRA:          -7.818
REMARK INTER:                  -7.353
REMARK INTRA:                  -0.465
REMARK UNBOUND:                -0.722
REMARK  Name = 
REMARK  6 active torsions:
REMARK  status: ('A' for Active; 'I' for Inactive)
REMARK    1  A    between atoms: C_1  and  O_2
REMARK    2  A    between atoms: O_2  and  C_3
REMARK    3  A    between atoms: C_6  and  C_7
REMARK    4  A    between atoms: C_7  and  N_8
REMARK    5  A    between atoms: N_8  and  C_9
REMARK    6  A    between atoms: C_12  and  C_13
REMARK                            x       y       z     vdW  Elec       q    Type
REMARK                         _______ _______ _______ _____ _____    ______ ____
ROOT
ATOM      1  N   UNL     1      47.114   6.994  13.899  0.00  0.00    +0.000 N 
ATOM      2  H   UNL     1      46.511   7.113  14.705  0.00  0.00    +0.000 HD
ENDROOT
BRANCH   1   3
ATOM      3  C   UNL     1      46.514   6.227  12.885  0.00  0.00    +0.000 A 
ATOM      4  C   UNL     1      46.308   6.665  11.575  0.00  0.00    +0.000 A 
ATOM      5  C   UNL     1      45.592   5.871  10.660  0.00  0.00    +0.000 A 
ATOM      6  C   UNL     1      45.063   4.635  11.048  0.00  0.00    +0.000 A 
ATOM      7  C   UNL     1      45.247   4.196  12.359  0.00  0.00    +0.000 A 
ATOM      8  C   UNL     1      45.961   4.990  13.259  0.00  0.00    +0.000 A 
BRANCH   6   9
ATOM      9  C   UNL     1      44.262   3.846  10.069  0.00  0.00    +0.000 C 
ATOM     10  N   UNL     1      44.104   4.365   8.812  0.00  0.00    +0.000 N 
ATOM     11  O   UNL     1      43.746   2.779  10.373  0.00  0.00    +0.000 OA
ATOM     12  H   UNL     1      44.320   5.323   8.579  0.00  0.00    +0.000 HD
ATOM     13  H   UNL     1      43.503   3.851   8.182  0.00  0.00    +0.000 HD
ENDBRANCH   6   9
ENDBRANCH   1   3
BRANCH   1  14
ATOM     14  C   UNL     1      48.551   7.175  14.153  0.00  0.00    +0.000 C 
ATOM     15  C   UNL     1      49.521   7.544  13.048  0.00  0.00    +0.000 C 
ATOM     16  C   UNL     1      49.023   8.619  13.954  0.00  0.00    +0.000 C 
BRANCH  14  20
ATOM     17  C   UNL     1      49.898   5.420  17.923  0.00  0.00    +0.000 A 
ATOM     18  C   UNL     1      50.758   6.231  17.185  0.00  0.00    +0.000 A 
ATOM     19  C   UNL     1      50.348   6.757  15.952  0.00  0.00    +0.000 A 
ATOM     20  C   UNL     1      49.065   6.511  15.430  0.00  0.00    +0.000 A 
ATOM     21  C   UNL     1      48.231   5.661  16.180  0.00  0.00    +0.000 A 
ATOM     22  C   UNL     1      48.640   5.123  17.403  0.00  0.00    +0.000 A 
BRANCH  17  24
ATOM     23  C   UNL     1      49.035   4.527  19.951  0.00  0.00    +0.000 C 
ATOM     24  O   UNL     1      50.157   4.862  19.144  0.00  0.00    +0.000 OA
ENDBRANCH  17  24
ENDBRANCH  14  20
ENDBRANCH   1  14
TORSDOF 5
ENDMDL
MODEL 8
REMARK VINA RESULT:    -5.398      3.146      5.123
REMARK INTER + INTRA:          -7.698
REMARK INTER:                  -7.053
REMARK INTRA:                  -0.645
REMARK UNBOUND:                -0.722
REMARK  Name = 
REMARK  6 active torsions:
REMARK  status: ('A' for Active; 'I' for Inactive)
REMARK    1  A    between atoms: C_1  and  O_2
REMARK    2  A    between atoms: O_2  and  C_3
REMARK    3  A    between atoms: C_6  and  C_7
REMARK    4  A    between atoms: C_7  and  N_8
REMARK    5  A    between atoms: N_8  and  C_9
REMARK    6  A    between atoms: C_12  and  C_13
REMARK                            x       y       z     vdW  Elec       q    Type
REMARK                         _______ _______ _______ _____ _____    ______ ____
ROOT
ATOM      1  N   UNL     1      46.723   7.739  12.219  0.00  0.00    +0.000 N 
ATOM      2  H   UNL     1      46.157   8.548  12.447  0.00  0.00    +0.000 HD
ENDROOT
BRANCH   1   3
ATOM      3  C   UNL     1      45.951   6.588  11.983  0.00  0.00    +0.000 A 
ATOM      4  C   UNL     1      45.430   5.763  12.983  0.00  0.00    +0.000 A 
ATOM      5  C   UNL     1      44.769   4.566  12.649  0.00  0.00    +0.000 A 
ATOM      6  C   UNL     1      44.631   4.175  11.312  0.00  0.00    +0.000 A 
ATOM      7  C   UNL     1      45.163   4.983  10.308  0.00  0.00    +0.000 A 
ATOM      8  C   UNL     1      45.816   6.169  10.648  0.00  0.00    +0.000 A 
BRANCH   6   9
ATOM      9  C   UNL     1      43.974   2.874  10.999  0.00  0.00    +0.000 C 
ATOM     10  N   UNL     1      44.481   2.141   9.960  0.00  0.00    +0.000 N 
ATOM     11  O   UNL     1      43.006   2.474  11.632  0.00  0.00    +0.000 OA
ATOM     12  H   UNL     1      45.126   2.517   9.281  0.00  0.00    +0.000 HD
ATOM     13  H   UNL     1      43.983   1.295   9.718  0.00  0.00    +0.000 HD
ENDBRANCH   6   9
ENDBRANCH   1   3
BRANCH   1  14
ATOM     14  C   UNL     1      48.122   7.802  12.667  0.00  0.00    +0.000 C 
ATOM     15  C   UNL     1      49.273   7.409  11.762  0.00  0.00    +0.000 C 
ATOM     16  C   UNL     1      48.948   8.856  11.923  0.00  0.00    +0.000 C 
BRANCH  14  20
ATOM     17  C   UNL     1      48.851   7.925  16.976  0.00  0.00    +0.000 A 
ATOM     18  C   UNL     1      49.052   6.741  16.268  0.00  0.00    +0.000 A 
ATOM     19  C   UNL     1      48.774   6.683  14.895  0.00  0.00    +0.000 A 
ATOM     20  C   UNL     1      48.311   7.805  14.184  0.00  0.00    +0.000 A 
ATOM     21  C   UNL     1      48.085   8.977  14.931  0.00  0.00    +0.000 A 
ATOM     22  C   UNL     1      48.347   9.036  16.302  0.00  0.00    +0.000 A 
BRANCH  17  24
ATOM     23  C   UNL     1      49.630   7.033  19.037  0.00  0.00    +0.000 C 
ATOM     24  O   UNL     1      49.101   8.129  18.304  0.00  0.00    +0.000 OA
ENDBRANCH  17  24
ENDBRANCH  14  20
ENDBRANCH   1  14
TORSDOF 5
ENDMDL
