MODEL 1
REMARK VINA RESULT:    -9.016      0.000      0.000
REMARK INTER + INTRA:         -12.324
REMARK INTER:                 -11.652
REMARK INTRA:                  -0.672
REMARK UNBOUND:                -0.672
REMARK  Name = 
REMARK  5 active torsions:
REMARK  status: ('A' for Active; 'I' for Inactive)
REMARK    1  A    between atoms: C_7  and  C_8
REMARK    2  A    between atoms: N_10  and  C_11
REMARK    3  A    between atoms: C_11  and  C_12
REMARK    4  A    between atoms: C_15  and  C_16
REMARK    5  A    between atoms: C_16  and  C_17
REMARK                            x       y       z     vdW  Elec       q    Type
REMARK                         _______ _______ _______ _____ _____    ______ ____
ROOT
ATOM      1  C   UNL     1      48.175   6.845  14.044  0.00  0.00    +0.000 C 
ATOM      2  O   UNL     1      48.863   7.096  13.057  0.00  0.00    +0.000 OA
ATOM      3  N   UNL     1      46.809   6.989  14.034  0.00  0.00    +0.000 N 
ATOM      4  H   UNL     1      46.256   6.655  14.819  0.00  0.00    +0.000 HD
ENDROOT
BRANCH   1  11
ATOM      5  N   UNL     1      48.291   2.920  19.496  0.00  0.00    +0.000 N 
ATOM      6  C   UNL     1      48.399   3.754  18.431  0.00  0.00    +0.000 A 
ATOM      7  N   UNL     1      49.349   4.645  18.391  0.00  0.00    +0.000 NA
ATOM      8  C   UNL     1      49.325   5.416  17.280  0.00  0.00    +0.000 A 
ATOM      9  N   UNL     1      50.227   6.408  17.037  0.00  0.00    +0.000 N 
ATOM     10  C   UNL     1      49.914   7.009  15.846  0.00  0.00    +0.000 A 
ATOM     11  C   UNL     1      48.784   6.402  15.302  0.00  0.00    +0.000 A 
ATOM     12  C   UNL     1      48.441   5.368  16.225  0.00  0.00    +0.000 A 
ATOM     13  C   UNL     1      47.421   4.352  16.280  0.00  0.00    +0.000 A 
ATOM     14  O   UNL     1      46.604   4.149  15.386  0.00  0.00    +0.000 OA
ATOM     15  N   UNL     1      47.456   3.602  17.439  0.00  0.00    +0.000 N 
ATOM     16  H   UNL     1      48.861   3.228  20.278  0.00  0.00    +0.000 HD
ATOM     17  H   UNL     1      47.356   2.656  19.776  0.00  0.00    +0.000 HD
ATOM     18  H   UNL     1      50.992   6.651  17.651  0.00  0.00    +0.000 HD
ATOM     19  H   UNL     1      46.784   2.856  17.497  0.00  0.00    +0.000 HD
ENDBRANCH   1  11
BRANCH   3  20
ATOM     20  C   UNL     1      46.105   7.380  12.836  0.00  0.00    +0.000 C 
BRANCH  20  21
ATOM     21  C   UNL     1      45.752   6.188  11.984  0.00  0.00    +0.000 A 
ATOM     22  C   UNL     1      45.880   6.258  10.590  0.00  0.00    +0.000 A 
ATOM     23  C   UNL     1      45.545   5.164   9.787  0.00  0.00    +0.000 A 
ATOM     24  C   UNL     1      45.083   3.971  10.360  0.00  0.00    +0.000 A 
ATOM     25  C   UNL     1      44.955   3.900  11.752  0.00  0.00    +0.000 A 
ATOM     26  C   UNL     1      45.273   5.002  12.556  0.00  0.00    +0.000 A 
BRANCH  24  27
ATOM     27  C   UNL     1      44.706   2.793   9.487  0.00  0.00    +0.000 C 
BRANCH  27  28
ATOM     28  C   UNL     1      45.667   2.447   8.368  0.00  0.00    +0.000 A 
ATOM     29  C   UNL     1      45.874   3.320   7.300  0.00  0.00    +0.000 A 
ATOM     30  C   UNL     1      46.666   2.909   6.230  0.00  0.00    +0.000 A 
ATOM     31  C   UNL     1      47.232   1.642   6.248  0.00  0.00    +0.000 A 
ATOM     32  C   UNL     1      46.989   0.838   7.348  0.00  0.00    +0.000 A 
ATOM     33  N   UNL     1      46.221   1.208   8.398  0.00  0.00    +0.000 NA
ENDBRANCH  27  28
ENDBRANCH  24  27
ENDBRANCH  20  21
ENDBRANCH   3  20
TORSDOF 5
ENDMDL
MODEL 2
REMARK VINA RESULT:    -8.348      1.253      1.791
REMARK INTER + INTRA:         -11.460
REMARK INTER:                 -10.428
REMARK INTRA:                  -1.032
REMARK UNBOUND:                -0.672
REMARK  Name = 
REMARK  5 active torsions:
REMARK  status: ('A' for Active; 'I' for Inactive)
REMARK    1  A    between atoms: C_7  and  C_8
REMARK    2  A    between atoms: N_10  and  C_11
REMARK    3  A    between atoms: C_11  and  C_12
REMARK    4  A    between atoms: C_15  and  C_16
REMARK    5  A    between atoms: C_16  and  C_17
REMARK                            x       y       z     vdW  Elec       q    Type
REMARK                         _______ _______ _______ _____ _____    ______ ____
ROOT
ATOM      1  C   UNL     1      49.122   7.450  14.849  0.00  0.00    +0.000 C 
ATOM      2  O   UNL     1      49.925   7.711  13.955  0.00  0.00    +0.000 OA
ATOM      3  N   UNL     1      47.796   7.799  14.759  0.00  0.00    +0.000 N 
ATOM      4  H   UNL     1      47.133   7.461  15.453  0.00  0.00    +0.000 HD
ENDROOT
BRANCH   1  11
ATOM      5  N   UNL     1      48.278   2.812  19.637  0.00  0.00    +0.000 N 
ATOM      6  C   UNL     1      48.579   3.770  18.724  0.00  0.00    +0.000 A 
ATOM      7  N   UNL     1      49.605   4.551  18.908  0.00  0.00    +0.000 NA
ATOM      8  C   UNL     1      49.775   5.468  17.928  0.00  0.00    +0.000 A 
ATOM      9  N   UNL     1      50.785   6.381  17.923  0.00  0.00    +0.000 N 
ATOM     10  C   UNL     1      50.662   7.172  16.811  0.00  0.00    +0.000 A 
ATOM     11  C   UNL     1      49.547   6.772  16.078  0.00  0.00    +0.000 A 
ATOM     12  C   UNL     1      49.011   5.663  16.799  0.00  0.00    +0.000 A 
ATOM     13  C   UNL     1      47.901   4.765  16.605  0.00  0.00    +0.000 A 
ATOM     14  O   UNL     1      47.171   4.777  15.616  0.00  0.00    +0.000 OA
ATOM     15  N   UNL     1      47.740   3.860  17.636  0.00  0.00    +0.000 N 
ATOM     16  H   UNL     1      48.785   2.945  20.507  0.00  0.00    +0.000 HD
ATOM     17  H   UNL     1      47.298   2.614  19.785  0.00  0.00    +0.000 HD
ATOM     18  H   UNL     1      51.498   6.452  18.636  0.00  0.00    +0.000 HD
ATOM     19  H   UNL     1      46.999   3.191  17.518  0.00  0.00    +0.000 HD
ENDBRANCH   1  11
BRANCH   3  20
ATOM     20  C   UNL     1      47.266   8.432  13.576  0.00  0.00    +0.000 C 
BRANCH  20  21
ATOM     21  C   UNL     1      46.452   7.471  12.748  0.00  0.00    +0.000 A 
ATOM     22  C   UNL     1      45.291   7.911  12.099  0.00  0.00    +0.000 A 
ATOM     23  C   UNL     1      44.521   7.027  11.338  0.00  0.00    +0.000 A 
ATOM     24  C   UNL     1      44.898   5.684  11.200  0.00  0.00    +0.000 A 
ATOM     25  C   UNL     1      46.058   5.244  11.850  0.00  0.00    +0.000 A 
ATOM     26  C   UNL     1      46.821   6.125  12.627  0.00  0.00    +0.000 A 
BRANCH  24  27
ATOM     27  C   UNL     1      44.054   4.726  10.388  0.00  0.00    +0.000 C 
BRANCH  27  28
ATOM     28  C   UNL     1      44.786   3.880   9.367  0.00  0.00    +0.000 A 
ATOM     29  C   UNL     1      44.864   2.494   9.501  0.00  0.00    +0.000 A 
ATOM     30  C   UNL     1      45.653   1.768   8.612  0.00  0.00    +0.000 A 
ATOM     31  C   UNL     1      46.346   2.437   7.613  0.00  0.00    +0.000 A 
ATOM     32  C   UNL     1      46.210   3.813   7.538  0.00  0.00    +0.000 A 
ATOM     33  N   UNL     1      45.454   4.543   8.389  0.00  0.00    +0.000 NA
ENDBRANCH  27  28
ENDBRANCH  24  27
ENDBRANCH  20  21
ENDBRANCH   3  20
TORSDOF 5
ENDMDL
MODEL 3
REMARK VINA RESULT:    -7.906      3.437      4.360
REMARK INTER + INTRA:         -10.888
REMARK INTER:                 -10.037
REMARK INTRA:                  -0.851
REMARK UNBOUND:                -0.672
REMARK  Name = 
REMARK  5 active torsions:
REMARK  status: ('A' for Active; 'I' for Inactive)
REMARK    1  A    between atoms: C_7  and  C_8
REMARK    2  A    between atoms: N_10  and  C_11
REMARK    3  A    between atoms: C_11  and  C_12
REMARK    4  A    between atoms: C_15  and  C_16
REMARK    5  A    between atoms: C_16  and  C_17
REMARK                            x       y       z     vdW  Elec       q    Type
REMARK                         _______ _______ _______ _____ _____    ______ ____
ROOT
ATOM      1  C   UNL     1      46.132   8.716  12.618  0.00  0.00    +0.000 C 
ATOM      2  O   UNL     1      45.109   9.326  12.318  0.00  0.00    +0.000 OA
ATOM      3  N   UNL     1      46.097   7.424  13.086  0.00  0.00    +0.000 N 
ATOM      4  H   UNL     1      46.962   6.903  13.207  0.00  0.00    +0.000 HD
ENDROOT
BRANCH   1  11
ATOM      5  N   UNL     1      52.844   8.410  12.534  0.00  0.00    +0.000 N 
ATOM      6  C   UNL     1      51.501   8.608  12.509  0.00  0.00    +0.000 A 
ATOM      7  N   UNL     1      51.019   9.816  12.447  0.00  0.00    +0.000 NA
ATOM      8  C   UNL     1      49.667   9.862  12.446  0.00  0.00    +0.000 A 
ATOM      9  N   UNL     1      48.957  11.024  12.386  0.00  0.00    +0.000 N 
ATOM     10  C   UNL     1      47.619  10.728  12.426  0.00  0.00    +0.000 A 
ATOM     11  C   UNL     1      47.451   9.348  12.519  0.00  0.00    +0.000 A 
ATOM     12  C   UNL     1      48.775   8.814  12.503  0.00  0.00    +0.000 A 
ATOM     13  C   UNL     1      49.336   7.487  12.540  0.00  0.00    +0.000 A 
ATOM     14  O   UNL     1      48.668   6.457  12.529  0.00  0.00    +0.000 OA
ATOM     15  N   UNL     1      50.717   7.476  12.567  0.00  0.00    +0.000 N 
ATOM     16  H   UNL     1      53.350   9.271  12.717  0.00  0.00    +0.000 HD
ATOM     17  H   UNL     1      53.181   7.635  13.089  0.00  0.00    +0.000 HD
ATOM     18  H   UNL     1      49.368  11.945  12.328  0.00  0.00    +0.000 HD
ATOM     19  H   UNL     1      51.147   6.568  12.554  0.00  0.00    +0.000 HD
ENDBRANCH   1  11
BRANCH   3  20
ATOM     20  C   UNL     1      44.855   6.696  13.184  0.00  0.00    +0.000 C 
BRANCH  20  21
ATOM     21  C   UNL     1      44.810   5.540  12.217  0.00  0.00    +0.000 A 
ATOM     22  C   UNL     1      44.190   5.691  10.970  0.00  0.00    +0.000 A 
ATOM     23  C   UNL     1      44.131   4.624  10.069  0.00  0.00    +0.000 A 
ATOM     24  C   UNL     1      44.699   3.384  10.390  0.00  0.00    +0.000 A 
ATOM     25  C   UNL     1      45.319   3.232  11.636  0.00  0.00    +0.000 A 
ATOM     26  C   UNL     1      45.363   4.296  12.547  0.00  0.00    +0.000 A 
BRANCH  24  27
ATOM     27  C   UNL     1      44.620   2.226   9.418  0.00  0.00    +0.000 C 
BRANCH  27  28
ATOM     28  C   UNL     1      45.654   2.201   8.313  0.00  0.00    +0.000 A 
ATOM     29  C   UNL     1      45.780   3.263   7.417  0.00  0.00    +0.000 A 
ATOM     30  C   UNL     1      46.654   3.145   6.339  0.00  0.00    +0.000 A 
ATOM     31  C   UNL     1      47.382   1.975   6.178  0.00  0.00    +0.000 A 
ATOM     32  C   UNL     1      47.211   0.969   7.113  0.00  0.00    +0.000 A 
ATOM     33  N   UNL     1      46.367   1.055   8.166  0.00  0.00    +0.000 NA
ENDBRANCH  27  28
ENDBRANCH  24  27
ENDBRANCH  20  21
ENDBRANCH   3  20
TORSDOF 5
ENDMDL
MODEL 4
REMARK VINA RESULT:    -7.881      3.469      8.158
REMARK INTER + INTRA:         -10.856
REMARK INTER:                  -9.885
REMARK INTRA:                  -0.971
REMARK UNBOUND:                -0.672
REMARK  Name = 
REMARK  5 active torsions:
REMARK  status: ('A' for Active; 'I' for Inactive)
REMARK    1  A    between atoms: C_7  and  C_8
REMARK    2  A    between atoms: N_10  and  C_11
REMARK    3  A    between atoms: C_11  and  C_12
REMARK    4  A    between atoms: C_15  and  C_16
REMARK    5  A    between atoms: C_16  and  C_17
REMARK                            x       y       z     vdW  Elec       q    Type
REMARK                         _______ _______ _______ _____ _____    ______ ____
ROOT
ATOM      1  C   UNL     1      47.851   6.877  13.569  0.00  0.00    +0.000 C 
ATOM      2  O   UNL     1      48.870   6.378  13.097  0.00  0.00    +0.000 OA
ATOM      3  N   UNL     1      47.900   7.820  14.567  0.00  0.00    +0.000 N 
ATOM      4  H   UNL     1      47.053   8.306  14.850  0.00  0.00    +0.000 HD
ENDROOT
BRANCH   1  11
ATOM      5  N   UNL     1      43.369   2.169  11.868  0.00  0.00    +0.000 N 
ATOM      6  C   UNL     1      44.167   3.214  12.206  0.00  0.00    +0.000 A 
ATOM      7  N   UNL     1      43.748   4.437  12.045  0.00  0.00    +0.000 NA
ATOM      8  C   UNL     1      44.653   5.374  12.408  0.00  0.00    +0.000 A 
ATOM      9  N   UNL     1      44.420   6.714  12.321  0.00  0.00    +0.000 N 
ATOM     10  C   UNL     1      45.537   7.386  12.744  0.00  0.00    +0.000 A 
ATOM     11  C   UNL     1      46.521   6.469  13.109  0.00  0.00    +0.000 A 
ATOM     12  C   UNL     1      45.922   5.189  12.910  0.00  0.00    +0.000 A 
ATOM     13  C   UNL     1      46.347   3.826  13.108  0.00  0.00    +0.000 A 
ATOM     14  O   UNL     1      47.424   3.507  13.606  0.00  0.00    +0.000 OA
ATOM     15  N   UNL     1      45.412   2.895  12.702  0.00  0.00    +0.000 N 
ATOM     16  H   UNL     1      42.575   2.465  11.308  0.00  0.00    +0.000 HD
ATOM     17  H   UNL     1      43.825   1.349  11.493  0.00  0.00    +0.000 HD
ATOM     18  H   UNL     1      43.558   7.126  11.991  0.00  0.00    +0.000 HD
ATOM     19  H   UNL     1      45.656   1.932  12.861  0.00  0.00    +0.000 HD
ENDBRANCH   1  11
BRANCH   3  20
ATOM     20  C   UNL     1      49.159   8.322  15.064  0.00  0.00    +0.000 C 
BRANCH  20  21
ATOM     21  C   UNL     1      49.771   7.386  16.075  0.00  0.00    +0.000 A 
ATOM     22  C   UNL     1      51.109   6.992  15.947  0.00  0.00    +0.000 A 
ATOM     23  C   UNL     1      51.686   6.115  16.870  0.00  0.00    +0.000 A 
ATOM     24  C   UNL     1      50.940   5.618  17.948  0.00  0.00    +0.000 A 
ATOM     25  C   UNL     1      49.601   6.011  18.075  0.00  0.00    +0.000 A 
ATOM     26  C   UNL     1      49.019   6.876  17.141  0.00  0.00    +0.000 A 
BRANCH  24  27
ATOM     27  C   UNL     1      51.562   4.656  18.937  0.00  0.00    +0.000 C 
BRANCH  27  28
ATOM     28  C   UNL     1      52.027   3.326  18.383  0.00  0.00    +0.000 A 
ATOM     29  C   UNL     1      51.163   2.504  17.660  0.00  0.00    +0.000 A 
ATOM     30  C   UNL     1      51.592   1.234  17.279  0.00  0.00    +0.000 A 
ATOM     31  C   UNL     1      52.867   0.812  17.627  0.00  0.00    +0.000 A 
ATOM     32  C   UNL     1      53.669   1.689  18.337  0.00  0.00    +0.000 A 
ATOM     33  N   UNL     1      53.279   2.925  18.723  0.00  0.00    +0.000 NA
ENDBRANCH  27  28
ENDBRANCH  24  27
ENDBRANCH  20  21
ENDBRANCH   3  20
TORSDOF 5
ENDMDL
MODEL 5
REMARK VINA RESULT:    -7.833      3.719      8.632
REMARK INTER + INTRA:         -10.795
REMARK INTER:                  -9.906
REMARK INTRA:                  -0.889
REMARK UNBOUND:                -0.672
REMARK  Name = 
REMARK  5 active torsions:
REMARK  status: ('A' for Active; 'I' for Inactive)
REMARK    1  A    between atoms: C_7  and  C_8
REMARK    2  A    between atoms: N_10  and  C_11
REMARK    3  A    between atoms: C_11  and  C_12
REMARK    4  A    between atoms: C_15  and  C_16
REMARK    5  A    between atoms: C_16  and  C_17
REMARK                            x       y       z     vdW  Elec       q    Type
REMARK                         _______ _______ _______ _____ _____    ______ ____
ROOT
ATOM      1  C   UNL     1      44.024   4.113  10.388  0.00  0.00    +0.000 C 
ATOM      2  O   UNL     1      42.958   3.870  10.948  0.00  0.00    +0.000 OA
ATOM      3  N   UNL     1      44.630   5.343  10.481  0.00  0.00    +0.000 N 
ATOM      4  H   UNL     1      45.570   5.476  10.115  0.00  0.00    +0.000 HD
ENDROOT
BRANCH   1  11
ATOM      5  N   UNL     1      48.322   2.353   5.532  0.00  0.00    +0.000 N 
ATOM      6  C   UNL     1      47.446   2.570   6.546  0.00  0.00    +0.000 A 
ATOM      7  N   UNL     1      46.791   1.574   7.069  0.00  0.00    +0.000 NA
ATOM      8  C   UNL     1      45.943   1.939   8.058  0.00  0.00    +0.000 A 
ATOM      9  N   UNL     1      45.161   1.055   8.739  0.00  0.00    +0.000 N 
ATOM     10  C   UNL     1      44.407   1.744   9.653  0.00  0.00    +0.000 A 
ATOM     11  C   UNL     1      44.698   3.104   9.564  0.00  0.00    +0.000 A 
ATOM     12  C   UNL     1      45.702   3.201   8.555  0.00  0.00    +0.000 A 
ATOM     13  C   UNL     1      46.464   4.280   7.979  0.00  0.00    +0.000 A 
ATOM     14  O   UNL     1      46.404   5.445   8.363  0.00  0.00    +0.000 OA
ATOM     15  N   UNL     1      47.299   3.877   6.955  0.00  0.00    +0.000 N 
ATOM     16  H   UNL     1      48.216   1.426   5.132  0.00  0.00    +0.000 HD
ATOM     17  H   UNL     1      48.392   3.075   4.827  0.00  0.00    +0.000 HD
ATOM     18  H   UNL     1      45.149   0.058   8.579  0.00  0.00    +0.000 HD
ATOM     19  H   UNL     1      47.877   4.596   6.555  0.00  0.00    +0.000 HD
ENDBRANCH   1  11
BRANCH   3  20
ATOM     20  C   UNL     1      44.073   6.393  11.300  0.00  0.00    +0.000 C 
BRANCH  20  21
ATOM     21  C   UNL     1      45.151   7.210  11.965  0.00  0.00    +0.000 A 
ATOM     22  C   UNL     1      46.169   6.575  12.688  0.00  0.00    +0.000 A 
ATOM     23  C   UNL     1      47.168   7.321  13.320  0.00  0.00    +0.000 A 
ATOM     24  C   UNL     1      47.178   8.720  13.235  0.00  0.00    +0.000 A 
ATOM     25  C   UNL     1      46.160   9.356  12.513  0.00  0.00    +0.000 A 
ATOM     26  C   UNL     1      45.149   8.609  11.895  0.00  0.00    +0.000 A 
BRANCH  24  27
ATOM     27  C   UNL     1      48.252   9.527  13.933  0.00  0.00    +0.000 C 
BRANCH  27  28
ATOM     28  C   UNL     1      49.674   9.306  13.463  0.00  0.00    +0.000 A 
ATOM     29  C   UNL     1      49.994   9.308  12.105  0.00  0.00    +0.000 A 
ATOM     30  C   UNL     1      51.288   8.974  11.710  0.00  0.00    +0.000 A 
ATOM     31  C   UNL     1      52.231   8.646  12.673  0.00  0.00    +0.000 A 
ATOM     32  C   UNL     1      51.841   8.677  14.001  0.00  0.00    +0.000 A 
ATOM     33  N   UNL     1      50.592   8.993  14.413  0.00  0.00    +0.000 NA
ENDBRANCH  27  28
ENDBRANCH  24  27
ENDBRANCH  20  21
ENDBRANCH   3  20
TORSDOF 5
ENDMDL
MODEL 6
REMARK VINA RESULT:    -7.787      3.936      8.808
REMARK INTER + INTRA:         -10.735
REMARK INTER:                 -10.050
REMARK INTRA:                  -0.685
REMARK UNBOUND:                -0.672
REMARK  Name = 
REMARK  5 active torsions:
REMARK  status: ('A' for Active; 'I' for Inactive)
REMARK    1  A    between atoms: C_7  and  C_8
REMARK    2  A    between atoms: N_10  and  C_11
REMARK    3  A    between atoms: C_11  and  C_12
REMARK    4  A    between atoms: C_15  and  C_16
REMARK    5  A    between atoms: C_16  and  C_17
REMARK                            x       y       z     vdW  Elec       q    Type
REMARK                         _______ _______ _______ _____ _____    ______ ____
ROOT
ATOM      1  C   UNL     1      47.104   4.147  14.664  0.00  0.00    +0.000 C 
ATOM      2  O   UNL     1      47.305   3.071  14.106  0.00  0.00    +0.000 OA
ATOM      3  N   UNL     1      47.151   4.277  16.031  0.00  0.00    +0.000 N 
ATOM      4  H   UNL     1      47.106   5.200  16.456  0.00  0.00    +0.000 HD
ENDROOT
BRANCH   1  11
ATOM      5  N   UNL     1      42.926   7.768  10.845  0.00  0.00    +0.000 N 
ATOM      6  C   UNL     1      43.851   7.154  11.625  0.00  0.00    +0.000 A 
ATOM      7  N   UNL     1      45.019   7.701  11.810  0.00  0.00    +0.000 NA
ATOM      8  C   UNL     1      45.843   6.971  12.596  0.00  0.00    +0.000 A 
ATOM      9  N   UNL     1      47.109   7.358  12.918  0.00  0.00    +0.000 N 
ATOM     10  C   UNL     1      47.681   6.393  13.704  0.00  0.00    +0.000 A 
ATOM     11  C   UNL     1      46.775   5.352  13.896  0.00  0.00    +0.000 A 
ATOM     12  C   UNL     1      45.597   5.757  13.199  0.00  0.00    +0.000 A 
ATOM     13  C   UNL     1      44.287   5.191  13.003  0.00  0.00    +0.000 A 
ATOM     14  O   UNL     1      43.902   4.149  13.528  0.00  0.00    +0.000 OA
ATOM     15  N   UNL     1      43.480   5.946  12.175  0.00  0.00    +0.000 N 
ATOM     16  H   UNL     1      43.333   8.521  10.297  0.00  0.00    +0.000 HD
ATOM     17  H   UNL     1      42.322   7.171  10.297  0.00  0.00    +0.000 HD
ATOM     18  H   UNL     1      47.541   8.220  12.612  0.00  0.00    +0.000 HD
ATOM     19  H   UNL     1      42.544   5.604  12.045  0.00  0.00    +0.000 HD
ENDBRANCH   1  11
BRANCH   3  20
ATOM     20  C   UNL     1      47.506   3.164  16.878  0.00  0.00    +0.000 C 
BRANCH  20  21
ATOM     21  C   UNL     1      48.976   3.167  17.214  0.00  0.00    +0.000 A 
ATOM     22  C   UNL     1      49.753   2.027  16.973  0.00  0.00    +0.000 A 
ATOM     23  C   UNL     1      51.115   2.012  17.290  0.00  0.00    +0.000 A 
ATOM     24  C   UNL     1      51.732   3.140  17.848  0.00  0.00    +0.000 A 
ATOM     25  C   UNL     1      50.955   4.280  18.090  0.00  0.00    +0.000 A 
ATOM     26  C   UNL     1      49.587   4.289  17.788  0.00  0.00    +0.000 A 
BRANCH  24  27
ATOM     27  C   UNL     1      53.203   3.116  18.205  0.00  0.00    +0.000 C 
BRANCH  27  28
ATOM     28  C   UNL     1      53.943   1.824  17.928  0.00  0.00    +0.000 A 
ATOM     29  C   UNL     1      54.749   1.683  16.798  0.00  0.00    +0.000 A 
ATOM     30  C   UNL     1      55.309   0.439  16.513  0.00  0.00    +0.000 A 
ATOM     31  C   UNL     1      55.054  -0.633  17.357  0.00  0.00    +0.000 A 
ATOM     32  C   UNL     1      54.253  -0.411  18.464  0.00  0.00    +0.000 A 
ATOM     33  N   UNL     1      53.693   0.783  18.763  0.00  0.00    +0.000 NA
ENDBRANCH  27  28
ENDBRANCH  24  27
ENDBRANCH  20  21
ENDBRANCH   3  20
TORSDOF 5
ENDMDL
MODEL 7
REMARK VINA RESULT:    -7.753      2.795      9.240
REMARK INTER + INTRA:         -10.691
REMARK INTER:                  -9.843
REMARK INTRA:                  -0.848
REMARK UNBOUND:                -0.672
REMARK  Name = 
REMARK  5 active torsions:
REMARK  status: ('A' for Active; 'I' for Inactive)
REMARK    1  A    between atoms: C_7  and  C_8
REMARK    2  A    between atoms: N_10  and  C_11
REMARK    3  A    between atoms: C_11  and  C_12
REMARK    4  A    between atoms: C_15  and  C_16
REMARK    5  A    between atoms: C_16  and  C_17
REMARK                            x       y       z     vdW  Elec       q    Type
REMARK                         _______ _______ _______ _____ _____    ______ ____
ROOT
ATOM      1  C   UNL     1      44.124   4.120  10.459  0.00  0.00    +0.000 C 
ATOM      2  O   UNL     1      43.011   3.927  10.943  0.00  0.00    +0.000 OA
ATOM      3  N   UNL     1      44.827   5.278  10.691  0.00  0.00    +0.000 N 
ATOM      4  H   UNL     1      45.793   5.358  10.383  0.00  0.00    +0.000 HD
ENDROOT
BRANCH   1  11
ATOM      5  N   UNL     1      48.202   2.462   5.383  0.00  0.00    +0.000 N 
ATOM      6  C   UNL     1      47.371   2.657   6.438  0.00  0.00    +0.000 A 
ATOM      7  N   UNL     1      46.728   1.652   6.959  0.00  0.00    +0.000 NA
ATOM      8  C   UNL     1      45.925   1.997   7.992  0.00  0.00    +0.000 A 
ATOM      9  N   UNL     1      45.163   1.101   8.680  0.00  0.00    +0.000 N 
ATOM     10  C   UNL     1      44.454   1.770   9.643  0.00  0.00    +0.000 A 
ATOM     11  C   UNL     1      44.753   3.130   9.580  0.00  0.00    +0.000 A 
ATOM     12  C   UNL     1      45.716   3.246   8.533  0.00  0.00    +0.000 A 
ATOM     13  C   UNL     1      46.465   4.334   7.957  0.00  0.00    +0.000 A 
ATOM     14  O   UNL     1      46.431   5.489   8.375  0.00  0.00    +0.000 OA
ATOM     15  N   UNL     1      47.253   3.954   6.889  0.00  0.00    +0.000 N 
ATOM     16  H   UNL     1      48.071   1.547   4.962  0.00  0.00    +0.000 HD
ATOM     17  H   UNL     1      48.250   3.202   4.696  0.00  0.00    +0.000 HD
ATOM     18  H   UNL     1      45.134   0.108   8.492  0.00  0.00    +0.000 HD
ATOM     19  H   UNL     1      47.821   4.678   6.485  0.00  0.00    +0.000 HD
ENDBRANCH   1  11
BRANCH   3  20
ATOM     20  C   UNL     1      44.317   6.301  11.573  0.00  0.00    +0.000 C 
BRANCH  20  21
ATOM     21  C   UNL     1      45.425   6.976  12.340  0.00  0.00    +0.000 A 
ATOM     22  C   UNL     1      46.479   6.217  12.865  0.00  0.00    +0.000 A 
ATOM     23  C   UNL     1      47.507   6.828  13.589  0.00  0.00    +0.000 A 
ATOM     24  C   UNL     1      47.509   8.215  13.797  0.00  0.00    +0.000 A 
ATOM     25  C   UNL     1      46.455   8.973  13.273  0.00  0.00    +0.000 A 
ATOM     26  C   UNL     1      45.416   8.359  12.563  0.00  0.00    +0.000 A 
BRANCH  24  27
ATOM     27  C   UNL     1      48.615   8.872  14.595  0.00  0.00    +0.000 C 
BRANCH  27  28
ATOM     28  C   UNL     1      48.611   8.622  16.088  0.00  0.00    +0.000 A 
ATOM     29  C   UNL     1      47.902   9.452  16.956  0.00  0.00    +0.000 A 
ATOM     30  C   UNL     1      48.027   9.265  18.331  0.00  0.00    +0.000 A 
ATOM     31  C   UNL     1      48.854   8.258  18.809  0.00  0.00    +0.000 A 
ATOM     32  C   UNL     1      49.517   7.469  17.885  0.00  0.00    +0.000 A 
ATOM     33  N   UNL     1      49.417   7.630  16.546  0.00  0.00    +0.000 NA
ENDBRANCH  27  28
ENDBRANCH  24  27
ENDBRANCH  20  21
ENDBRANCH   3  20
TORSDOF 5
ENDMDL
MODEL 8
REMARK VINA RESULT:    -7.704      2.162      2.762
REMARK INTER + INTRA:         -10.627
REMARK INTER:                  -9.692
REMARK INTRA:                  -0.935
REMARK UNBOUND:                -0.672
REMARK  Name = 
REMARK  5 active torsions:
REMARK  status: ('A' for Active; 'I' for Inactive)
REMARK    1  A    between atoms: C_7  and  C_8
REMARK    2  A    between atoms: N_10  and  C_11
REMARK    3  A    between atoms: C_11  and  C_12
REMARK    4  A    between atoms: C_15  and  C_16
REMARK    5  A    between atoms: C_16  and  C_17
REMARK                            x       y       z     vdW  Elec       q    Type
REMARK                         _______ _______ _______ _____ _____    ______ ____
ROOT
ATOM      1  C   UNL     1      49.320   6.403  16.545  0.00  0.00    +0.000 C 
ATOM      2  O   UNL     1      48.543   6.945  17.329  0.00  0.00    +0.000 OA
ATOM      3  N   UNL     1      49.225   6.585  15.187  0.00  0.00    +0.000 N 
ATOM      4  H   UNL     1      49.953   6.228  14.573  0.00  0.00    +0.000 HD
ENDROOT
BRANCH   1  11
ATOM      5  N   UNL     1      51.666   0.284  18.028  0.00  0.00    +0.000 N 
ATOM      6  C   UNL     1      51.325   1.567  17.746  0.00  0.00    +0.000 A 
ATOM      7  N   UNL     1      52.148   2.538  18.021  0.00  0.00    +0.000 NA
ATOM      8  C   UNL     1      51.672   3.763  17.700  0.00  0.00    +0.000 A 
ATOM      9  N   UNL     1      52.369   4.915  17.904  0.00  0.00    +0.000 N 
ATOM     10  C   UNL     1      51.602   5.975  17.496  0.00  0.00    +0.000 A 
ATOM     11  C   UNL     1      50.379   5.508  17.021  0.00  0.00    +0.000 A 
ATOM     12  C   UNL     1      50.457   4.088  17.138  0.00  0.00    +0.000 A 
ATOM     13  C   UNL     1      49.580   2.991  16.815  0.00  0.00    +0.000 A 
ATOM     14  O   UNL     1      48.495   3.121  16.253  0.00  0.00    +0.000 OA
ATOM     15  N   UNL     1      50.084   1.758  17.179  0.00  0.00    +0.000 N 
ATOM     16  H   UNL     1      52.475   0.233  18.640  0.00  0.00    +0.000 HD
ATOM     17  H   UNL     1      50.919  -0.333  18.318  0.00  0.00    +0.000 HD
ATOM     18  H   UNL     1      53.299   4.962  18.298  0.00  0.00    +0.000 HD
ATOM     19  H   UNL     1      49.518   0.965  16.935  0.00  0.00    +0.000 HD
ENDBRANCH   1  11
BRANCH   3  20
ATOM     20  C   UNL     1      48.245   7.477  14.616  0.00  0.00    +0.000 C 
BRANCH  20  21
ATOM     21  C   UNL     1      47.295   6.748  13.700  0.00  0.00    +0.000 A 
ATOM     22  C   UNL     1      46.535   7.462  12.765  0.00  0.00    +0.000 A 
ATOM     23  C   UNL     1      45.641   6.801  11.917  0.00  0.00    +0.000 A 
ATOM     24  C   UNL     1      45.494   5.408  11.980  0.00  0.00    +0.000 A 
ATOM     25  C   UNL     1      46.253   4.694  12.915  0.00  0.00    +0.000 A 
ATOM     26  C   UNL     1      47.136   5.359  13.776  0.00  0.00    +0.000 A 
BRANCH  24  27
ATOM     27  C   UNL     1      44.514   4.695  11.072  0.00  0.00    +0.000 C 
BRANCH  27  28
ATOM     28  C   UNL     1      45.106   3.947   9.896  0.00  0.00    +0.000 A 
ATOM     29  C   UNL     1      45.626   4.627   8.795  0.00  0.00    +0.000 A 
ATOM     30  C   UNL     1      46.043   3.902   7.681  0.00  0.00    +0.000 A 
ATOM     31  C   UNL     1      45.931   2.518   7.689  0.00  0.00    +0.000 A 
ATOM     32  C   UNL     1      45.415   1.915   8.822  0.00  0.00    +0.000 A 
ATOM     33  N   UNL     1      44.999   2.593   9.915  0.00  0.00    +0.000 NA
ENDBRANCH  27  28
ENDBRANCH  24  27
ENDBRANCH  20  21
ENDBRANCH   3  20
TORSDOF 5
ENDMDL
MODEL 9
REMARK VINA RESULT:    -7.378      3.931      9.138
REMARK INTER + INTRA:         -10.207
REMARK INTER:                  -9.409
REMARK INTRA:                  -0.798
REMARK UNBOUND:                -0.672
REMARK  Name = 
REMARK  5 active torsions:
REMARK  status: ('A' for Active; 'I' for Inactive)
REMARK    1  A    between atoms: C_7  and  C_8
REMARK    2  A    between atoms: N_10  and  C_11
REMARK    3  A    between atoms: C_11  and  C_12
REMARK    4  A    between atoms: C_15  and  C_16
REMARK    5  A    between atoms: C_16  and  C_17
REMARK                            x       y       z     vdW  Elec       q    Type
REMARK                         _______ _______ _______ _____ _____    ______ ____
ROOT
ATOM      1  C   UNL     1      47.103   4.115  14.772  0.00  0.00    +0.000 C 
ATOM      2  O   UNL     1      47.421   3.047  14.253  0.00  0.00    +0.000 OA
ATOM      3  N   UNL     1      47.032   4.268  16.136  0.00  0.00    +0.000 N 
ATOM      4  H   UNL     1      46.891   5.191  16.538  0.00  0.00    +0.000 HD
ENDROOT
BRANCH   1  11
ATOM      5  N   UNL     1      42.847   7.537  10.858  0.00  0.00    +0.000 N 
ATOM      6  C   UNL     1      43.787   6.964  11.651  0.00  0.00    +0.000 A 
ATOM      7  N   UNL     1      44.953   7.526  11.796  0.00  0.00    +0.000 NA
ATOM      8  C   UNL     1      45.793   6.837  12.600  0.00  0.00    +0.000 A 
ATOM      9  N   UNL     1      47.061   7.246  12.887  0.00  0.00    +0.000 N 
ATOM     10  C   UNL     1      47.651   6.320  13.706  0.00  0.00    +0.000 A 
ATOM     11  C   UNL     1      46.755   5.283  13.956  0.00  0.00    +0.000 A 
ATOM     12  C   UNL     1      45.565   5.649  13.259  0.00  0.00    +0.000 A 
ATOM     13  C   UNL     1      44.256   5.066  13.107  0.00  0.00    +0.000 A 
ATOM     14  O   UNL     1      43.887   4.045  13.683  0.00  0.00    +0.000 OA
ATOM     15  N   UNL     1      43.433   5.779  12.258  0.00  0.00    +0.000 N 
ATOM     16  H   UNL     1      43.240   8.267  10.272  0.00  0.00    +0.000 HD
ATOM     17  H   UNL     1      42.239   6.912  10.345  0.00  0.00    +0.000 HD
ATOM     18  H   UNL     1      47.482   8.096  12.538  0.00  0.00    +0.000 HD
ATOM     19  H   UNL     1      42.497   5.425  12.157  0.00  0.00    +0.000 HD
ENDBRANCH   1  11
BRANCH   3  20
ATOM     20  C   UNL     1      47.394   3.194  17.030  0.00  0.00    +0.000 C 
BRANCH  20  21
ATOM     21  C   UNL     1      48.884   3.131  17.248  0.00  0.00    +0.000 A 
ATOM     22  C   UNL     1      49.584   1.949  16.973  0.00  0.00    +0.000 A 
ATOM     23  C   UNL     1      50.964   1.872  17.182  0.00  0.00    +0.000 A 
ATOM     24  C   UNL     1      51.678   2.978  17.663  0.00  0.00    +0.000 A 
ATOM     25  C   UNL     1      50.978   4.160  17.939  0.00  0.00    +0.000 A 
ATOM     26  C   UNL     1      49.593   4.231  17.746  0.00  0.00    +0.000 A 
BRANCH  24  27
ATOM     27  C   UNL     1      53.170   2.887  17.903  0.00  0.00    +0.000 C 
BRANCH  27  28
ATOM     28  C   UNL     1      53.885   4.187  18.207  0.00  0.00    +0.000 A 
ATOM     29  C   UNL     1      54.336   5.019  17.182  0.00  0.00    +0.000 A 
ATOM     30  C   UNL     1      55.100   6.139  17.501  0.00  0.00    +0.000 A 
ATOM     31  C   UNL     1      55.397   6.405  18.830  0.00  0.00    +0.000 A 
ATOM     32  C   UNL     1      54.905   5.539  19.791  0.00  0.00    +0.000 A 
ATOM     33  N   UNL     1      54.165   4.443  19.510  0.00  0.00    +0.000 NA
ENDBRANCH  27  28
ENDBRANCH  24  27
ENDBRANCH  20  21
ENDBRANCH   3  20
TORSDOF 5
ENDMDL
