MODEL 1
REMARK VINA RESULT:    -8.942      0.000      0.000
REMARK INTER + INTRA:         -13.702
REMARK INTER:                 -12.863
REMARK INTRA:                  -0.839
REMARK UNBOUND:                -0.839
REMARK  Name = 
REMARK  8 active torsions:
REMARK  status: ('A' for Active; 'I' for Inactive)
REMARK    1  A    between atoms: C_2  and  C_20
REMARK    2  A    between atoms: N_3  and  C_4
REMARK    3  A    between atoms: C_4  and  C_5
REMARK    4  A    between atoms: C_5  and  N_6
REMARK    5  A    between atoms: C_9  and  C_10
REMARK    6  A    between atoms: C_9  and  C_12
REMARK    7  A    between atoms: C_10  and  O_11
REMARK    8  A    between atoms: C_12  and  C_13
REMARK                            x       y       z     vdW  Elec       q    Type
REMARK                         _______ _______ _______ _____ _____    ______ ____
ROOT
ATOM      1  C   UNL     1      46.328   4.788  14.082  0.00  0.00    +0.000 C 
ENDROOT
BRANCH   1   4
ATOM      2  O   UNL     1      46.490   3.622  16.635  0.00  0.00    +0.000 OA
ATOM      3  C   UNL     1      47.453   4.253  16.214  0.00  0.00    +0.000 C 
ATOM      4  N   UNL     1      47.432   4.904  15.005  0.00  0.00    +0.000 N 
ATOM      5  H   UNL     1      48.275   5.339  14.649  0.00  0.00    +0.000 HD
BRANCH   3   6
ATOM      6  C   UNL     1      48.687   4.394  16.991  0.00  0.00    +0.000 A 
ATOM      7  C   UNL     1      48.924   5.555  17.717  0.00  0.00    +0.000 A 
ATOM      8  S   UNL     1      50.408   5.538  18.558  0.00  0.00    +0.000 S 
ATOM      9  C   UNL     1      50.759   3.961  18.022  0.00  0.00    +0.000 A 
ATOM     10  N   UNL     1      51.893   3.320  18.417  0.00  0.00    +0.000 NA
ATOM     11  C   UNL     1      52.008   2.115  17.973  0.00  0.00    +0.000 A 
ATOM     12  N   UNL     1      51.102   1.492  17.155  0.00  0.00    +0.000 N 
ATOM     13  C   UNL     1      49.985   2.123  16.669  0.00  0.00    +0.000 A 
ATOM     14  O   UNL     1      49.265   1.581  15.839  0.00  0.00    +0.000 OA
ATOM     15  C   UNL     1      49.776   3.468  17.184  0.00  0.00    +0.000 A 
ATOM     16  H   UNL     1      51.269   0.558  16.810  0.00  0.00    +0.000 HD
ENDBRANCH   3   6
ENDBRANCH   1   4
BRANCH   1  17
ATOM     17  C   UNL     1      46.071   6.108  13.341  0.00  0.00    +0.000 C 
BRANCH  17  18
ATOM     18  N   UNL     1      45.877   5.952  11.885  0.00  0.00    +0.000 NA
ATOM     19  C   UNL     1      44.745   6.782  11.437  0.00  0.00    +0.000 C 
ATOM     20  C   UNL     1      43.528   5.913  11.700  0.00  0.00    +0.000 C 
ATOM     21  C   UNL     1      43.986   4.526  11.225  0.00  0.00    +0.000 C 
ATOM     22  C   UNL     1      45.512   4.565  11.516  0.00  0.00    +0.000 C 
BRANCH  21  23
ATOM     23  C   UNL     1      43.352   3.387  12.050  0.00  0.00    +0.000 C 
BRANCH  23  24
ATOM     24  O   UNL     1      44.288   2.444  12.546  0.00  0.00    +0.000 OA
ATOM     25  H   UNL     1      44.065   1.570  12.184  0.00  0.00    +0.000 HD
ENDBRANCH  23  24
ENDBRANCH  21  23
BRANCH  21  26
ATOM     26  C   UNL     1      43.799   4.324   9.687  0.00  0.00    +0.000 C 
BRANCH  26  27
ATOM     27  C   UNL     1      44.896   3.592   8.954  0.00  0.00    +0.000 A 
ATOM     28  C   UNL     1      45.777   4.282   8.109  0.00  0.00    +0.000 A 
ATOM     29  C   UNL     1      46.732   3.592   7.364  0.00  0.00    +0.000 A 
ATOM     30  C   UNL     1      46.841   2.209   7.480  0.00  0.00    +0.000 A 
ATOM     31  C   UNL     1      46.001   1.518   8.353  0.00  0.00    +0.000 A 
ATOM     32  C   UNL     1      45.034   2.205   9.086  0.00  0.00    +0.000 A 
ENDBRANCH  26  27
ENDBRANCH  21  26
ENDBRANCH  17  18
ENDBRANCH   1  17
TORSDOF 8
ENDMDL
MODEL 2
REMARK VINA RESULT:    -8.858      1.930      2.444
REMARK INTER + INTRA:         -13.581
REMARK INTER:                 -12.473
REMARK INTRA:                  -1.108
REMARK UNBOUND:                -0.839
REMARK  Name = 
REMARK  8 active torsions:
REMARK  status: ('A' for Active; 'I' for Inactive)
REMARK    1  A    between atoms: C_2  and  C_20
REMARK    2  A    between atoms: N_3  and  C_4
REMARK    3  A    between atoms: C_4  and  C_5
REMARK    4  A    between atoms: C_5  and  N_6
REMARK    5  A    between atoms: C_9  and  C_10
REMARK    6  A    between atoms: C_9  and  C_12
REMARK    7  A    between atoms: C_10  and  O_11
REMARK    8  A    between atoms: C_12  and  C_13
REMARK                            x       y       z     vdW  Elec       q    Type
REMARK                         _______ _______ _______ _____ _____    ______ ____
ROOT
ATOM      1  C   UNL     1      46.385   7.573  12.671  0.00  0.00    +0.000 C 
ENDROOT
BRANCH   1   4
ATOM      2  O   UNL     1      48.973   6.541  13.048  0.00  0.00    +0.000 OA
ATOM      3  C   UNL     1      48.229   6.635  14.018  0.00  0.00    +0.000 C 
ATOM      4  N   UNL     1      46.931   7.070  13.908  0.00  0.00    +0.000 N 
ATOM      5  H   UNL     1      46.375   7.220  14.743  0.00  0.00    +0.000 HD
BRANCH   3   6
ATOM      6  C   UNL     1      48.658   6.248  15.364  0.00  0.00    +0.000 A 
ATOM      7  C   UNL     1      49.569   7.034  16.059  0.00  0.00    +0.000 A 
ATOM      8  S   UNL     1      49.948   6.427  17.607  0.00  0.00    +0.000 S 
ATOM      9  C   UNL     1      48.870   5.122  17.422  0.00  0.00    +0.000 A 
ATOM     10  N   UNL     1      48.681   4.219  18.422  0.00  0.00    +0.000 NA
ATOM     11  C   UNL     1      47.803   3.311  18.163  0.00  0.00    +0.000 A 
ATOM     12  N   UNL     1      47.105   3.210  16.989  0.00  0.00    +0.000 N 
ATOM     13  C   UNL     1      47.316   4.050  15.925  0.00  0.00    +0.000 A 
ATOM     14  O   UNL     1      46.768   3.853  14.847  0.00  0.00    +0.000 OA
ATOM     15  C   UNL     1      48.258   5.129  16.183  0.00  0.00    +0.000 A 
ATOM     16  H   UNL     1      46.456   2.451  16.833  0.00  0.00    +0.000 HD
ENDBRANCH   3   6
ENDBRANCH   1   4
BRANCH   1  17
ATOM     17  C   UNL     1      44.907   7.191  12.510  0.00  0.00    +0.000 C 
BRANCH  17  18
ATOM     18  N   UNL     1      44.545   6.750  11.148  0.00  0.00    +0.000 NA
ATOM     19  C   UNL     1      43.164   6.238  11.135  0.00  0.00    +0.000 C 
ATOM     20  C   UNL     1      43.306   4.791  11.575  0.00  0.00    +0.000 C 
ATOM     21  C   UNL     1      44.544   4.317  10.798  0.00  0.00    +0.000 C 
ATOM     22  C   UNL     1      45.383   5.619  10.686  0.00  0.00    +0.000 C 
BRANCH  21  23
ATOM     23  C   UNL     1      45.358   3.267  11.582  0.00  0.00    +0.000 C 
BRANCH  23  24
ATOM     24  O   UNL     1      44.776   2.893  12.820  0.00  0.00    +0.000 OA
ATOM     25  H   UNL     1      43.921   2.467  12.642  0.00  0.00    +0.000 HD
ENDBRANCH  23  24
ENDBRANCH  21  23
BRANCH  21  26
ATOM     26  C   UNL     1      44.201   3.843   9.349  0.00  0.00    +0.000 C 
BRANCH  26  27
ATOM     27  C   UNL     1      45.301   3.161   8.574  0.00  0.00    +0.000 A 
ATOM     28  C   UNL     1      46.103   3.884   7.679  0.00  0.00    +0.000 A 
ATOM     29  C   UNL     1      47.058   3.236   6.898  0.00  0.00    +0.000 A 
ATOM     30  C   UNL     1      47.247   1.862   7.027  0.00  0.00    +0.000 A 
ATOM     31  C   UNL     1      46.487   1.140   7.946  0.00  0.00    +0.000 A 
ATOM     32  C   UNL     1      45.520   1.785   8.716  0.00  0.00    +0.000 A 
ENDBRANCH  26  27
ENDBRANCH  21  26
ENDBRANCH  17  18
ENDBRANCH   1  17
TORSDOF 8
ENDMDL
MODEL 3
REMARK VINA RESULT:    -8.405      2.228      3.494
REMARK INTER + INTRA:         -12.930
REMARK INTER:                 -11.816
REMARK INTRA:                  -1.114
REMARK UNBOUND:                -0.839
REMARK  Name = 
REMARK  8 active torsions:
REMARK  status: ('A' for Active; 'I' for Inactive)
REMARK    1  A    between atoms: C_2  and  C_20
REMARK    2  A    between atoms: N_3  and  C_4
REMARK    3  A    between atoms: C_4  and  C_5
REMARK    4  A    between atoms: C_5  and  N_6
REMARK    5  A    between atoms: C_9  and  C_10
REMARK    6  A    between atoms: C_9  and  C_12
REMARK    7  A    between atoms: C_10  and  O_11
REMARK    8  A    between atoms: C_12  and  C_13
REMARK                            x       y       z     vdW  Elec       q    Type
REMARK                         _______ _______ _______ _____ _____    ______ ____
ROOT
ATOM      1  C   UNL     1      44.063   6.239  12.408  0.00  0.00    +0.000 C 
ENDROOT
BRANCH   1   4
ATOM      2  O   UNL     1      46.604   7.252  11.758  0.00  0.00    +0.000 OA
ATOM      3  C   UNL     1      46.421   6.799  12.881  0.00  0.00    +0.000 C 
ATOM      4  N   UNL     1      45.230   6.229  13.258  0.00  0.00    +0.000 N 
ATOM      5  H   UNL     1      45.086   5.946  14.221  0.00  0.00    +0.000 HD
BRANCH   3   6
ATOM      6  C   UNL     1      47.478   6.791  13.896  0.00  0.00    +0.000 A 
ATOM      7  C   UNL     1      48.325   7.885  14.028  0.00  0.00    +0.000 A 
ATOM      8  S   UNL     1      49.490   7.696  15.260  0.00  0.00    +0.000 S 
ATOM      9  C   UNL     1      48.870   6.171  15.692  0.00  0.00    +0.000 A 
ATOM     10  N   UNL     1      49.400   5.463  16.726  0.00  0.00    +0.000 NA
ATOM     11  C   UNL     1      48.803   4.346  16.971  0.00  0.00    +0.000 A 
ATOM     12  N   UNL     1      47.733   3.860  16.268  0.00  0.00    +0.000 N 
ATOM     13  C   UNL     1      47.212   4.500  15.172  0.00  0.00    +0.000 A 
ATOM     14  O   UNL     1      46.339   3.976  14.490  0.00  0.00    +0.000 OA
ATOM     15  C   UNL     1      47.813   5.794  14.884  0.00  0.00    +0.000 A 
ATOM     16  H   UNL     1      47.333   2.959  16.487  0.00  0.00    +0.000 HD
ENDBRANCH   3   6
ENDBRANCH   1   4
BRANCH   1  17
ATOM     17  C   UNL     1      43.140   5.049  12.703  0.00  0.00    +0.000 C 
BRANCH  17  18
ATOM     18  N   UNL     1      42.859   4.201  11.527  0.00  0.00    +0.000 NA
ATOM     19  C   UNL     1      43.428   2.857  11.729  0.00  0.00    +0.000 C 
ATOM     20  C   UNL     1      44.874   3.002  11.288  0.00  0.00    +0.000 C 
ATOM     21  C   UNL     1      44.761   3.846  10.009  0.00  0.00    +0.000 C 
ATOM     22  C   UNL     1      43.507   4.717  10.299  0.00  0.00    +0.000 C 
BRANCH  21  23
ATOM     23  C   UNL     1      45.976   4.776   9.815  0.00  0.00    +0.000 C 
BRANCH  23  24
ATOM     24  O   UNL     1      45.677   5.981   9.129  0.00  0.00    +0.000 OA
ATOM     25  H   UNL     1      46.491   6.305   8.709  0.00  0.00    +0.000 HD
ENDBRANCH  23  24
ENDBRANCH  21  23
BRANCH  21  26
ATOM     26  C   UNL     1      44.461   2.983   8.742  0.00  0.00    +0.000 C 
BRANCH  26  27
ATOM     27  C   UNL     1      45.635   2.632   7.861  0.00  0.00    +0.000 A 
ATOM     28  C   UNL     1      45.975   3.439   6.765  0.00  0.00    +0.000 A 
ATOM     29  C   UNL     1      47.002   3.065   5.900  0.00  0.00    +0.000 A 
ATOM     30  C   UNL     1      47.724   1.899   6.139  0.00  0.00    +0.000 A 
ATOM     31  C   UNL     1      47.425   1.113   7.251  0.00  0.00    +0.000 A 
ATOM     32  C   UNL     1      46.387   1.477   8.108  0.00  0.00    +0.000 A 
ENDBRANCH  26  27
ENDBRANCH  21  26
ENDBRANCH  17  18
ENDBRANCH   1  17
TORSDOF 8
ENDMDL
MODEL 4
REMARK VINA RESULT:    -8.299      1.352      1.684
REMARK INTER + INTRA:         -12.777
REMARK INTER:                 -12.118
REMARK INTRA:                  -0.659
REMARK UNBOUND:                -0.839
REMARK  Name = 
REMARK  8 active torsions:
REMARK  status: ('A' for Active; 'I' for Inactive)
REMARK    1  A    between atoms: C_2  and  C_20
REMARK    2  A    between atoms: N_3  and  C_4
REMARK    3  A    between atoms: C_4  and  C_5
REMARK    4  A    between atoms: C_5  and  N_6
REMARK    5  A    between atoms: C_9  and  C_10
REMARK    6  A    between atoms: C_9  and  C_12
REMARK    7  A    between atoms: C_10  and  O_11
REMARK    8  A    between atoms: C_12  and  C_13
REMARK                            x       y       z     vdW  Elec       q    Type
REMARK                         _______ _______ _______ _____ _____    ______ ____
ROOT
ATOM      1  C   UNL     1      47.244   4.978  13.998  0.00  0.00    +0.000 C 
ENDROOT
BRANCH   1   4
ATOM      2  O   UNL     1      47.157   3.231  16.199  0.00  0.00    +0.000 OA
ATOM      3  C   UNL     1      47.480   4.398  16.386  0.00  0.00    +0.000 C 
ATOM      4  N   UNL     1      47.486   5.329  15.377  0.00  0.00    +0.000 N 
ATOM      5  H   UNL     1      47.844   6.262  15.550  0.00  0.00    +0.000 HD
BRANCH   3   6
ATOM      6  C   UNL     1      47.841   4.899  17.715  0.00  0.00    +0.000 A 
ATOM      7  C   UNL     1      46.903   5.577  18.483  0.00  0.00    +0.000 A 
ATOM      8  S   UNL     1      47.503   6.082  19.998  0.00  0.00    +0.000 S 
ATOM      9  C   UNL     1      49.020   5.368  19.700  0.00  0.00    +0.000 A 
ATOM     10  N   UNL     1      50.009   5.402  20.633  0.00  0.00    +0.000 NA
ATOM     11  C   UNL     1      51.088   4.782  20.291  0.00  0.00    +0.000 A 
ATOM     12  N   UNL     1      51.277   4.143  19.095  0.00  0.00    +0.000 N 
ATOM     13  C   UNL     1      50.339   4.146  18.094  0.00  0.00    +0.000 A 
ATOM     14  O   UNL     1      50.590   3.675  16.992  0.00  0.00    +0.000 OA
ATOM     15  C   UNL     1      49.079   4.784  18.448  0.00  0.00    +0.000 A 
ATOM     16  H   UNL     1      52.161   3.707  18.873  0.00  0.00    +0.000 HD
ENDBRANCH   3   6
ENDBRANCH   1   4
BRANCH   1  17
ATOM     17  C   UNL     1      46.022   5.716  13.434  0.00  0.00    +0.000 C 
BRANCH  17  18
ATOM     18  N   UNL     1      45.923   5.679  11.961  0.00  0.00    +0.000 NA
ATOM     19  C   UNL     1      44.854   6.583  11.506  0.00  0.00    +0.000 C 
ATOM     20  C   UNL     1      43.593   5.746  11.620  0.00  0.00    +0.000 C 
ATOM     21  C   UNL     1      44.035   4.381  11.069  0.00  0.00    +0.000 C 
ATOM     22  C   UNL     1      45.537   4.338  11.462  0.00  0.00    +0.000 C 
BRANCH  21  23
ATOM     23  C   UNL     1      43.307   3.209  11.759  0.00  0.00    +0.000 C 
BRANCH  23  24
ATOM     24  O   UNL     1      44.166   2.342  12.481  0.00  0.00    +0.000 OA
ATOM     25  H   UNL     1      44.861   2.028  11.880  0.00  0.00    +0.000 HD
ENDBRANCH  23  24
ENDBRANCH  21  23
BRANCH  21  26
ATOM     26  C   UNL     1      43.946   4.303   9.511  0.00  0.00    +0.000 C 
BRANCH  26  27
ATOM     27  C   UNL     1      45.015   3.506   8.804  0.00  0.00    +0.000 A 
ATOM     28  C   UNL     1      45.922   4.134   7.937  0.00  0.00    +0.000 A 
ATOM     29  C   UNL     1      46.850   3.384   7.217  0.00  0.00    +0.000 A 
ATOM     30  C   UNL     1      46.906   2.002   7.379  0.00  0.00    +0.000 A 
ATOM     31  C   UNL     1      46.040   1.373   8.273  0.00  0.00    +0.000 A 
ATOM     32  C   UNL     1      45.100   2.120   8.982  0.00  0.00    +0.000 A 
ENDBRANCH  26  27
ENDBRANCH  21  26
ENDBRANCH  17  18
ENDBRANCH   1  17
TORSDOF 8
ENDMDL
MODEL 5
REMARK VINA RESULT:    -7.797      2.520      2.816
REMARK INTER + INTRA:         -12.054
REMARK INTER:                 -11.293
REMARK INTRA:                  -0.762
REMARK UNBOUND:                -0.839
REMARK  Name = 
REMARK  8 active torsions:
REMARK  status: ('A' for Active; 'I' for Inactive)
REMARK    1  A    between atoms: C_2  and  C_20
REMARK    2  A    between atoms: N_3  and  C_4
REMARK    3  A    between atoms: C_4  and  C_5
REMARK    4  A    between atoms: C_5  and  N_6
REMARK    5  A    between atoms: C_9  and  C_10
REMARK    6  A    between atoms: C_9  and  C_12
REMARK    7  A    between atoms: C_10  and  O_11
REMARK    8  A    between atoms: C_12  and  C_13
REMARK                            x       y       z     vdW  Elec       q    Type
REMARK                         _______ _______ _______ _____ _____    ______ ____
ROOT
ATOM      1  C   UNL     1      47.083   6.017  13.430  0.00  0.00    +0.000 C 
ENDROOT
BRANCH   1   4
ATOM      2  O   UNL     1      48.235   4.534  15.523  0.00  0.00    +0.000 OA
ATOM      3  C   UNL     1      48.185   5.755  15.625  0.00  0.00    +0.000 C 
ATOM      4  N   UNL     1      47.583   6.546  14.678  0.00  0.00    +0.000 N 
ATOM      5  H   UNL     1      47.638   7.555  14.751  0.00  0.00    +0.000 HD
BRANCH   3   6
ATOM      6  C   UNL     1      48.725   6.458  16.791  0.00  0.00    +0.000 A 
ATOM      7  C   UNL     1      49.766   7.366  16.636  0.00  0.00    +0.000 A 
ATOM      8  S   UNL     1      50.262   8.086  18.100  0.00  0.00    +0.000 S 
ATOM      9  C   UNL     1      49.070   7.249  18.982  0.00  0.00    +0.000 A 
ATOM     10  N   UNL     1      48.919   7.443  20.320  0.00  0.00    +0.000 NA
ATOM     11  C   UNL     1      47.948   6.779  20.850  0.00  0.00    +0.000 A 
ATOM     12  N   UNL     1      47.120   5.925  20.170  0.00  0.00    +0.000 N 
ATOM     13  C   UNL     1      47.281   5.640  18.838  0.00  0.00    +0.000 A 
ATOM     14  O   UNL     1      46.605   4.777  18.291  0.00  0.00    +0.000 OA
ATOM     15  C   UNL     1      48.328   6.405  18.177  0.00  0.00    +0.000 A 
ATOM     16  H   UNL     1      46.401   5.406  20.651  0.00  0.00    +0.000 HD
ENDBRANCH   3   6
ENDBRANCH   1   4
BRANCH   1  17
ATOM     17  C   UNL     1      45.938   6.874  12.873  0.00  0.00    +0.000 C 
BRANCH  17  18
ATOM     18  N   UNL     1      45.534   6.517  11.498  0.00  0.00    +0.000 NA
ATOM     19  C   UNL     1      44.104   6.812  11.301  0.00  0.00    +0.000 C 
ATOM     20  C   UNL     1      43.399   5.579  11.837  0.00  0.00    +0.000 C 
ATOM     21  C   UNL     1      44.255   4.427  11.289  0.00  0.00    +0.000 C 
ATOM     22  C   UNL     1      45.671   5.065  11.236  0.00  0.00    +0.000 C 
BRANCH  21  23
ATOM     23  C   UNL     1      44.291   3.219  12.248  0.00  0.00    +0.000 C 
BRANCH  23  24
ATOM     24  O   UNL     1      45.594   2.863  12.679  0.00  0.00    +0.000 OA
ATOM     25  H   UNL     1      46.236   3.431  12.221  0.00  0.00    +0.000 HD
ENDBRANCH  23  24
ENDBRANCH  21  23
BRANCH  21  26
ATOM     26  C   UNL     1      43.859   4.021   9.833  0.00  0.00    +0.000 C 
BRANCH  26  27
ATOM     27  C   UNL     1      44.941   3.415   8.974  0.00  0.00    +0.000 A 
ATOM     28  C   UNL     1      45.671   4.206   8.075  0.00  0.00    +0.000 A 
ATOM     29  C   UNL     1      46.606   3.628   7.219  0.00  0.00    +0.000 A 
ATOM     30  C   UNL     1      46.848   2.258   7.273  0.00  0.00    +0.000 A 
ATOM     31  C   UNL     1      46.161   1.469   8.194  0.00  0.00    +0.000 A 
ATOM     32  C   UNL     1      45.213   2.043   9.040  0.00  0.00    +0.000 A 
ENDBRANCH  26  27
ENDBRANCH  21  26
ENDBRANCH  17  18
ENDBRANCH   1  17
TORSDOF 8
ENDMDL
MODEL 6
REMARK VINA RESULT:    -7.720      2.122      2.365
REMARK INTER + INTRA:         -11.944
REMARK INTER:                 -10.870
REMARK INTRA:                  -1.073
REMARK UNBOUND:                -0.839
REMARK  Name = 
REMARK  8 active torsions:
REMARK  status: ('A' for Active; 'I' for Inactive)
REMARK    1  A    between atoms: C_2  and  C_20
REMARK    2  A    between atoms: N_3  and  C_4
REMARK    3  A    between atoms: C_4  and  C_5
REMARK    4  A    between atoms: C_5  and  N_6
REMARK    5  A    between atoms: C_9  and  C_10
REMARK    6  A    between atoms: C_9  and  C_12
REMARK    7  A    between atoms: C_10  and  O_11
REMARK    8  A    between atoms: C_12  and  C_13
REMARK                            x       y       z     vdW  Elec       q    Type
REMARK                         _______ _______ _______ _____ _____    ______ ____
ROOT
ATOM      1  C   UNL     1      47.217   6.116  13.211  0.00  0.00    +0.000 C 
ENDROOT
BRANCH   1   4
ATOM      2  O   UNL     1      47.522   3.900  14.915  0.00  0.00    +0.000 OA
ATOM      3  C   UNL     1      47.705   5.023  15.371  0.00  0.00    +0.000 C 
ATOM      4  N   UNL     1      47.515   6.159  14.623  0.00  0.00    +0.000 N 
ATOM      5  H   UNL     1      47.761   7.065  15.006  0.00  0.00    +0.000 HD
BRANCH   3   6
ATOM      6  C   UNL     1      48.098   5.239  16.766  0.00  0.00    +0.000 A 
ATOM      7  C   UNL     1      47.301   4.756  17.797  0.00  0.00    +0.000 A 
ATOM      8  S   UNL     1      47.918   5.101  19.350  0.00  0.00    +0.000 S 
ATOM      9  C   UNL     1      49.294   5.861  18.697  0.00  0.00    +0.000 A 
ATOM     10  N   UNL     1      50.271   6.360  19.502  0.00  0.00    +0.000 NA
ATOM     11  C   UNL     1      51.276   6.867  18.872  0.00  0.00    +0.000 A 
ATOM     12  N   UNL     1      51.391   6.936  17.509  0.00  0.00    +0.000 N 
ATOM     13  C   UNL     1      50.401   6.516  16.658  0.00  0.00    +0.000 A 
ATOM     14  O   UNL     1      50.481   6.710  15.451  0.00  0.00    +0.000 OA
ATOM     15  C   UNL     1      49.266   5.884  17.315  0.00  0.00    +0.000 A 
ATOM     16  H   UNL     1      52.189   7.380  17.077  0.00  0.00    +0.000 HD
ENDBRANCH   3   6
ENDBRANCH   1   4
BRANCH   1  17
ATOM     17  C   UNL     1      45.850   6.742  12.904  0.00  0.00    +0.000 C 
BRANCH  17  18
ATOM     18  N   UNL     1      45.375   6.504  11.526  0.00  0.00    +0.000 NA
ATOM     19  C   UNL     1      43.906   6.389  11.513  0.00  0.00    +0.000 C 
ATOM     20  C   UNL     1      43.650   4.934  11.862  0.00  0.00    +0.000 C 
ATOM     21  C   UNL     1      44.707   4.190  11.032  0.00  0.00    +0.000 C 
ATOM     22  C   UNL     1      45.870   5.219  10.980  0.00  0.00    +0.000 C 
BRANCH  21  23
ATOM     23  C   UNL     1      45.207   2.911  11.735  0.00  0.00    +0.000 C 
BRANCH  23  24
ATOM     24  O   UNL     1      45.595   3.109  13.085  0.00  0.00    +0.000 OA
ATOM     25  H   UNL     1      44.884   3.587  13.542  0.00  0.00    +0.000 HD
ENDBRANCH  23  24
ENDBRANCH  21  23
BRANCH  21  26
ATOM     26  C   UNL     1      44.242   3.920   9.565  0.00  0.00    +0.000 C 
BRANCH  26  27
ATOM     27  C   UNL     1      45.232   3.250   8.645  0.00  0.00    +0.000 A 
ATOM     28  C   UNL     1      45.864   3.972   7.623  0.00  0.00    +0.000 A 
ATOM     29  C   UNL     1      46.709   3.331   6.719  0.00  0.00    +0.000 A 
ATOM     30  C   UNL     1      46.960   1.967   6.847  0.00  0.00    +0.000 A 
ATOM     31  C   UNL     1      46.373   1.248   7.887  0.00  0.00    +0.000 A 
ATOM     32  C   UNL     1      45.515   1.885   8.782  0.00  0.00    +0.000 A 
ENDBRANCH  26  27
ENDBRANCH  21  26
ENDBRANCH  17  18
ENDBRANCH   1  17
TORSDOF 8
ENDMDL
MODEL 7
REMARK VINA RESULT:    -7.018      2.742      3.709
REMARK INTER + INTRA:         -10.934
REMARK INTER:                 -10.375
REMARK INTRA:                  -0.560
REMARK UNBOUND:                -0.839
REMARK  Name = 
REMARK  8 active torsions:
REMARK  status: ('A' for Active; 'I' for Inactive)
REMARK    1  A    between atoms: C_2  and  C_20
REMARK    2  A    between atoms: N_3  and  C_4
REMARK    3  A    between atoms: C_4  and  C_5
REMARK    4  A    between atoms: C_5  and  N_6
REMARK    5  A    between atoms: C_9  and  C_10
REMARK    6  A    between atoms: C_9  and  C_12
REMARK    7  A    between atoms: C_10  and  O_11
REMARK    8  A    between atoms: C_12  and  C_13
REMARK                            x       y       z     vdW  Elec       q    Type
REMARK                         _______ _______ _______ _____ _____    ______ ____
ROOT
ATOM      1  C   UNL     1      48.872   6.766  15.972  0.00  0.00    +0.000 C 
ENDROOT
BRANCH   1   4
ATOM      2  O   UNL     1      48.620   4.402  17.474  0.00  0.00    +0.000 OA
ATOM      3  C   UNL     1      49.731   4.902  17.345  0.00  0.00    +0.000 C 
ATOM      4  N   UNL     1      49.930   6.088  16.682  0.00  0.00    +0.000 N 
ATOM      5  H   UNL     1      50.872   6.425  16.518  0.00  0.00    +0.000 HD
BRANCH   3   6
ATOM      6  C   UNL     1      50.928   4.292  17.931  0.00  0.00    +0.000 A 
ATOM      7  C   UNL     1      51.722   5.019  18.809  0.00  0.00    +0.000 A 
ATOM      8  S   UNL     1      53.068   4.146  19.388  0.00  0.00    +0.000 S 
ATOM      9  C   UNL     1      52.608   2.752  18.526  0.00  0.00    +0.000 A 
ATOM     10  N   UNL     1      53.327   1.601  18.614  0.00  0.00    +0.000 NA
ATOM     11  C   UNL     1      52.838   0.613  17.945  0.00  0.00    +0.000 A 
ATOM     12  N   UNL     1      51.703   0.670  17.181  0.00  0.00    +0.000 N 
ATOM     13  C   UNL     1      50.987   1.827  17.000  0.00  0.00    +0.000 A 
ATOM     14  O   UNL     1      50.052   1.874  16.210  0.00  0.00    +0.000 OA
ATOM     15  C   UNL     1      51.464   2.961  17.778  0.00  0.00    +0.000 A 
ATOM     16  H   UNL     1      51.392  -0.131  16.650  0.00  0.00    +0.000 HD
ENDBRANCH   3   6
ENDBRANCH   1   4
BRANCH   1  17
ATOM     17  C   UNL     1      49.345   7.274  14.604  0.00  0.00    +0.000 C 
BRANCH  17  18
ATOM     18  N   UNL     1      48.902   6.442  13.467  0.00  0.00    +0.000 NA
ATOM     19  C   UNL     1      49.270   7.090  12.196  0.00  0.00    +0.000 C 
ATOM     20  C   UNL     1      48.134   8.062  11.938  0.00  0.00    +0.000 C 
ATOM     21  C   UNL     1      46.888   7.240  12.304  0.00  0.00    +0.000 C 
ATOM     22  C   UNL     1      47.428   6.303  13.419  0.00  0.00    +0.000 C 
BRANCH  21  23
ATOM     23  C   UNL     1      45.764   8.116  12.894  0.00  0.00    +0.000 C 
BRANCH  23  24
ATOM     24  O   UNL     1      46.197   9.002  13.914  0.00  0.00    +0.000 OA
ATOM     25  H   UNL     1      47.167   8.970  13.957  0.00  0.00    +0.000 HD
ENDBRANCH  23  24
ENDBRANCH  21  23
BRANCH  21  26
ATOM     26  C   UNL     1      46.389   6.344  11.126  0.00  0.00    +0.000 C 
BRANCH  26  27
ATOM     27  C   UNL     1      45.304   5.344  11.439  0.00  0.00    +0.000 A 
ATOM     28  C   UNL     1      43.959   5.639  11.174  0.00  0.00    +0.000 A 
ATOM     29  C   UNL     1      42.951   4.751  11.546  0.00  0.00    +0.000 A 
ATOM     30  C   UNL     1      43.277   3.543  12.157  0.00  0.00    +0.000 A 
ATOM     31  C   UNL     1      44.614   3.219  12.383  0.00  0.00    +0.000 A 
ATOM     32  C   UNL     1      45.622   4.113  12.026  0.00  0.00    +0.000 A 
ENDBRANCH  26  27
ENDBRANCH  21  26
ENDBRANCH  17  18
ENDBRANCH   1  17
TORSDOF 8
ENDMDL
MODEL 8
REMARK VINA RESULT:    -6.818      3.300      9.170
REMARK INTER + INTRA:         -10.647
REMARK INTER:                  -9.906
REMARK INTRA:                  -0.741
REMARK UNBOUND:                -0.839
REMARK  Name = 
REMARK  8 active torsions:
REMARK  status: ('A' for Active; 'I' for Inactive)
REMARK    1  A    between atoms: C_2  and  C_20
REMARK    2  A    between atoms: N_3  and  C_4
REMARK    3  A    between atoms: C_4  and  C_5
REMARK    4  A    between atoms: C_5  and  N_6
REMARK    5  A    between atoms: C_9  and  C_10
REMARK    6  A    between atoms: C_9  and  C_12
REMARK    7  A    between atoms: C_10  and  O_11
REMARK    8  A    between atoms: C_12  and  C_13
REMARK                            x       y       z     vdW  Elec       q    Type
REMARK                         _______ _______ _______ _____ _____    ______ ____
ROOT
ATOM      1  C   UNL     1      47.302   3.627  16.629  0.00  0.00    +0.000 C 
ENDROOT
BRANCH   1   4
ATOM      2  O   UNL     1      47.167   3.194  13.855  0.00  0.00    +0.000 OA
ATOM      3  C   UNL     1      46.745   4.252  14.307  0.00  0.00    +0.000 C 
ATOM      4  N   UNL     1      46.831   4.568  15.640  0.00  0.00    +0.000 N 
ATOM      5  H   UNL     1      46.392   5.411  15.991  0.00  0.00    +0.000 HD
BRANCH   3   6
ATOM      6  C   UNL     1      46.155   5.282  13.447  0.00  0.00    +0.000 A 
ATOM      7  C   UNL     1      46.894   6.404  13.096  0.00  0.00    +0.000 A 
ATOM      8  S   UNL     1      46.044   7.490  12.092  0.00  0.00    +0.000 S 
ATOM      9  C   UNL     1      44.679   6.473  12.051  0.00  0.00    +0.000 A 
ATOM     10  N   UNL     1      43.580   6.800  11.319  0.00  0.00    +0.000 NA
ATOM     11  C   UNL     1      42.640   5.917  11.342  0.00  0.00    +0.000 A 
ATOM     12  N   UNL     1      42.688   4.741  12.043  0.00  0.00    +0.000 N 
ATOM     13  C   UNL     1      43.741   4.403  12.854  0.00  0.00    +0.000 A 
ATOM     14  O   UNL     1      43.696   3.406  13.565  0.00  0.00    +0.000 OA
ATOM     15  C   UNL     1      44.856   5.339  12.821  0.00  0.00    +0.000 A 
ATOM     16  H   UNL     1      41.902   4.108  12.050  0.00  0.00    +0.000 HD
ENDBRANCH   3   6
ENDBRANCH   1   4
BRANCH   1  17
ATOM     17  C   UNL     1      47.504   4.299  17.995  0.00  0.00    +0.000 C 
BRANCH  17  18
ATOM     18  N   UNL     1      48.627   3.743  18.778  0.00  0.00    +0.000 NA
ATOM     19  C   UNL     1      48.984   4.666  19.869  0.00  0.00    +0.000 C 
ATOM     20  C   UNL     1      49.923   5.663  19.213  0.00  0.00    +0.000 C 
ATOM     21  C   UNL     1      50.819   4.769  18.342  0.00  0.00    +0.000 C 
ATOM     22  C   UNL     1      49.859   3.607  17.966  0.00  0.00    +0.000 C 
BRANCH  21  23
ATOM     23  C   UNL     1      51.269   5.479  17.048  0.00  0.00    +0.000 C 
BRANCH  23  24
ATOM     24  O   UNL     1      50.199   5.885  16.211  0.00  0.00    +0.000 OA
ATOM     25  H   UNL     1      49.889   5.111  15.711  0.00  0.00    +0.000 HD
ENDBRANCH  23  24
ENDBRANCH  21  23
BRANCH  21  26
ATOM     26  C   UNL     1      52.018   4.161  19.136  0.00  0.00    +0.000 C 
BRANCH  26  27
ATOM     27  C   UNL     1      53.009   3.334  18.353  0.00  0.00    +0.000 A 
ATOM     28  C   UNL     1      52.749   1.987  18.064  0.00  0.00    +0.000 A 
ATOM     29  C   UNL     1      53.703   1.202  17.420  0.00  0.00    +0.000 A 
ATOM     30  C   UNL     1      54.915   1.763  17.026  0.00  0.00    +0.000 A 
ATOM     31  C   UNL     1      55.166   3.113  17.267  0.00  0.00    +0.000 A 
ATOM     32  C   UNL     1      54.219   3.895  17.926  0.00  0.00    +0.000 A 
ENDBRANCH  26  27
ENDBRANCH  21  26
ENDBRANCH  17  18
ENDBRANCH   1  17
TORSDOF 8
ENDMDL
MODEL 9
REMARK VINA RESULT:    -6.732      3.564      8.418
REMARK INTER + INTRA:         -10.522
REMARK INTER:                  -9.397
REMARK INTRA:                  -1.126
REMARK UNBOUND:                -0.839
REMARK  Name = 
REMARK  8 active torsions:
REMARK  status: ('A' for Active; 'I' for Inactive)
REMARK    1  A    between atoms: C_2  and  C_20
REMARK    2  A    between atoms: N_3  and  C_4
REMARK    3  A    between atoms: C_4  and  C_5
REMARK    4  A    between atoms: C_5  and  N_6
REMARK    5  A    between atoms: C_9  and  C_10
REMARK    6  A    between atoms: C_9  and  C_12
REMARK    7  A    between atoms: C_10  and  O_11
REMARK    8  A    between atoms: C_12  and  C_13
REMARK                            x       y       z     vdW  Elec       q    Type
REMARK                         _______ _______ _______ _____ _____    ______ ____
ROOT
ATOM      1  C   UNL     1      47.851   8.038  11.775  0.00  0.00    +0.000 C 
ENDROOT
BRANCH   1   4
ATOM      2  O   UNL     1      45.049   7.859  11.923  0.00  0.00    +0.000 OA
ATOM      3  C   UNL     1      45.699   6.828  11.798  0.00  0.00    +0.000 C 
ATOM      4  N   UNL     1      47.072   6.823  11.781  0.00  0.00    +0.000 N 
ATOM      5  H   UNL     1      47.573   5.963  11.587  0.00  0.00    +0.000 HD
BRANCH   3   6
ATOM      6  C   UNL     1      45.057   5.514  11.702  0.00  0.00    +0.000 A 
ATOM      7  C   UNL     1      44.360   4.997  12.786  0.00  0.00    +0.000 A 
ATOM      8  S   UNL     1      43.681   3.461  12.488  0.00  0.00    +0.000 S 
ATOM      9  C   UNL     1      44.253   3.457  10.884  0.00  0.00    +0.000 A 
ATOM     10  N   UNL     1      43.981   2.423  10.043  0.00  0.00    +0.000 NA
ATOM     11  C   UNL     1      44.436   2.573   8.846  0.00  0.00    +0.000 A 
ATOM     12  N   UNL     1      45.154   3.657   8.412  0.00  0.00    +0.000 N 
ATOM     13  C   UNL     1      45.518   4.687   9.241  0.00  0.00    +0.000 A 
ATOM     14  O   UNL     1      46.266   5.575   8.854  0.00  0.00    +0.000 OA
ATOM     15  C   UNL     1      44.982   4.595  10.592  0.00  0.00    +0.000 A 
ATOM     16  H   UNL     1      45.515   3.697   7.470  0.00  0.00    +0.000 HD
ENDBRANCH   3   6
ENDBRANCH   1   4
BRANCH   1  17
ATOM     17  C   UNL     1      48.848   8.075  12.942  0.00  0.00    +0.000 C 
BRANCH  17  18
ATOM     18  N   UNL     1      48.283   7.622  14.230  0.00  0.00    +0.000 NA
ATOM     19  C   UNL     1      48.202   8.755  15.169  0.00  0.00    +0.000 C 
ATOM     20  C   UNL     1      49.587   8.817  15.788  0.00  0.00    +0.000 C 
ATOM     21  C   UNL     1      49.914   7.338  16.048  0.00  0.00    +0.000 C 
ATOM     22  C   UNL     1      49.150   6.625  14.899  0.00  0.00    +0.000 C 
BRANCH  21  23
ATOM     23  C   UNL     1      51.420   7.040  15.904  0.00  0.00    +0.000 C 
BRANCH  23  24
ATOM     24  O   UNL     1      51.991   7.523  14.698  0.00  0.00    +0.000 OA
ATOM     25  H   UNL     1      51.974   6.806  14.042  0.00  0.00    +0.000 HD
ENDBRANCH  23  24
ENDBRANCH  21  23
BRANCH  21  26
ATOM     26  C   UNL     1      49.331   6.822  17.402  0.00  0.00    +0.000 C 
BRANCH  26  27
ATOM     27  C   UNL     1      48.890   5.379  17.452  0.00  0.00    +0.000 A 
ATOM     28  C   UNL     1      49.832   4.345  17.547  0.00  0.00    +0.000 A 
ATOM     29  C   UNL     1      49.429   3.012  17.501  0.00  0.00    +0.000 A 
ATOM     30  C   UNL     1      48.077   2.696  17.395  0.00  0.00    +0.000 A 
ATOM     31  C   UNL     1      47.128   3.716  17.346  0.00  0.00    +0.000 A 
ATOM     32  C   UNL     1      47.532   5.050  17.374  0.00  0.00    +0.000 A 
ENDBRANCH  26  27
ENDBRANCH  21  26
ENDBRANCH  17  18
ENDBRANCH   1  17
TORSDOF 8
ENDMDL
