MODEL 1
REMARK VINA RESULT:    -7.531      0.000      0.000
REMARK INTER + INTRA:         -10.138
REMARK INTER:                  -9.512
REMARK INTRA:                  -0.626
REMARK UNBOUND:                -0.626
REMARK  Name = 
REMARK  5 active torsions:
REMARK  status: ('A' for Active; 'I' for Inactive)
REMARK    1  A    between atoms: N_1  and  C_2
REMARK    2  A    between atoms: C_2  and  C_3
REMARK    3  A    between atoms: C_3  and  C_4
REMARK    4  A    between atoms: C_7  and  C_8
REMARK    5  A    between atoms: C_8  and  N_9
REMARK                            x       y       z     vdW  Elec       q    Type
REMARK                         _______ _______ _______ _____ _____    ______ ____
ROOT
ATOM      1  C   UNL     1      45.905   2.541   8.249  0.00  0.00    +0.000 A 
ATOM      2  C   UNL     1      44.977   1.944   9.114  0.00  0.00    +0.000 A 
ATOM      3  C   UNL     1      44.164   2.736   9.941  0.00  0.00    +0.000 A 
ATOM      4  C   UNL     1      44.280   4.134   9.936  0.00  0.00    +0.000 A 
ATOM      5  C   UNL     1      45.214   4.720   9.090  0.00  0.00    +0.000 A 
ATOM      6  C   UNL     1      46.014   3.935   8.255  0.00  0.00    +0.000 A 
ENDROOT
BRANCH   1   7
ATOM      7  C   UNL     1      46.810   1.701   7.376  0.00  0.00    +0.000 C 
BRANCH   7   8
ATOM      8  C   UNL     1      47.971   2.474   6.731  0.00  0.00    +0.000 C 
BRANCH   8   9
ATOM      9  N   UNL     1      48.397   1.831   5.486  0.00  0.00    +0.000 NA
ATOM     10  H   UNL     1      47.847   0.985   5.336  0.00  0.00    +0.000 HD
ATOM     11  H   UNL     1      49.366   1.529   5.569  0.00  0.00    +0.000 HD
ENDBRANCH   8   9
ENDBRANCH   7   8
ENDBRANCH   1   7
BRANCH   4  12
ATOM     12  C   UNL     1      43.396   4.990  10.826  0.00  0.00    +0.000 C 
BRANCH  12  13
ATOM     13  N   UNL     1      44.109   6.044  11.534  0.00  0.00    +0.000 N 
ATOM     14  C   UNL     1      44.106   7.363  11.147  0.00  0.00    +0.000 A 
ATOM     15  C   UNL     1      44.950   8.058  11.979  0.00  0.00    +0.000 A 
ATOM     16  C   UNL     1      45.730   7.090  12.657  0.00  0.00    +0.000 A 
ATOM     17  C   UNL     1      46.934   7.157  13.380  0.00  0.00    +0.000 A 
ATOM     18  C   UNL     1      47.450   5.986  13.928  0.00  0.00    +0.000 A 
ATOM     19  F   UNL     1      48.654   6.018  14.517  0.00  0.00    +0.000 F 
ATOM     20  C   UNL     1      46.757   4.787  13.862  0.00  0.00    +0.000 A 
ATOM     21  C   UNL     1      45.556   4.699  13.148  0.00  0.00    +0.000 A 
ATOM     22  C   UNL     1      45.100   5.851  12.481  0.00  0.00    +0.000 A 
ENDBRANCH  12  13
ENDBRANCH   4  12
TORSDOF 5
ENDMDL
MODEL 2
REMARK VINA RESULT:    -7.051      1.418      2.267
REMARK INTER + INTRA:          -9.532
REMARK INTER:                  -8.966
REMARK INTRA:                  -0.566
REMARK UNBOUND:                -0.626
REMARK  Name = 
REMARK  5 active torsions:
REMARK  status: ('A' for Active; 'I' for Inactive)
REMARK    1  A    between atoms: N_1  and  C_2
REMARK    2  A    between atoms: C_2  and  C_3
REMARK    3  A    between atoms: C_3  and  C_4
REMARK    4  A    between atoms: C_7  and  C_8
REMARK    5  A    between atoms: C_8  and  N_9
REMARK                            x       y       z     vdW  Elec       q    Type
REMARK                         _______ _______ _______ _____ _____    ______ ____
ROOT
ATOM      1  C   UNL     1      45.856   3.194   7.656  0.00  0.00    +0.000 A 
ATOM      2  C   UNL     1      45.152   2.549   8.683  0.00  0.00    +0.000 A 
ATOM      3  C   UNL     1      44.814   3.242   9.857  0.00  0.00    +0.000 A 
ATOM      4  C   UNL     1      45.193   4.582  10.035  0.00  0.00    +0.000 A 
ATOM      5  C   UNL     1      45.905   5.210   9.021  0.00  0.00    +0.000 A 
ATOM      6  C   UNL     1      46.230   4.528   7.845  0.00  0.00    +0.000 A 
ENDROOT
BRANCH   1   7
ATOM      7  C   UNL     1      46.256   2.453   6.400  0.00  0.00    +0.000 C 
BRANCH   7   8
ATOM      8  C   UNL     1      47.446   1.497   6.575  0.00  0.00    +0.000 C 
BRANCH   8   9
ATOM      9  N   UNL     1      48.557   1.885   5.704  0.00  0.00    +0.000 NA
ATOM     10  H   UNL     1      48.449   2.861   5.429  0.00  0.00    +0.000 HD
ATOM     11  H   UNL     1      48.525   1.342   4.843  0.00  0.00    +0.000 HD
ENDBRANCH   8   9
ENDBRANCH   7   8
ENDBRANCH   1   7
BRANCH   4  12
ATOM     12  C   UNL     1      44.820   5.332  11.301  0.00  0.00    +0.000 C 
BRANCH  12  13
ATOM     13  N   UNL     1      45.821   5.249  12.356  0.00  0.00    +0.000 N 
ATOM     14  C   UNL     1      45.663   4.505  13.502  0.00  0.00    +0.000 A 
ATOM     15  C   UNL     1      46.751   4.728  14.312  0.00  0.00    +0.000 A 
ATOM     16  C   UNL     1      47.402   5.876  13.801  0.00  0.00    +0.000 A 
ATOM     17  C   UNL     1      48.353   6.763  14.336  0.00  0.00    +0.000 A 
ATOM     18  C   UNL     1      48.793   7.825  13.551  0.00  0.00    +0.000 A 
ATOM     19  F   UNL     1      49.608   8.741  14.091  0.00  0.00    +0.000 F 
ATOM     20  C   UNL     1      48.393   7.965  12.231  0.00  0.00    +0.000 A 
ATOM     21  C   UNL     1      47.448   7.092  11.678  0.00  0.00    +0.000 A 
ATOM     22  C   UNL     1      46.902   6.098  12.511  0.00  0.00    +0.000 A 
ENDBRANCH  12  13
ENDBRANCH   4  12
TORSDOF 5
ENDMDL
MODEL 3
REMARK VINA RESULT:    -6.859      2.722      6.487
REMARK INTER + INTRA:          -9.289
REMARK INTER:                  -8.621
REMARK INTRA:                  -0.668
REMARK UNBOUND:                -0.626
REMARK  Name = 
REMARK  5 active torsions:
REMARK  status: ('A' for Active; 'I' for Inactive)
REMARK    1  A    between atoms: N_1  and  C_2
REMARK    2  A    between atoms: C_2  and  C_3
REMARK    3  A    between atoms: C_3  and  C_4
REMARK    4  A    between atoms: C_7  and  C_8
REMARK    5  A    between atoms: C_8  and  N_9
REMARK                            x       y       z     vdW  Elec       q    Type
REMARK                         _______ _______ _______ _____ _____    ______ ____
ROOT
ATOM      1  C   UNL     1      47.134   6.037  13.140  0.00  0.00    +0.000 A 
ATOM      2  C   UNL     1      46.340   4.905  13.375  0.00  0.00    +0.000 A 
ATOM      3  C   UNL     1      45.371   4.510  12.438  0.00  0.00    +0.000 A 
ATOM      4  C   UNL     1      45.163   5.251  11.264  0.00  0.00    +0.000 A 
ATOM      5  C   UNL     1      45.940   6.381  11.046  0.00  0.00    +0.000 A 
ATOM      6  C   UNL     1      46.916   6.769  11.969  0.00  0.00    +0.000 A 
ENDROOT
BRANCH   1   7
ATOM      7  C   UNL     1      48.159   6.494  14.154  0.00  0.00    +0.000 C 
BRANCH   7   8
ATOM      8  C   UNL     1      48.456   8.002  14.125  0.00  0.00    +0.000 C 
BRANCH   8   9
ATOM      9  N   UNL     1      47.486   8.739  14.938  0.00  0.00    +0.000 NA
ATOM     10  H   UNL     1      47.375   9.681  14.563  0.00  0.00    +0.000 HD
ATOM     11  H   UNL     1      47.845   8.850  15.884  0.00  0.00    +0.000 HD
ENDBRANCH   8   9
ENDBRANCH   7   8
ENDBRANCH   1   7
BRANCH   4  12
ATOM     12  C   UNL     1      44.120   4.818  10.248  0.00  0.00    +0.000 C 
BRANCH  12  13
ATOM     13  N   UNL     1      44.444   3.577   9.557  0.00  0.00    +0.000 N 
ATOM     14  C   UNL     1      44.077   2.332  10.010  0.00  0.00    +0.000 A 
ATOM     15  C   UNL     1      44.623   1.391   9.171  0.00  0.00    +0.000 A 
ATOM     16  C   UNL     1      45.608   2.061   8.406  0.00  0.00    +0.000 A 
ATOM     17  C   UNL     1      46.689   1.616   7.624  0.00  0.00    +0.000 A 
ATOM     18  C   UNL     1      47.491   2.562   6.992  0.00  0.00    +0.000 A 
ATOM     19  F   UNL     1      48.591   2.155   6.343  0.00  0.00    +0.000 F 
ATOM     20  C   UNL     1      47.188   3.914   7.034  0.00  0.00    +0.000 A 
ATOM     21  C   UNL     1      46.115   4.378   7.804  0.00  0.00    +0.000 A 
ATOM     22  C   UNL     1      45.383   3.436   8.552  0.00  0.00    +0.000 A 
ENDBRANCH  12  13
ENDBRANCH   4  12
TORSDOF 5
ENDMDL
MODEL 4
REMARK VINA RESULT:    -6.327      2.965      5.867
REMARK INTER + INTRA:          -8.618
REMARK INTER:                  -7.984
REMARK INTRA:                  -0.634
REMARK UNBOUND:                -0.626
REMARK  Name = 
REMARK  5 active torsions:
REMARK  status: ('A' for Active; 'I' for Inactive)
REMARK    1  A    between atoms: N_1  and  C_2
REMARK    2  A    between atoms: C_2  and  C_3
REMARK    3  A    between atoms: C_3  and  C_4
REMARK    4  A    between atoms: C_7  and  C_8
REMARK    5  A    between atoms: C_8  and  N_9
REMARK                            x       y       z     vdW  Elec       q    Type
REMARK                         _______ _______ _______ _____ _____    ______ ____
ROOT
ATOM      1  C   UNL     1      48.200   7.033  12.772  0.00  0.00    +0.000 A 
ATOM      2  C   UNL     1      47.691   5.833  13.288  0.00  0.00    +0.000 A 
ATOM      3  C   UNL     1      46.341   5.495  13.100  0.00  0.00    +0.000 A 
ATOM      4  C   UNL     1      45.472   6.360  12.417  0.00  0.00    +0.000 A 
ATOM      5  C   UNL     1      45.978   7.556  11.925  0.00  0.00    +0.000 A 
ATOM      6  C   UNL     1      47.325   7.888  12.096  0.00  0.00    +0.000 A 
ENDROOT
BRANCH   1   7
ATOM      7  C   UNL     1      49.644   7.426  12.994  0.00  0.00    +0.000 C 
BRANCH   7   8
ATOM      8  C   UNL     1      50.433   7.706  11.706  0.00  0.00    +0.000 C 
BRANCH   8   9
ATOM      9  N   UNL     1      51.832   8.018  12.009  0.00  0.00    +0.000 NA
ATOM     10  H   UNL     1      52.432   7.282  11.637  0.00  0.00    +0.000 HD
ATOM     11  H   UNL     1      51.973   8.016  13.018  0.00  0.00    +0.000 HD
ENDBRANCH   8   9
ENDBRANCH   7   8
ENDBRANCH   1   7
BRANCH   4  12
ATOM     12  C   UNL     1      44.014   5.990  12.208  0.00  0.00    +0.000 C 
BRANCH  12  13
ATOM     13  N   UNL     1      43.814   4.677  11.612  0.00  0.00    +0.000 N 
ATOM     14  C   UNL     1      43.351   3.584  12.307  0.00  0.00    +0.000 A 
ATOM     15  C   UNL     1      43.373   2.499  11.464  0.00  0.00    +0.000 A 
ATOM     16  C   UNL     1      44.177   2.866  10.359  0.00  0.00    +0.000 A 
ATOM     17  C   UNL     1      44.819   2.130   9.346  0.00  0.00    +0.000 A 
ATOM     18  C   UNL     1      45.558   2.817   8.387  0.00  0.00    +0.000 A 
ATOM     19  F   UNL     1      46.268   2.120   7.490  0.00  0.00    +0.000 F 
ATOM     20  C   UNL     1      45.589   4.203   8.351  0.00  0.00    +0.000 A 
ATOM     21  C   UNL     1      44.955   4.954   9.347  0.00  0.00    +0.000 A 
ATOM     22  C   UNL     1      44.320   4.260  10.393  0.00  0.00    +0.000 A 
ENDBRANCH  12  13
ENDBRANCH   4  12
TORSDOF 5
ENDMDL
MODEL 5
REMARK VINA RESULT:    -5.765      2.998      6.751
REMARK INTER + INTRA:          -7.907
REMARK INTER:                  -7.356
REMARK INTRA:                  -0.551
REMARK UNBOUND:                -0.626
REMARK  Name = 
REMARK  5 active torsions:
REMARK  status: ('A' for Active; 'I' for Inactive)
REMARK    1  A    between atoms: N_1  and  C_2
REMARK    2  A    between atoms: C_2  and  C_3
REMARK    3  A    between atoms: C_3  and  C_4
REMARK    4  A    between atoms: C_7  and  C_8
REMARK    5  A    between atoms: C_8  and  N_9
REMARK                            x       y       z     vdW  Elec       q    Type
REMARK                         _______ _______ _______ _____ _____    ______ ____
ROOT
ATOM      1  C   UNL     1      48.142   7.396  14.108  0.00  0.00    +0.000 A 
ATOM      2  C   UNL     1      48.035   6.235  13.328  0.00  0.00    +0.000 A 
ATOM      3  C   UNL     1      47.002   6.106  12.385  0.00  0.00    +0.000 A 
ATOM      4  C   UNL     1      46.048   7.121  12.220  0.00  0.00    +0.000 A 
ATOM      5  C   UNL     1      46.149   8.261  13.008  0.00  0.00    +0.000 A 
ATOM      6  C   UNL     1      47.184   8.400  13.937  0.00  0.00    +0.000 A 
ENDROOT
BRANCH   1   7
ATOM      7  C   UNL     1      49.228   7.537  15.151  0.00  0.00    +0.000 C 
BRANCH   7   8
ATOM      8  C   UNL     1      48.853   8.429  16.345  0.00  0.00    +0.000 C 
BRANCH   8   9
ATOM      9  N   UNL     1      49.985   9.267  16.745  0.00  0.00    +0.000 NA
ATOM     10  H   UNL     1      49.696   9.892  17.498  0.00  0.00    +0.000 HD
ATOM     11  H   UNL     1      50.261   9.866  15.969  0.00  0.00    +0.000 HD
ENDBRANCH   8   9
ENDBRANCH   7   8
ENDBRANCH   1   7
BRANCH   4  12
ATOM     12  C   UNL     1      44.937   6.984  11.194  0.00  0.00    +0.000 C 
BRANCH  12  13
ATOM     13  N   UNL     1      44.325   5.663  11.157  0.00  0.00    +0.000 N 
ATOM     14  C   UNL     1      43.632   5.111  12.210  0.00  0.00    +0.000 A 
ATOM     15  C   UNL     1      43.275   3.830  11.865  0.00  0.00    +0.000 A 
ATOM     16  C   UNL     1      44.053   3.489  10.732  0.00  0.00    +0.000 A 
ATOM     17  C   UNL     1      44.372   2.266  10.115  0.00  0.00    +0.000 A 
ATOM     18  C   UNL     1      45.190   2.279   8.989  0.00  0.00    +0.000 A 
ATOM     19  F   UNL     1      45.596   1.115   8.464  0.00  0.00    +0.000 F 
ATOM     20  C   UNL     1      45.609   3.468   8.411  0.00  0.00    +0.000 A 
ATOM     21  C   UNL     1      45.300   4.696   9.008  0.00  0.00    +0.000 A 
ATOM     22  C   UNL     1      44.586   4.679  10.220  0.00  0.00    +0.000 A 
ENDBRANCH  12  13
ENDBRANCH   4  12
TORSDOF 5
ENDMDL
MODEL 6
REMARK VINA RESULT:    -5.250      5.203      8.084
REMARK INTER + INTRA:          -7.257
REMARK INTER:                  -6.718
REMARK INTRA:                  -0.539
REMARK UNBOUND:                -0.626
REMARK  Name = 
REMARK  5 active torsions:
REMARK  status: ('A' for Active; 'I' for Inactive)
REMARK    1  A    between atoms: N_1  and  C_2
REMARK    2  A    between atoms: C_2  and  C_3
REMARK    3  A    between atoms: C_3  and  C_4
REMARK    4  A    between atoms: C_7  and  C_8
REMARK    5  A    between atoms: C_8  and  N_9
REMARK                            x       y       z     vdW  Elec       q    Type
REMARK                         _______ _______ _______ _____ _____    ______ ____
ROOT
ATOM      1  C   UNL     1      51.674   2.926  17.801  0.00  0.00    +0.000 A 
ATOM      2  C   UNL     1      51.766   4.325  17.817  0.00  0.00    +0.000 A 
ATOM      3  C   UNL     1      50.651   5.114  17.489  0.00  0.00    +0.000 A 
ATOM      4  C   UNL     1      49.435   4.521  17.118  0.00  0.00    +0.000 A 
ATOM      5  C   UNL     1      49.355   3.134  17.086  0.00  0.00    +0.000 A 
ATOM      6  C   UNL     1      50.458   2.346  17.426  0.00  0.00    +0.000 A 
ENDROOT
BRANCH   1   7
ATOM      7  C   UNL     1      52.874   2.061  18.120  0.00  0.00    +0.000 C 
BRANCH   7   8
ATOM      8  C   UNL     1      52.874   0.691  17.424  0.00  0.00    +0.000 C 
BRANCH   8   9
ATOM      9  N   UNL     1      52.709  -0.388  18.401  0.00  0.00    +0.000 NA
ATOM     10  H   UNL     1      51.714  -0.567  18.544  0.00  0.00    +0.000 HD
ATOM     11  H   UNL     1      53.077  -0.094  19.304  0.00  0.00    +0.000 HD
ENDBRANCH   8   9
ENDBRANCH   7   8
ENDBRANCH   1   7
BRANCH   4  12
ATOM     12  C   UNL     1      48.229   5.376  16.771  0.00  0.00    +0.000 C 
BRANCH  12  13
ATOM     13  N   UNL     1      48.261   5.929  15.424  0.00  0.00    +0.000 N 
ATOM     14  C   UNL     1      48.798   7.157  15.115  0.00  0.00    +0.000 A 
ATOM     15  C   UNL     1      48.578   7.399  13.781  0.00  0.00    +0.000 A 
ATOM     16  C   UNL     1      47.602   6.464  13.361  0.00  0.00    +0.000 A 
ATOM     17  C   UNL     1      46.756   6.392  12.239  0.00  0.00    +0.000 A 
ATOM     18  C   UNL     1      45.883   5.313  12.129  0.00  0.00    +0.000 A 
ATOM     19  F   UNL     1      44.992   5.295  11.128  0.00  0.00    +0.000 F 
ATOM     20  C   UNL     1      45.903   4.268  13.040  0.00  0.00    +0.000 A 
ATOM     21  C   UNL     1      46.739   4.319  14.162  0.00  0.00    +0.000 A 
ATOM     22  C   UNL     1      47.525   5.471  14.347  0.00  0.00    +0.000 A 
ENDBRANCH  12  13
ENDBRANCH   4  12
TORSDOF 5
ENDMDL
MODEL 7
REMARK VINA RESULT:    -5.206      3.331      5.477
REMARK INTER + INTRA:          -7.202
REMARK INTER:                  -6.636
REMARK INTRA:                  -0.566
REMARK UNBOUND:                -0.626
REMARK  Name = 
REMARK  5 active torsions:
REMARK  status: ('A' for Active; 'I' for Inactive)
REMARK    1  A    between atoms: N_1  and  C_2
REMARK    2  A    between atoms: C_2  and  C_3
REMARK    3  A    between atoms: C_3  and  C_4
REMARK    4  A    between atoms: C_7  and  C_8
REMARK    5  A    between atoms: C_8  and  N_9
REMARK                            x       y       z     vdW  Elec       q    Type
REMARK                         _______ _______ _______ _____ _____    ______ ____
ROOT
ATOM      1  C   UNL     1      45.115   5.139  11.787  0.00  0.00    +0.000 A 
ATOM      2  C   UNL     1      45.791   6.192  11.154  0.00  0.00    +0.000 A 
ATOM      3  C   UNL     1      46.963   6.722  11.717  0.00  0.00    +0.000 A 
ATOM      4  C   UNL     1      47.466   6.228  12.930  0.00  0.00    +0.000 A 
ATOM      5  C   UNL     1      46.781   5.197  13.561  0.00  0.00    +0.000 A 
ATOM      6  C   UNL     1      45.623   4.656  12.996  0.00  0.00    +0.000 A 
ENDROOT
BRANCH   1   7
ATOM      7  C   UNL     1      43.833   4.578  11.211  0.00  0.00    +0.000 C 
BRANCH   7   8
ATOM      8  C   UNL     1      43.912   3.099  10.801  0.00  0.00    +0.000 C 
BRANCH   8   9
ATOM      9  N   UNL     1      43.052   2.276  11.653  0.00  0.00    +0.000 NA
ATOM     10  H   UNL     1      42.995   2.693  12.582  0.00  0.00    +0.000 HD
ATOM     11  H   UNL     1      43.471   1.356  11.780  0.00  0.00    +0.000 HD
ENDBRANCH   8   9
ENDBRANCH   7   8
ENDBRANCH   1   7
BRANCH   4  12
ATOM     12  C   UNL     1      48.738   6.798  13.533  0.00  0.00    +0.000 C 
BRANCH  12  13
ATOM     13  N   UNL     1      48.529   7.529  14.775  0.00  0.00    +0.000 N 
ATOM     14  C   UNL     1      48.350   8.891  14.840  0.00  0.00    +0.000 A 
ATOM     15  C   UNL     1      48.276   9.252  16.163  0.00  0.00    +0.000 A 
ATOM     16  C   UNL     1      48.756   8.148  16.908  0.00  0.00    +0.000 A 
ATOM     17  C   UNL     1      49.208   8.001  18.231  0.00  0.00    +0.000 A 
ATOM     18  C   UNL     1      49.630   6.744  18.658  0.00  0.00    +0.000 A 
ATOM     19  F   UNL     1      50.172   6.618  19.877  0.00  0.00    +0.000 F 
ATOM     20  C   UNL     1      49.519   5.627  17.843  0.00  0.00    +0.000 A 
ATOM     21  C   UNL     1      49.070   5.752  16.523  0.00  0.00    +0.000 A 
ATOM     22  C   UNL     1      48.770   7.041  16.048  0.00  0.00    +0.000 A 
ENDBRANCH  12  13
ENDBRANCH   4  12
TORSDOF 5
ENDMDL
MODEL 8
REMARK VINA RESULT:    -5.143      3.473      6.954
REMARK INTER + INTRA:          -7.123
REMARK INTER:                  -7.329
REMARK INTRA:                   0.207
REMARK UNBOUND:                -0.626
REMARK  Name = 
REMARK  5 active torsions:
REMARK  status: ('A' for Active; 'I' for Inactive)
REMARK    1  A    between atoms: N_1  and  C_2
REMARK    2  A    between atoms: C_2  and  C_3
REMARK    3  A    between atoms: C_3  and  C_4
REMARK    4  A    between atoms: C_7  and  C_8
REMARK    5  A    between atoms: C_8  and  N_9
REMARK                            x       y       z     vdW  Elec       q    Type
REMARK                         _______ _______ _______ _____ _____    ______ ____
ROOT
ATOM      1  C   UNL     1      48.254   4.753  16.650  0.00  0.00    +0.000 A 
ATOM      2  C   UNL     1      48.692   6.019  16.234  0.00  0.00    +0.000 A 
ATOM      3  C   UNL     1      48.280   6.541  14.997  0.00  0.00    +0.000 A 
ATOM      4  C   UNL     1      47.445   5.801  14.146  0.00  0.00    +0.000 A 
ATOM      5  C   UNL     1      47.030   4.540  14.556  0.00  0.00    +0.000 A 
ATOM      6  C   UNL     1      47.426   4.023  15.793  0.00  0.00    +0.000 A 
ENDROOT
BRANCH   1   7
ATOM      7  C   UNL     1      48.715   4.162  17.964  0.00  0.00    +0.000 C 
BRANCH   7   8
ATOM      8  C   UNL     1      50.176   3.687  17.972  0.00  0.00    +0.000 C 
BRANCH   8   9
ATOM      9  N   UNL     1      50.389   2.644  16.966  0.00  0.00    +0.000 NA
ATOM     10  H   UNL     1      50.931   3.026  16.190  0.00  0.00    +0.000 HD
ATOM     11  H   UNL     1      49.494   2.357  16.573  0.00  0.00    +0.000 HD
ENDBRANCH   8   9
ENDBRANCH   7   8
ENDBRANCH   1   7
BRANCH   4  12
ATOM     12  C   UNL     1      46.995   6.370  12.812  0.00  0.00    +0.000 C 
BRANCH  12  13
ATOM     13  N   UNL     1      45.712   5.857  12.351  0.00  0.00    +0.000 N 
ATOM     14  C   UNL     1      44.710   5.435  13.194  0.00  0.00    +0.000 A 
ATOM     15  C   UNL     1      43.687   4.932  12.427  0.00  0.00    +0.000 A 
ATOM     16  C   UNL     1      44.219   4.735  11.130  0.00  0.00    +0.000 A 
ATOM     17  C   UNL     1      43.793   3.989  10.016  0.00  0.00    +0.000 A 
ATOM     18  C   UNL     1      44.572   4.005   8.863  0.00  0.00    +0.000 A 
ATOM     19  F   UNL     1      44.239   3.207   7.840  0.00  0.00    +0.000 F 
ATOM     20  C   UNL     1      45.694   4.813   8.757  0.00  0.00    +0.000 A 
ATOM     21  C   UNL     1      46.134   5.565   9.853  0.00  0.00    +0.000 A 
ATOM     22  C   UNL     1      45.424   5.447  11.062  0.00  0.00    +0.000 A 
ENDBRANCH  12  13
ENDBRANCH   4  12
TORSDOF 5
ENDMDL
MODEL 9
REMARK VINA RESULT:    -5.077      3.565      6.314
REMARK INTER + INTRA:          -7.039
REMARK INTER:                  -6.442
REMARK INTRA:                  -0.597
REMARK UNBOUND:                -0.626
REMARK  Name = 
REMARK  5 active torsions:
REMARK  status: ('A' for Active; 'I' for Inactive)
REMARK    1  A    between atoms: N_1  and  C_2
REMARK    2  A    between atoms: C_2  and  C_3
REMARK    3  A    between atoms: C_3  and  C_4
REMARK    4  A    between atoms: C_7  and  C_8
REMARK    5  A    between atoms: C_8  and  N_9
REMARK                            x       y       z     vdW  Elec       q    Type
REMARK                         _______ _______ _______ _____ _____    ______ ____
ROOT
ATOM      1  C   UNL     1      50.081   8.400  12.672  0.00  0.00    +0.000 A 
ATOM      2  C   UNL     1      49.337   8.709  13.820  0.00  0.00    +0.000 A 
ATOM      3  C   UNL     1      47.985   8.340  13.910  0.00  0.00    +0.000 A 
ATOM      4  C   UNL     1      47.347   7.679  12.848  0.00  0.00    +0.000 A 
ATOM      5  C   UNL     1      48.085   7.393  11.707  0.00  0.00    +0.000 A 
ATOM      6  C   UNL     1      49.435   7.745  11.619  0.00  0.00    +0.000 A 
ENDROOT
BRANCH   1   7
ATOM      7  C   UNL     1      51.529   8.819  12.546  0.00  0.00    +0.000 C 
BRANCH   7   8
ATOM      8  C   UNL     1      52.145   8.573  11.160  0.00  0.00    +0.000 C 
BRANCH   8   9
ATOM      9  N   UNL     1      52.992   7.378  11.173  0.00  0.00    +0.000 NA
ATOM     10  H   UNL     1      52.796   6.831  12.012  0.00  0.00    +0.000 HD
ATOM     11  H   UNL     1      53.972   7.652  11.235  0.00  0.00    +0.000 HD
ENDBRANCH   8   9
ENDBRANCH   7   8
ENDBRANCH   1   7
BRANCH   4  12
ATOM     12  C   UNL     1      45.887   7.275  12.950  0.00  0.00    +0.000 C 
BRANCH  12  13
ATOM     13  N   UNL     1      45.668   5.835  12.924  0.00  0.00    +0.000 N 
ATOM     14  C   UNL     1      46.351   4.943  13.717  0.00  0.00    +0.000 A 
ATOM     15  C   UNL     1      45.962   3.672  13.368  0.00  0.00    +0.000 A 
ATOM     16  C   UNL     1      45.295   3.785  12.125  0.00  0.00    +0.000 A 
ATOM     17  C   UNL     1      44.947   2.854  11.129  0.00  0.00    +0.000 A 
ATOM     18  C   UNL     1      44.284   3.308   9.992  0.00  0.00    +0.000 A 
ATOM     19  F   UNL     1      44.053   2.452   8.987  0.00  0.00    +0.000 F 
ATOM     20  C   UNL     1      43.873   4.627   9.870  0.00  0.00    +0.000 A 
ATOM     21  C   UNL     1      44.207   5.568  10.850  0.00  0.00    +0.000 A 
ATOM     22  C   UNL     1      44.993   5.141  11.936  0.00  0.00    +0.000 A 
ENDBRANCH  12  13
ENDBRANCH   4  12
TORSDOF 5
ENDMDL
