MODEL 1
REMARK VINA RESULT:    -8.912      0.000      0.000
REMARK INTER + INTRA:         -12.746
REMARK INTER:                 -12.037
REMARK INTRA:                  -0.709
REMARK UNBOUND:                -0.709
REMARK  Name = 
REMARK  6 active torsions:
REMARK  status: ('A' for Active; 'I' for Inactive)
REMARK    1  A    between atoms: C_2  and  C_3
REMARK    2  A    between atoms: C_6  and  C_7
REMARK    3  A    between atoms: C_7  and  N_8
REMARK    4  A    between atoms: C_11  and  C_12
REMARK    5  A    between atoms: C_12  and  N_13
REMARK    6  A    between atoms: C_14  and  C_16
REMARK                            x       y       z     vdW  Elec       q    Type
REMARK                         _______ _______ _______ _____ _____    ______ ____
ROOT
ATOM      1  C   UNL     1      46.323   7.486  12.262  0.00  0.00    +0.000 C 
ENDROOT
BRANCH   1   5
ATOM      2  N   UNL     1      44.204   4.814  10.850  0.00  0.00    +0.000 N 
ATOM      3  C   UNL     1      43.244   5.752  11.131  0.00  0.00    +0.000 A 
ATOM      4  C   UNL     1      43.871   6.856  11.661  0.00  0.00    +0.000 A 
ATOM      5  C   UNL     1      45.263   6.571  11.748  0.00  0.00    +0.000 A 
ATOM      6  C   UNL     1      45.429   5.291  11.244  0.00  0.00    +0.000 A 
BRANCH   2   7
ATOM      7  C   UNL     1      43.947   3.485  10.306  0.00  0.00    +0.000 C 
BRANCH   7  11
ATOM      8  C   UNL     1      46.758   2.428   7.189  0.00  0.00    +0.000 A 
ATOM      9  C   UNL     1      46.353   3.754   7.349  0.00  0.00    +0.000 A 
ATOM     10  C   UNL     1      45.440   4.096   8.355  0.00  0.00    +0.000 A 
ATOM     11  C   UNL     1      44.928   3.115   9.217  0.00  0.00    +0.000 A 
ATOM     12  C   UNL     1      45.341   1.785   9.049  0.00  0.00    +0.000 A 
ATOM     13  C   UNL     1      46.251   1.442   8.043  0.00  0.00    +0.000 A 
BRANCH   8  15
ATOM     14  N   UNL     1      48.432   1.795   5.311  0.00  0.00    +0.000 NA
ATOM     15  C   UNL     1      47.687   2.079   6.151  0.00  0.00    +0.000 C 
ENDBRANCH   8  15
ENDBRANCH   7  11
ENDBRANCH   2   7
ENDBRANCH   1   5
BRANCH   1  16
ATOM     16  N   UNL     1      46.706   7.036  13.574  0.00  0.00    +0.000 N 
ATOM     17  C   UNL     1      47.940   6.489  13.806  0.00  0.00    +0.000 C 
ATOM     18  O   UNL     1      48.727   6.245  12.894  0.00  0.00    +0.000 OA
ATOM     19  H   UNL     1      46.141   7.359  14.353  0.00  0.00    +0.000 HD
BRANCH  17  20
ATOM     20  C   UNL     1      48.274   6.189  15.202  0.00  0.00    +0.000 A 
ATOM     21  C   UNL     1      48.820   7.176  16.011  0.00  0.00    +0.000 A 
ATOM     22  S   UNL     1      49.063   6.680  17.625  0.00  0.00    +0.000 S 
ATOM     23  C   UNL     1      48.398   5.146  17.309  0.00  0.00    +0.000 A 
ATOM     24  N   UNL     1      48.218   4.242  18.309  0.00  0.00    +0.000 NA
ATOM     25  C   UNL     1      47.685   3.128  17.931  0.00  0.00    +0.000 A 
ATOM     26  N   UNL     1      47.347   2.823  16.638  0.00  0.00    +0.000 N 
ATOM     27  C   UNL     1      47.562   3.685  15.589  0.00  0.00    +0.000 A 
ATOM     28  O   UNL     1      47.346   3.338  14.431  0.00  0.00    +0.000 OA
ATOM     29  C   UNL     1      48.082   4.983  15.972  0.00  0.00    +0.000 A 
ATOM     30  H   UNL     1      46.986   1.912  16.399  0.00  0.00    +0.000 HD
ENDBRANCH  17  20
ENDBRANCH   1  16
TORSDOF 6
ENDMDL
MODEL 2
REMARK VINA RESULT:    -8.363      1.983      3.295
REMARK INTER + INTRA:         -12.005
REMARK INTER:                 -10.919
REMARK INTRA:                  -1.086
REMARK UNBOUND:                -0.709
REMARK  Name = 
REMARK  6 active torsions:
REMARK  status: ('A' for Active; 'I' for Inactive)
REMARK    1  A    between atoms: C_2  and  C_3
REMARK    2  A    between atoms: C_6  and  C_7
REMARK    3  A    between atoms: C_7  and  N_8
REMARK    4  A    between atoms: C_11  and  C_12
REMARK    5  A    between atoms: C_12  and  N_13
REMARK    6  A    between atoms: C_14  and  C_16
REMARK                            x       y       z     vdW  Elec       q    Type
REMARK                         _______ _______ _______ _____ _____    ______ ____
ROOT
ATOM      1  C   UNL     1      46.422   4.400  14.595  0.00  0.00    +0.000 C 
ENDROOT
BRANCH   1   5
ATOM      2  N   UNL     1      44.572   4.520  11.403  0.00  0.00    +0.000 N 
ATOM      3  C   UNL     1      44.560   5.851  11.732  0.00  0.00    +0.000 A 
ATOM      4  C   UNL     1      45.243   6.002  12.918  0.00  0.00    +0.000 A 
ATOM      5  C   UNL     1      45.652   4.710  13.356  0.00  0.00    +0.000 A 
ATOM      6  C   UNL     1      45.210   3.816  12.394  0.00  0.00    +0.000 A 
BRANCH   2   7
ATOM      7  C   UNL     1      43.926   3.939  10.232  0.00  0.00    +0.000 C 
BRANCH   7  11
ATOM      8  C   UNL     1      46.799   2.517   7.323  0.00  0.00    +0.000 A 
ATOM      9  C   UNL     1      46.528   3.882   7.434  0.00  0.00    +0.000 A 
ATOM     10  C   UNL     1      45.595   4.342   8.372  0.00  0.00    +0.000 A 
ATOM     11  C   UNL     1      44.928   3.441   9.216  0.00  0.00    +0.000 A 
ATOM     12  C   UNL     1      45.207   2.071   9.097  0.00  0.00    +0.000 A 
ATOM     13  C   UNL     1      46.137   1.610   8.159  0.00  0.00    +0.000 A 
BRANCH   8  15
ATOM     14  N   UNL     1      48.513   1.664   5.573  0.00  0.00    +0.000 NA
ATOM     15  C   UNL     1      47.748   2.048   6.354  0.00  0.00    +0.000 C 
ENDBRANCH   8  15
ENDBRANCH   7  11
ENDBRANCH   2   7
ENDBRANCH   1   5
BRANCH   1  16
ATOM     16  N   UNL     1      47.212   5.554  14.932  0.00  0.00    +0.000 N 
ATOM     17  C   UNL     1      48.275   5.461  15.792  0.00  0.00    +0.000 C 
ATOM     18  O   UNL     1      48.529   4.428  16.407  0.00  0.00    +0.000 OA
ATOM     19  H   UNL     1      47.115   6.368  14.333  0.00  0.00    +0.000 HD
BRANCH  17  20
ATOM     20  C   UNL     1      49.090   6.669  15.960  0.00  0.00    +0.000 A 
ATOM     21  C   UNL     1      49.312   7.183  17.230  0.00  0.00    +0.000 A 
ATOM     22  S   UNL     1      50.352   8.535  17.248  0.00  0.00    +0.000 S 
ATOM     23  C   UNL     1      50.581   8.447  15.564  0.00  0.00    +0.000 A 
ATOM     24  N   UNL     1      51.454   9.277  14.933  0.00  0.00    +0.000 NA
ATOM     25  C   UNL     1      51.544   9.086  13.658  0.00  0.00    +0.000 A 
ATOM     26  N   UNL     1      50.816   8.163  12.954  0.00  0.00    +0.000 N 
ATOM     27  C   UNL     1      49.883   7.342  13.543  0.00  0.00    +0.000 A 
ATOM     28  O   UNL     1      49.174   6.604  12.867  0.00  0.00    +0.000 OA
ATOM     29  C   UNL     1      49.804   7.460  14.986  0.00  0.00    +0.000 A 
ATOM     30  H   UNL     1      50.891   8.102  11.950  0.00  0.00    +0.000 HD
ENDBRANCH  17  20
ENDBRANCH   1  16
TORSDOF 6
ENDMDL
MODEL 3
REMARK VINA RESULT:    -8.287      2.012      3.210
REMARK INTER + INTRA:         -11.903
REMARK INTER:                 -11.157
REMARK INTRA:                  -0.746
REMARK UNBOUND:                -0.709
REMARK  Name = 
REMARK  6 active torsions:
REMARK  status: ('A' for Active; 'I' for Inactive)
REMARK    1  A    between atoms: C_2  and  C_3
REMARK    2  A    between atoms: C_6  and  C_7
REMARK    3  A    between atoms: C_7  and  N_8
REMARK    4  A    between atoms: C_11  and  C_12
REMARK    5  A    between atoms: C_12  and  N_13
REMARK    6  A    between atoms: C_14  and  C_16
REMARK                            x       y       z     vdW  Elec       q    Type
REMARK                         _______ _______ _______ _____ _____    ______ ____
ROOT
ATOM      1  C   UNL     1      47.043   3.592  14.597  0.00  0.00    +0.000 C 
ENDROOT
BRANCH   1   5
ATOM      2  N   UNL     1      44.939   4.363  11.663  0.00  0.00    +0.000 N 
ATOM      3  C   UNL     1      44.989   5.602  12.249  0.00  0.00    +0.000 A 
ATOM      4  C   UNL     1      45.771   5.506  13.378  0.00  0.00    +0.000 A 
ATOM      5  C   UNL     1      46.181   4.150  13.515  0.00  0.00    +0.000 A 
ATOM      6  C   UNL     1      45.638   3.470  12.436  0.00  0.00    +0.000 A 
BRANCH   2   7
ATOM      7  C   UNL     1      44.184   4.033  10.460  0.00  0.00    +0.000 C 
BRANCH   7  11
ATOM      8  C   UNL     1      46.735   2.616   7.263  0.00  0.00    +0.000 A 
ATOM      9  C   UNL     1      46.090   1.707   8.104  0.00  0.00    +0.000 A 
ATOM     10  C   UNL     1      45.269   2.164   9.141  0.00  0.00    +0.000 A 
ATOM     11  C   UNL     1      45.076   3.539   9.345  0.00  0.00    +0.000 A 
ATOM     12  C   UNL     1      45.728   4.446   8.495  0.00  0.00    +0.000 A 
ATOM     13  C   UNL     1      46.551   3.989   7.460  0.00  0.00    +0.000 A 
BRANCH   8  15
ATOM     14  N   UNL     1      48.274   1.760   5.358  0.00  0.00    +0.000 NA
ATOM     15  C   UNL     1      47.584   2.143   6.207  0.00  0.00    +0.000 C 
ENDBRANCH   8  15
ENDBRANCH   7  11
ENDBRANCH   2   7
ENDBRANCH   1   5
BRANCH   1  16
ATOM     16  N   UNL     1      47.277   4.631  15.564  0.00  0.00    +0.000 N 
ATOM     17  C   UNL     1      47.191   4.383  16.909  0.00  0.00    +0.000 C 
ATOM     18  O   UNL     1      46.795   3.307  17.350  0.00  0.00    +0.000 OA
ATOM     19  H   UNL     1      47.741   5.470  15.233  0.00  0.00    +0.000 HD
BRANCH  17  20
ATOM     20  C   UNL     1      47.579   5.478  17.804  0.00  0.00    +0.000 A 
ATOM     21  C   UNL     1      46.903   5.667  19.001  0.00  0.00    +0.000 A 
ATOM     22  S   UNL     1      47.542   6.927  19.956  0.00  0.00    +0.000 S 
ATOM     23  C   UNL     1      48.777   7.229  18.825  0.00  0.00    +0.000 A 
ATOM     24  N   UNL     1      49.750   8.144  19.080  0.00  0.00    +0.000 NA
ATOM     25  C   UNL     1      50.634   8.256  18.144  0.00  0.00    +0.000 A 
ATOM     26  N   UNL     1      50.614   7.560  16.964  0.00  0.00    +0.000 N 
ATOM     27  C   UNL     1      49.620   6.667  16.642  0.00  0.00    +0.000 A 
ATOM     28  O   UNL     1      49.575   6.143  15.533  0.00  0.00    +0.000 OA
ATOM     29  C   UNL     1      48.648   6.444  17.694  0.00  0.00    +0.000 A 
ATOM     30  H   UNL     1      51.304   7.735  16.249  0.00  0.00    +0.000 HD
ENDBRANCH  17  20
ENDBRANCH   1  16
TORSDOF 6
ENDMDL
MODEL 4
REMARK VINA RESULT:    -8.179      1.470      2.293
REMARK INTER + INTRA:         -11.757
REMARK INTER:                 -11.026
REMARK INTRA:                  -0.731
REMARK UNBOUND:                -0.709
REMARK  Name = 
REMARK  6 active torsions:
REMARK  status: ('A' for Active; 'I' for Inactive)
REMARK    1  A    between atoms: C_2  and  C_3
REMARK    2  A    between atoms: C_6  and  C_7
REMARK    3  A    between atoms: C_7  and  N_8
REMARK    4  A    between atoms: C_11  and  C_12
REMARK    5  A    between atoms: C_12  and  N_13
REMARK    6  A    between atoms: C_14  and  C_16
REMARK                            x       y       z     vdW  Elec       q    Type
REMARK                         _______ _______ _______ _____ _____    ______ ____
ROOT
ATOM      1  C   UNL     1      46.259   6.700  12.893  0.00  0.00    +0.000 C 
ENDROOT
BRANCH   1   5
ATOM      2  N   UNL     1      44.112   4.527  10.821  0.00  0.00    +0.000 N 
ATOM      3  C   UNL     1      43.242   5.560  11.058  0.00  0.00    +0.000 A 
ATOM      4  C   UNL     1      43.897   6.500  11.821  0.00  0.00    +0.000 A 
ATOM      5  C   UNL     1      45.204   6.008  12.099  0.00  0.00    +0.000 A 
ATOM      6  C   UNL     1      45.296   4.777  11.469  0.00  0.00    +0.000 A 
BRANCH   2   7
ATOM      7  C   UNL     1      43.793   3.314  10.077  0.00  0.00    +0.000 C 
BRANCH   7  11
ATOM      8  C   UNL     1      46.792   2.386   7.096  0.00  0.00    +0.000 A 
ATOM      9  C   UNL     1      46.354   1.401   7.984  0.00  0.00    +0.000 A 
ATOM     10  C   UNL     1      45.387   1.701   8.951  0.00  0.00    +0.000 A 
ATOM     11  C   UNL     1      44.841   2.991   9.037  0.00  0.00    +0.000 A 
ATOM     12  C   UNL     1      45.287   3.975   8.141  0.00  0.00    +0.000 A 
ATOM     13  C   UNL     1      46.255   3.675   7.176  0.00  0.00    +0.000 A 
BRANCH   8  15
ATOM     14  N   UNL     1      48.600   1.827   5.322  0.00  0.00    +0.000 NA
ATOM     15  C   UNL     1      47.790   2.076   6.113  0.00  0.00    +0.000 C 
ENDBRANCH   8  15
ENDBRANCH   7  11
ENDBRANCH   2   7
ENDBRANCH   1   5
BRANCH   1  16
ATOM     16  N   UNL     1      46.501   5.930  14.084  0.00  0.00    +0.000 N 
ATOM     17  C   UNL     1      47.765   5.790  14.595  0.00  0.00    +0.000 C 
ATOM     18  O   UNL     1      48.758   6.206  14.003  0.00  0.00    +0.000 OA
ATOM     19  H   UNL     1      45.695   5.708  14.659  0.00  0.00    +0.000 HD
BRANCH  17  20
ATOM     20  C   UNL     1      47.879   5.098  15.883  0.00  0.00    +0.000 A 
ATOM     21  C   UNL     1      47.480   3.772  15.995  0.00  0.00    +0.000 A 
ATOM     22  S   UNL     1      47.763   3.101  17.536  0.00  0.00    +0.000 S 
ATOM     23  C   UNL     1      48.476   4.543  18.092  0.00  0.00    +0.000 A 
ATOM     24  N   UNL     1      49.032   4.617  19.331  0.00  0.00    +0.000 NA
ATOM     25  C   UNL     1      49.555   5.764  19.612  0.00  0.00    +0.000 A 
ATOM     26  N   UNL     1      49.543   6.853  18.781  0.00  0.00    +0.000 N 
ATOM     27  C   UNL     1      48.944   6.839  17.543  0.00  0.00    +0.000 A 
ATOM     28  O   UNL     1      48.857   7.862  16.871  0.00  0.00    +0.000 OA
ATOM     29  C   UNL     1      48.414   5.550  17.146  0.00  0.00    +0.000 A 
ATOM     30  H   UNL     1      49.919   7.739  19.083  0.00  0.00    +0.000 HD
ENDBRANCH  17  20
ENDBRANCH   1  16
TORSDOF 6
ENDMDL
MODEL 5
REMARK VINA RESULT:    -8.146      2.452      3.616
REMARK INTER + INTRA:         -11.712
REMARK INTER:                 -10.616
REMARK INTRA:                  -1.096
REMARK UNBOUND:                -0.709
REMARK  Name = 
REMARK  6 active torsions:
REMARK  status: ('A' for Active; 'I' for Inactive)
REMARK    1  A    between atoms: C_2  and  C_3
REMARK    2  A    between atoms: C_6  and  C_7
REMARK    3  A    between atoms: C_7  and  N_8
REMARK    4  A    between atoms: C_11  and  C_12
REMARK    5  A    between atoms: C_12  and  N_13
REMARK    6  A    between atoms: C_14  and  C_16
REMARK                            x       y       z     vdW  Elec       q    Type
REMARK                         _______ _______ _______ _____ _____    ______ ____
ROOT
ATOM      1  C   UNL     1      46.784   5.001  14.214  0.00  0.00    +0.000 C 
ENDROOT
BRANCH   1   5
ATOM      2  N   UNL     1      44.435   4.603  11.394  0.00  0.00    +0.000 N 
ATOM      3  C   UNL     1      44.055   5.841  11.844  0.00  0.00    +0.000 A 
ATOM      4  C   UNL     1      44.860   6.171  12.911  0.00  0.00    +0.000 A 
ATOM      5  C   UNL     1      45.739   5.077  13.152  0.00  0.00    +0.000 A 
ATOM      6  C   UNL     1      45.439   4.120  12.197  0.00  0.00    +0.000 A 
BRANCH   2   7
ATOM      7  C   UNL     1      43.806   3.879  10.296  0.00  0.00    +0.000 C 
BRANCH   7  11
ATOM      8  C   UNL     1      46.693   2.491   7.384  0.00  0.00    +0.000 A 
ATOM      9  C   UNL     1      46.045   1.580   8.221  0.00  0.00    +0.000 A 
ATOM     10  C   UNL     1      45.115   2.029   9.167  0.00  0.00    +0.000 A 
ATOM     11  C   UNL     1      44.815   3.395   9.280  0.00  0.00    +0.000 A 
ATOM     12  C   UNL     1      45.471   4.303   8.434  0.00  0.00    +0.000 A 
ATOM     13  C   UNL     1      46.403   3.856   7.491  0.00  0.00    +0.000 A 
BRANCH   8  15
ATOM     14  N   UNL     1      48.426   1.657   5.643  0.00  0.00    +0.000 NA
ATOM     15  C   UNL     1      47.654   2.028   6.423  0.00  0.00    +0.000 C 
ENDBRANCH   8  15
ENDBRANCH   7  11
ENDBRANCH   2   7
ENDBRANCH   1   5
BRANCH   1  16
ATOM     16  N   UNL     1      47.263   6.334  14.468  0.00  0.00    +0.000 N 
ATOM     17  C   UNL     1      48.321   6.855  13.770  0.00  0.00    +0.000 C 
ATOM     18  O   UNL     1      48.985   6.177  12.989  0.00  0.00    +0.000 OA
ATOM     19  H   UNL     1      46.649   6.951  14.990  0.00  0.00    +0.000 HD
BRANCH  17  20
ATOM     20  C   UNL     1      48.639   8.265  14.016  0.00  0.00    +0.000 A 
ATOM     21  C   UNL     1      48.727   9.151  12.950  0.00  0.00    +0.000 A 
ATOM     22  S   UNL     1      49.015  10.764  13.423  0.00  0.00    +0.000 S 
ATOM     23  C   UNL     1      48.981  10.342  15.072  0.00  0.00    +0.000 A 
ATOM     24  N   UNL     1      49.072  11.293  16.040  0.00  0.00    +0.000 NA
ATOM     25  C   UNL     1      49.011  10.833  17.245  0.00  0.00    +0.000 A 
ATOM     26  N   UNL     1      48.903   9.506  17.571  0.00  0.00    +0.000 N 
ATOM     27  C   UNL     1      48.864   8.508  16.626  0.00  0.00    +0.000 A 
ATOM     28  O   UNL     1      48.875   7.326  16.955  0.00  0.00    +0.000 OA
ATOM     29  C   UNL     1      48.845   8.977  15.255  0.00  0.00    +0.000 A 
ATOM     30  H   UNL     1      48.918   9.207  18.534  0.00  0.00    +0.000 HD
ENDBRANCH  17  20
ENDBRANCH   1  16
TORSDOF 6
ENDMDL
MODEL 6
REMARK VINA RESULT:    -7.791      2.357      3.272
REMARK INTER + INTRA:         -11.232
REMARK INTER:                 -10.404
REMARK INTRA:                  -0.828
REMARK UNBOUND:                -0.709
REMARK  Name = 
REMARK  6 active torsions:
REMARK  status: ('A' for Active; 'I' for Inactive)
REMARK    1  A    between atoms: C_2  and  C_3
REMARK    2  A    between atoms: C_6  and  C_7
REMARK    3  A    between atoms: C_7  and  N_8
REMARK    4  A    between atoms: C_11  and  C_12
REMARK    5  A    between atoms: C_12  and  N_13
REMARK    6  A    between atoms: C_14  and  C_16
REMARK                            x       y       z     vdW  Elec       q    Type
REMARK                         _______ _______ _______ _____ _____    ______ ____
ROOT
ATOM      1  C   UNL     1      46.904   4.092  14.922  0.00  0.00    +0.000 C 
ENDROOT
BRANCH   1   5
ATOM      2  N   UNL     1      45.133   4.672  11.736  0.00  0.00    +0.000 N 
ATOM      3  C   UNL     1      45.536   5.952  12.017  0.00  0.00    +0.000 A 
ATOM      4  C   UNL     1      46.249   5.923  13.195  0.00  0.00    +0.000 A 
ATOM      5  C   UNL     1      46.248   4.583  13.676  0.00  0.00    +0.000 A 
ATOM      6  C   UNL     1      45.538   3.838  12.748  0.00  0.00    +0.000 A 
BRANCH   2   7
ATOM      7  C   UNL     1      44.323   4.280  10.589  0.00  0.00    +0.000 C 
BRANCH   7  11
ATOM      8  C   UNL     1      46.720   2.675   7.362  0.00  0.00    +0.000 A 
ATOM      9  C   UNL     1      46.060   1.815   8.241  0.00  0.00    +0.000 A 
ATOM     10  C   UNL     1      45.288   2.334   9.289  0.00  0.00    +0.000 A 
ATOM     11  C   UNL     1      45.161   3.720   9.463  0.00  0.00    +0.000 A 
ATOM     12  C   UNL     1      45.828   4.577   8.573  0.00  0.00    +0.000 A 
ATOM     13  C   UNL     1      46.602   4.059   7.529  0.00  0.00    +0.000 A 
BRANCH   8  15
ATOM     14  N   UNL     1      48.161   1.710   5.432  0.00  0.00    +0.000 NA
ATOM     15  C   UNL     1      47.519   2.140   6.296  0.00  0.00    +0.000 C 
ENDBRANCH   8  15
ENDBRANCH   7  11
ENDBRANCH   2   7
ENDBRANCH   1   5
BRANCH   1  16
ATOM     16  N   UNL     1      47.445   5.227  15.622  0.00  0.00    +0.000 N 
ATOM     17  C   UNL     1      48.563   5.112  16.406  0.00  0.00    +0.000 C 
ATOM     18  O   UNL     1      49.082   4.024  16.647  0.00  0.00    +0.000 OA
ATOM     19  H   UNL     1      47.127   6.144  15.324  0.00  0.00    +0.000 HD
BRANCH  17  20
ATOM     20  C   UNL     1      49.103   6.356  16.963  0.00  0.00    +0.000 A 
ATOM     21  C   UNL     1      50.190   6.972  16.356  0.00  0.00    +0.000 A 
ATOM     22  S   UNL     1      50.630   8.451  17.082  0.00  0.00    +0.000 S 
ATOM     23  C   UNL     1      49.352   8.343  18.201  0.00  0.00    +0.000 A 
ATOM     24  N   UNL     1      49.098   9.356  19.072  0.00  0.00    +0.000 NA
ATOM     25  C   UNL     1      48.086   9.150  19.848  0.00  0.00    +0.000 A 
ATOM     26  N   UNL     1      47.327   8.008  19.855  0.00  0.00    +0.000 N 
ATOM     27  C   UNL     1      47.583   6.938  19.031  0.00  0.00    +0.000 A 
ATOM     28  O   UNL     1      46.951   5.892  19.138  0.00  0.00    +0.000 OA
ATOM     29  C   UNL     1      48.658   7.153  18.082  0.00  0.00    +0.000 A 
ATOM     30  H   UNL     1      46.584   7.885  20.526  0.00  0.00    +0.000 HD
ENDBRANCH  17  20
ENDBRANCH   1  16
TORSDOF 6
ENDMDL
MODEL 7
REMARK VINA RESULT:    -7.689      2.315      4.059
REMARK INTER + INTRA:         -11.095
REMARK INTER:                 -10.034
REMARK INTRA:                  -1.062
REMARK UNBOUND:                -0.709
REMARK  Name = 
REMARK  6 active torsions:
REMARK  status: ('A' for Active; 'I' for Inactive)
REMARK    1  A    between atoms: C_2  and  C_3
REMARK    2  A    between atoms: C_6  and  C_7
REMARK    3  A    between atoms: C_7  and  N_8
REMARK    4  A    between atoms: C_11  and  C_12
REMARK    5  A    between atoms: C_12  and  N_13
REMARK    6  A    between atoms: C_14  and  C_16
REMARK                            x       y       z     vdW  Elec       q    Type
REMARK                         _______ _______ _______ _____ _____    ______ ____
ROOT
ATOM      1  C   UNL     1      46.741   4.734  14.215  0.00  0.00    +0.000 C 
ENDROOT
BRANCH   1   5
ATOM      2  N   UNL     1      44.246   4.527  11.503  0.00  0.00    +0.000 N 
ATOM      3  C   UNL     1      43.447   4.240  12.581  0.00  0.00    +0.000 A 
ATOM      4  C   UNL     1      44.227   4.294  13.714  0.00  0.00    +0.000 A 
ATOM      5  C   UNL     1      45.563   4.583  13.314  0.00  0.00    +0.000 A 
ATOM      6  C   UNL     1      45.536   4.711  11.935  0.00  0.00    +0.000 A 
BRANCH   2   7
ATOM      7  C   UNL     1      43.808   4.540  10.113  0.00  0.00    +0.000 C 
BRANCH   7  11
ATOM      8  C   UNL     1      46.688   2.677   7.473  0.00  0.00    +0.000 A 
ATOM      9  C   UNL     1      45.914   1.895   8.332  0.00  0.00    +0.000 A 
ATOM     10  C   UNL     1      44.985   2.497   9.190  0.00  0.00    +0.000 A 
ATOM     11  C   UNL     1      44.814   3.890   9.192  0.00  0.00    +0.000 A 
ATOM     12  C   UNL     1      45.597   4.668   8.325  0.00  0.00    +0.000 A 
ATOM     13  C   UNL     1      46.527   4.067   7.469  0.00  0.00    +0.000 A 
BRANCH   8  15
ATOM     14  N   UNL     1      48.416   1.553   5.897  0.00  0.00    +0.000 NA
ATOM     15  C   UNL     1      47.647   2.057   6.602  0.00  0.00    +0.000 C 
ENDBRANCH   8  15
ENDBRANCH   7  11
ENDBRANCH   2   7
ENDBRANCH   1   5
BRANCH   1  16
ATOM     16  N   UNL     1      47.102   6.127  14.251  0.00  0.00    +0.000 N 
ATOM     17  C   UNL     1      48.233   6.552  14.898  0.00  0.00    +0.000 C 
ATOM     18  O   UNL     1      48.922   5.793  15.575  0.00  0.00    +0.000 OA
ATOM     19  H   UNL     1      46.639   6.738  13.587  0.00  0.00    +0.000 HD
BRANCH  17  20
ATOM     20  C   UNL     1      48.574   7.971  14.758  0.00  0.00    +0.000 A 
ATOM     21  C   UNL     1      48.755   8.755  15.889  0.00  0.00    +0.000 A 
ATOM     22  S   UNL     1      49.233  10.355  15.543  0.00  0.00    +0.000 S 
ATOM     23  C   UNL     1      49.265  10.040  13.871  0.00  0.00    +0.000 A 
ATOM     24  N   UNL     1      49.694  10.983  12.989  0.00  0.00    +0.000 NA
ATOM     25  C   UNL     1      49.685  10.601  11.755  0.00  0.00    +0.000 A 
ATOM     26  N   UNL     1      49.254   9.375  11.320  0.00  0.00    +0.000 N 
ATOM     27  C   UNL     1      48.761   8.413  12.170  0.00  0.00    +0.000 A 
ATOM     28  O   UNL     1      48.285   7.369  11.736  0.00  0.00    +0.000 OA
ATOM     29  C   UNL     1      48.827   8.762  13.576  0.00  0.00    +0.000 A 
ATOM     30  H   UNL     1      49.220   9.158  10.336  0.00  0.00    +0.000 HD
ENDBRANCH  17  20
ENDBRANCH   1  16
TORSDOF 6
ENDMDL
MODEL 8
REMARK VINA RESULT:    -7.208      3.290      7.848
REMARK INTER + INTRA:         -10.446
REMARK INTER:                  -9.456
REMARK INTRA:                  -0.990
REMARK UNBOUND:                -0.709
REMARK  Name = 
REMARK  6 active torsions:
REMARK  status: ('A' for Active; 'I' for Inactive)
REMARK    1  A    between atoms: C_2  and  C_3
REMARK    2  A    between atoms: C_6  and  C_7
REMARK    3  A    between atoms: C_7  and  N_8
REMARK    4  A    between atoms: C_11  and  C_12
REMARK    5  A    between atoms: C_12  and  N_13
REMARK    6  A    between atoms: C_14  and  C_16
REMARK                            x       y       z     vdW  Elec       q    Type
REMARK                         _______ _______ _______ _____ _____    ______ ____
ROOT
ATOM      1  C   UNL     1      48.492   7.399  12.776  0.00  0.00    +0.000 C 
ENDROOT
BRANCH   1   5
ATOM      2  N   UNL     1      48.394   6.130  16.241  0.00  0.00    +0.000 N 
ATOM      3  C   UNL     1      48.958   7.361  16.457  0.00  0.00    +0.000 A 
ATOM      4  C   UNL     1      49.055   8.003  15.243  0.00  0.00    +0.000 A 
ATOM      5  C   UNL     1      48.572   7.117  14.239  0.00  0.00    +0.000 A 
ATOM      6  C   UNL     1      48.180   5.962  14.896  0.00  0.00    +0.000 A 
BRANCH   2   7
ATOM      7  C   UNL     1      48.151   5.126  17.269  0.00  0.00    +0.000 C 
BRANCH   7  11
ATOM      8  C   UNL     1      51.327   2.191  17.475  0.00  0.00    +0.000 A 
ATOM      9  C   UNL     1      51.572   3.519  17.828  0.00  0.00    +0.000 A 
ATOM     10  C   UNL     1      50.547   4.470  17.757  0.00  0.00    +0.000 A 
ATOM     11  C   UNL     1      49.259   4.101  17.340  0.00  0.00    +0.000 A 
ATOM     12  C   UNL     1      49.021   2.763  16.987  0.00  0.00    +0.000 A 
ATOM     13  C   UNL     1      50.046   1.814  17.054  0.00  0.00    +0.000 A 
BRANCH   8  15
ATOM     14  N   UNL     1      53.235   0.438  17.596  0.00  0.00    +0.000 NA
ATOM     15  C   UNL     1      52.383   1.222  17.539  0.00  0.00    +0.000 C 
ENDBRANCH   8  15
ENDBRANCH   7  11
ENDBRANCH   2   7
ENDBRANCH   1   5
BRANCH   1  16
ATOM     16  N   UNL     1      47.631   6.414  12.176  0.00  0.00    +0.000 N 
ATOM     17  C   UNL     1      46.442   6.768  11.597  0.00  0.00    +0.000 C 
ATOM     18  O   UNL     1      45.996   7.911  11.667  0.00  0.00    +0.000 OA
ATOM     19  H   UNL     1      48.041   5.507  11.979  0.00  0.00    +0.000 HD
BRANCH  17  20
ATOM     20  C   UNL     1      45.710   5.706  10.899  0.00  0.00    +0.000 A 
ATOM     21  C   UNL     1      45.875   5.534   9.531  0.00  0.00    +0.000 A 
ATOM     22  S   UNL     1      45.020   4.200   8.901  0.00  0.00    +0.000 S 
ATOM     23  C   UNL     1      44.440   3.776  10.445  0.00  0.00    +0.000 A 
ATOM     24  N   UNL     1      43.707   2.646  10.630  0.00  0.00    +0.000 NA
ATOM     25  C   UNL     1      43.351   2.436  11.854  0.00  0.00    +0.000 A 
ATOM     26  N   UNL     1      43.634   3.271  12.903  0.00  0.00    +0.000 N 
ATOM     27  C   UNL     1      44.325   4.451  12.752  0.00  0.00    +0.000 A 
ATOM     28  O   UNL     1      44.467   5.226  13.692  0.00  0.00    +0.000 OA
ATOM     29  C   UNL     1      44.818   4.691  11.410  0.00  0.00    +0.000 A 
ATOM     30  H   UNL     1      43.279   3.080  13.827  0.00  0.00    +0.000 HD
ENDBRANCH  17  20
ENDBRANCH   1  16
TORSDOF 6
ENDMDL
MODEL 9
REMARK VINA RESULT:    -6.845      3.948      9.638
REMARK INTER + INTRA:          -9.954
REMARK INTER:                  -9.139
REMARK INTRA:                  -0.815
REMARK UNBOUND:                -0.709
REMARK  Name = 
REMARK  6 active torsions:
REMARK  status: ('A' for Active; 'I' for Inactive)
REMARK    1  A    between atoms: C_2  and  C_3
REMARK    2  A    between atoms: C_6  and  C_7
REMARK    3  A    between atoms: C_7  and  N_8
REMARK    4  A    between atoms: C_11  and  C_12
REMARK    5  A    between atoms: C_12  and  N_13
REMARK    6  A    between atoms: C_14  and  C_16
REMARK                            x       y       z     vdW  Elec       q    Type
REMARK                         _______ _______ _______ _____ _____    ______ ____
ROOT
ATOM      1  C   UNL     1      47.503   3.497  16.436  0.00  0.00    +0.000 C 
ENDROOT
BRANCH   1   5
ATOM      2  N   UNL     1      49.854   5.612  18.341  0.00  0.00    +0.000 N 
ATOM      3  C   UNL     1      50.402   4.377  18.579  0.00  0.00    +0.000 A 
ATOM      4  C   UNL     1      49.646   3.441  17.910  0.00  0.00    +0.000 A 
ATOM      5  C   UNL     1      48.569   4.120  17.273  0.00  0.00    +0.000 A 
ATOM      6  C   UNL     1      48.728   5.464  17.571  0.00  0.00    +0.000 A 
BRANCH   2   7
ATOM      7  C   UNL     1      50.341   6.868  18.898  0.00  0.00    +0.000 C 
BRANCH   7  11
ATOM      8  C   UNL     1      47.111   9.554  19.946  0.00  0.00    +0.000 A 
ATOM      9  C   UNL     1      47.433   8.482  20.780  0.00  0.00    +0.000 A 
ATOM     10  C   UNL     1      48.475   7.610  20.440  0.00  0.00    +0.000 A 
ATOM     11  C   UNL     1      49.213   7.805  19.263  0.00  0.00    +0.000 A 
ATOM     12  C   UNL     1      48.882   8.885  18.429  0.00  0.00    +0.000 A 
ATOM     13  C   UNL     1      47.839   9.755  18.768  0.00  0.00    +0.000 A 
BRANCH   8  15
ATOM     14  N   UNL     1      45.165  11.151  20.570  0.00  0.00    +0.000 NA
ATOM     15  C   UNL     1      46.036  10.439  20.293  0.00  0.00    +0.000 C 
ENDBRANCH   8  15
ENDBRANCH   7  11
ENDBRANCH   2   7
ENDBRANCH   1   5
BRANCH   1  16
ATOM     16  N   UNL     1      46.965   4.511  15.568  0.00  0.00    +0.000 N 
ATOM     17  C   UNL     1      46.766   4.271  14.234  0.00  0.00    +0.000 C 
ATOM     18  O   UNL     1      47.147   3.236  13.692  0.00  0.00    +0.000 OA
ATOM     19  H   UNL     1      46.515   5.304  16.013  0.00  0.00    +0.000 HD
BRANCH  17  20
ATOM     20  C   UNL     1      46.090   5.326  13.472  0.00  0.00    +0.000 A 
ATOM     21  C   UNL     1      46.755   6.511  13.188  0.00  0.00    +0.000 A 
ATOM     22  S   UNL     1      45.853   7.587  12.220  0.00  0.00    +0.000 S 
ATOM     23  C   UNL     1      44.561   6.485  12.106  0.00  0.00    +0.000 A 
ATOM     24  N   UNL     1      43.481   6.751  11.324  0.00  0.00    +0.000 NA
ATOM     25  C   UNL     1      42.587   5.819  11.314  0.00  0.00    +0.000 A 
ATOM     26  N   UNL     1      42.660   4.659  12.042  0.00  0.00    +0.000 N 
ATOM     27  C   UNL     1      43.707   4.374  12.887  0.00  0.00    +0.000 A 
ATOM     28  O   UNL     1      43.688   3.378  13.603  0.00  0.00    +0.000 OA
ATOM     29  C   UNL     1      44.777   5.352  12.870  0.00  0.00    +0.000 A 
ATOM     30  H   UNL     1      41.901   3.995  12.034  0.00  0.00    +0.000 HD
ENDBRANCH  17  20
ENDBRANCH   1  16
TORSDOF 6
ENDMDL
