MODEL 1
REMARK VINA RESULT:    -7.959      0.000      0.000
REMARK INTER + INTRA:         -11.777
REMARK INTER:                 -10.984
REMARK INTRA:                  -0.793
REMARK UNBOUND:                -0.793
REMARK  Name = 
REMARK  7 active torsions:
REMARK  status: ('A' for Active; 'I' for Inactive)
REMARK    1  A    between atoms: N_1  and  C_2
REMARK    2  A    between atoms: C_2  and  C_3
REMARK    3  A    between atoms: C_3  and  C_4
REMARK    4  A    between atoms: C_7  and  C_8
REMARK    5  A    between atoms: C_8  and  O_9
REMARK    6  A    between atoms: O_9  and  C_10
REMARK    7  A    between atoms: C_13  and  C_14
REMARK                            x       y       z     vdW  Elec       q    Type
REMARK                         _______ _______ _______ _____ _____    ______ ____
ROOT
ATOM      1  O   UNL     1      43.413   3.535  10.449  0.00  0.00    +0.000 OA
ENDROOT
BRANCH   1   2
ATOM      2  C   UNL     1      44.397   3.322   9.519  0.00  0.00    +0.000 A 
ATOM      3  C   UNL     1      45.083   4.312   8.812  0.00  0.00    +0.000 A 
ATOM      4  C   UNL     1      46.070   3.962   7.881  0.00  0.00    +0.000 A 
ATOM      5  C   UNL     1      46.388   2.618   7.646  0.00  0.00    +0.000 A 
ATOM      6  C   UNL     1      45.697   1.638   8.359  0.00  0.00    +0.000 A 
ATOM      7  F   UNL     1      45.960   0.333   8.176  0.00  0.00    +0.000 F 
ATOM      8  C   UNL     1      44.711   1.983   9.286  0.00  0.00    +0.000 A 
BRANCH   5   9
ATOM      9  C   UNL     1      47.445   2.312   6.646  0.00  0.00    +0.000 C 
ATOM     10  N   UNL     1      47.394   2.940   5.436  0.00  0.00    +0.000 N 
ATOM     11  O   UNL     1      48.341   1.514   6.893  0.00  0.00    +0.000 OA
ATOM     12  H   UNL     1      46.671   3.605   5.186  0.00  0.00    +0.000 HD
ATOM     13  H   UNL     1      48.115   2.729   4.760  0.00  0.00    +0.000 HD
ENDBRANCH   5   9
ENDBRANCH   1   2
BRANCH   1  14
ATOM     14  C   UNL     1      43.700   3.132  11.788  0.00  0.00    +0.000 C 
BRANCH  14  18
ATOM     15  C   UNL     1      46.749   5.726  13.451  0.00  0.00    +0.000 A 
ATOM     16  C   UNL     1      46.906   4.334  13.475  0.00  0.00    +0.000 A 
ATOM     17  C   UNL     1      45.916   3.496  12.953  0.00  0.00    +0.000 A 
ATOM     18  C   UNL     1      44.756   4.034  12.380  0.00  0.00    +0.000 A 
ATOM     19  C   UNL     1      44.595   5.426  12.365  0.00  0.00    +0.000 A 
ATOM     20  C   UNL     1      45.586   6.264  12.887  0.00  0.00    +0.000 A 
BRANCH  15  21
ATOM     21  C   UNL     1      47.812   6.629  14.031  0.00  0.00    +0.000 C 
BRANCH  21  22
ATOM     22  C   UNL     1      47.602   8.102  13.663  0.00  0.00    +0.000 C 
BRANCH  22  23
ATOM     23  N   UNL     1      47.255   8.891  14.847  0.00  0.00    +0.000 NA
ATOM     24  H   UNL     1      48.104   9.284  15.251  0.00  0.00    +0.000 HD
ATOM     25  H   UNL     1      46.858   8.281  15.560  0.00  0.00    +0.000 HD
ENDBRANCH  22  23
ENDBRANCH  21  22
ENDBRANCH  15  21
ENDBRANCH  14  18
ENDBRANCH   1  14
TORSDOF 7
ENDMDL
MODEL 2
REMARK VINA RESULT:    -7.708      0.712      1.439
REMARK INTER + INTRA:         -11.429
REMARK INTER:                 -10.774
REMARK INTRA:                  -0.655
REMARK UNBOUND:                -0.793
REMARK  Name = 
REMARK  7 active torsions:
REMARK  status: ('A' for Active; 'I' for Inactive)
REMARK    1  A    between atoms: N_1  and  C_2
REMARK    2  A    between atoms: C_2  and  C_3
REMARK    3  A    between atoms: C_3  and  C_4
REMARK    4  A    between atoms: C_7  and  C_8
REMARK    5  A    between atoms: C_8  and  O_9
REMARK    6  A    between atoms: O_9  and  C_10
REMARK    7  A    between atoms: C_13  and  C_14
REMARK                            x       y       z     vdW  Elec       q    Type
REMARK                         _______ _______ _______ _____ _____    ______ ____
ROOT
ATOM      1  O   UNL     1      43.496   3.615  10.393  0.00  0.00    +0.000 OA
ENDROOT
BRANCH   1   2
ATOM      2  C   UNL     1      44.468   3.379   9.456  0.00  0.00    +0.000 A 
ATOM      3  C   UNL     1      45.138   4.351   8.710  0.00  0.00    +0.000 A 
ATOM      4  C   UNL     1      46.115   3.978   7.776  0.00  0.00    +0.000 A 
ATOM      5  C   UNL     1      46.437   2.630   7.578  0.00  0.00    +0.000 A 
ATOM      6  C   UNL     1      45.762   1.668   8.330  0.00  0.00    +0.000 A 
ATOM      7  F   UNL     1      46.030   0.359   8.183  0.00  0.00    +0.000 F 
ATOM      8  C   UNL     1      44.787   2.035   9.260  0.00  0.00    +0.000 A 
BRANCH   5   9
ATOM      9  C   UNL     1      47.481   2.299   6.573  0.00  0.00    +0.000 C 
ATOM     10  N   UNL     1      47.423   2.905   5.353  0.00  0.00    +0.000 N 
ATOM     11  O   UNL     1      48.376   1.500   6.826  0.00  0.00    +0.000 OA
ATOM     12  H   UNL     1      46.701   3.571   5.098  0.00  0.00    +0.000 HD
ATOM     13  H   UNL     1      48.136   2.678   4.673  0.00  0.00    +0.000 HD
ENDBRANCH   5   9
ENDBRANCH   1   2
BRANCH   1  14
ATOM     14  C   UNL     1      43.908   3.606  11.760  0.00  0.00    +0.000 C 
BRANCH  14  18
ATOM     15  C   UNL     1      45.835   7.356  12.770  0.00  0.00    +0.000 A 
ATOM     16  C   UNL     1      44.630   7.343  12.055  0.00  0.00    +0.000 A 
ATOM     17  C   UNL     1      44.016   6.134  11.715  0.00  0.00    +0.000 A 
ATOM     18  C   UNL     1      44.586   4.913  12.099  0.00  0.00    +0.000 A 
ATOM     19  C   UNL     1      45.795   4.926  12.805  0.00  0.00    +0.000 A 
ATOM     20  C   UNL     1      46.409   6.135  13.145  0.00  0.00    +0.000 A 
BRANCH  15  21
ATOM     21  C   UNL     1      46.506   8.663  13.121  0.00  0.00    +0.000 C 
BRANCH  21  22
ATOM     22  C   UNL     1      47.729   8.476  14.025  0.00  0.00    +0.000 C 
BRANCH  22  23
ATOM     23  N   UNL     1      47.489   9.045  15.352  0.00  0.00    +0.000 NA
ATOM     24  H   UNL     1      47.635   8.326  16.060  0.00  0.00    +0.000 HD
ATOM     25  H   UNL     1      46.513   9.327  15.432  0.00  0.00    +0.000 HD
ENDBRANCH  22  23
ENDBRANCH  21  22
ENDBRANCH  15  21
ENDBRANCH  14  18
ENDBRANCH   1  14
TORSDOF 7
ENDMDL
MODEL 3
REMARK VINA RESULT:    -7.691      2.509      6.713
REMARK INTER + INTRA:         -11.406
REMARK INTER:                 -10.513
REMARK INTRA:                  -0.893
REMARK UNBOUND:                -0.793
REMARK  Name = 
REMARK  7 active torsions:
REMARK  status: ('A' for Active; 'I' for Inactive)
REMARK    1  A    between atoms: N_1  and  C_2
REMARK    2  A    between atoms: C_2  and  C_3
REMARK    3  A    between atoms: C_3  and  C_4
REMARK    4  A    between atoms: C_7  and  C_8
REMARK    5  A    between atoms: C_8  and  O_9
REMARK    6  A    between atoms: O_9  and  C_10
REMARK    7  A    between atoms: C_13  and  C_14
REMARK                            x       y       z     vdW  Elec       q    Type
REMARK                         _______ _______ _______ _____ _____    ______ ____
ROOT
ATOM      1  O   UNL     1      43.665   4.548  11.721  0.00  0.00    +0.000 OA
ENDROOT
BRANCH   1   2
ATOM      2  C   UNL     1      44.760   5.138  12.294  0.00  0.00    +0.000 A 
ATOM      3  C   UNL     1      45.156   6.467  12.125  0.00  0.00    +0.000 A 
ATOM      4  C   UNL     1      46.304   6.950  12.768  0.00  0.00    +0.000 A 
ATOM      5  C   UNL     1      47.070   6.114  13.590  0.00  0.00    +0.000 A 
ATOM      6  C   UNL     1      46.663   4.789  13.753  0.00  0.00    +0.000 A 
ATOM      7  F   UNL     1      47.358   3.942  14.531  0.00  0.00    +0.000 F 
ATOM      8  C   UNL     1      45.521   4.303  13.113  0.00  0.00    +0.000 A 
BRANCH   5   9
ATOM      9  C   UNL     1      48.276   6.687  14.244  0.00  0.00    +0.000 C 
ATOM     10  N   UNL     1      48.135   7.267  15.470  0.00  0.00    +0.000 N 
ATOM     11  O   UNL     1      49.374   6.644  13.701  0.00  0.00    +0.000 OA
ATOM     12  H   UNL     1      47.247   7.327  15.957  0.00  0.00    +0.000 HD
ATOM     13  H   UNL     1      48.958   7.654  15.912  0.00  0.00    +0.000 HD
ENDBRANCH   5   9
ENDBRANCH   1   2
BRANCH   1  14
ATOM     14  C   UNL     1      43.469   4.777  10.326  0.00  0.00    +0.000 C 
BRANCH  14  18
ATOM     15  C   UNL     1      46.163   2.303   7.999  0.00  0.00    +0.000 A 
ATOM     16  C   UNL     1      45.229   1.720   8.867  0.00  0.00    +0.000 A 
ATOM     17  C   UNL     1      44.371   2.519   9.629  0.00  0.00    +0.000 A 
ATOM     18  C   UNL     1      44.417   3.915   9.526  0.00  0.00    +0.000 A 
ATOM     19  C   UNL     1      45.356   4.496   8.666  0.00  0.00    +0.000 A 
ATOM     20  C   UNL     1      46.215   3.699   7.903  0.00  0.00    +0.000 A 
BRANCH  15  21
ATOM     21  C   UNL     1      47.102   1.440   7.189  0.00  0.00    +0.000 C 
BRANCH  21  22
ATOM     22  C   UNL     1      48.271   2.233   6.595  0.00  0.00    +0.000 C 
BRANCH  22  23
ATOM     23  N   UNL     1      48.375   2.009   5.152  0.00  0.00    +0.000 NA
ATOM     24  H   UNL     1      49.114   2.598   4.772  0.00  0.00    +0.000 HD
ATOM     25  H   UNL     1      47.513   2.306   4.697  0.00  0.00    +0.000 HD
ENDBRANCH  22  23
ENDBRANCH  21  22
ENDBRANCH  15  21
ENDBRANCH  14  18
ENDBRANCH   1  14
TORSDOF 7
ENDMDL
MODEL 4
REMARK VINA RESULT:    -7.517      2.768      6.879
REMARK INTER + INTRA:         -11.166
REMARK INTER:                 -10.319
REMARK INTRA:                  -0.847
REMARK UNBOUND:                -0.793
REMARK  Name = 
REMARK  7 active torsions:
REMARK  status: ('A' for Active; 'I' for Inactive)
REMARK    1  A    between atoms: N_1  and  C_2
REMARK    2  A    between atoms: C_2  and  C_3
REMARK    3  A    between atoms: C_3  and  C_4
REMARK    4  A    between atoms: C_7  and  C_8
REMARK    5  A    between atoms: C_8  and  O_9
REMARK    6  A    between atoms: O_9  and  C_10
REMARK    7  A    between atoms: C_13  and  C_14
REMARK                            x       y       z     vdW  Elec       q    Type
REMARK                         _______ _______ _______ _____ _____    ______ ____
ROOT
ATOM      1  O   UNL     1      43.668   4.317  12.125  0.00  0.00    +0.000 OA
ENDROOT
BRANCH   1   2
ATOM      2  C   UNL     1      44.828   4.859  12.614  0.00  0.00    +0.000 A 
ATOM      3  C   UNL     1      45.876   4.152  13.207  0.00  0.00    +0.000 A 
ATOM      4  C   UNL     1      47.013   4.827  13.670  0.00  0.00    +0.000 A 
ATOM      5  C   UNL     1      47.120   6.218  13.545  0.00  0.00    +0.000 A 
ATOM      6  C   UNL     1      46.068   6.914  12.950  0.00  0.00    +0.000 A 
ATOM      7  F   UNL     1      46.115   8.249  12.803  0.00  0.00    +0.000 F 
ATOM      8  C   UNL     1      44.932   6.245  12.489  0.00  0.00    +0.000 A 
BRANCH   5   9
ATOM      9  C   UNL     1      48.351   6.876  14.057  0.00  0.00    +0.000 C 
ATOM     10  N   UNL     1      48.246   7.692  15.145  0.00  0.00    +0.000 N 
ATOM     11  O   UNL     1      49.438   6.698  13.519  0.00  0.00    +0.000 OA
ATOM     12  H   UNL     1      47.369   7.871  15.622  0.00  0.00    +0.000 HD
ATOM     13  H   UNL     1      49.086   8.136  15.491  0.00  0.00    +0.000 HD
ENDBRANCH   5   9
ENDBRANCH   1   2
BRANCH   1  14
ATOM     14  C   UNL     1      43.330   4.637  10.776  0.00  0.00    +0.000 C 
BRANCH  14  18
ATOM     15  C   UNL     1      45.858   2.369   8.083  0.00  0.00    +0.000 A 
ATOM     16  C   UNL     1      45.833   3.768   8.028  0.00  0.00    +0.000 A 
ATOM     17  C   UNL     1      45.005   4.500   8.886  0.00  0.00    +0.000 A 
ATOM     18  C   UNL     1      44.200   3.847   9.828  0.00  0.00    +0.000 A 
ATOM     19  C   UNL     1      44.220   2.447   9.877  0.00  0.00    +0.000 A 
ATOM     20  C   UNL     1      45.047   1.715   9.019  0.00  0.00    +0.000 A 
BRANCH  15  21
ATOM     21  C   UNL     1      46.740   1.578   7.144  0.00  0.00    +0.000 C 
BRANCH  21  22
ATOM     22  C   UNL     1      47.996   2.349   6.723  0.00  0.00    +0.000 C 
BRANCH  22  23
ATOM     23  N   UNL     1      48.525   1.832   5.459  0.00  0.00    +0.000 NA
ATOM     24  H   UNL     1      48.294   0.843   5.377  0.00  0.00    +0.000 HD
ATOM     25  H   UNL     1      49.543   1.885   5.469  0.00  0.00    +0.000 HD
ENDBRANCH  22  23
ENDBRANCH  21  22
ENDBRANCH  15  21
ENDBRANCH  14  18
ENDBRANCH   1  14
TORSDOF 7
ENDMDL
MODEL 5
REMARK VINA RESULT:    -7.459      1.676      1.971
REMARK INTER + INTRA:         -11.086
REMARK INTER:                 -10.527
REMARK INTRA:                  -0.560
REMARK UNBOUND:                -0.793
REMARK  Name = 
REMARK  7 active torsions:
REMARK  status: ('A' for Active; 'I' for Inactive)
REMARK    1  A    between atoms: N_1  and  C_2
REMARK    2  A    between atoms: C_2  and  C_3
REMARK    3  A    between atoms: C_3  and  C_4
REMARK    4  A    between atoms: C_7  and  C_8
REMARK    5  A    between atoms: C_8  and  O_9
REMARK    6  A    between atoms: O_9  and  C_10
REMARK    7  A    between atoms: C_13  and  C_14
REMARK                            x       y       z     vdW  Elec       q    Type
REMARK                         _______ _______ _______ _____ _____    ______ ____
ROOT
ATOM      1  O   UNL     1      43.589   4.524   9.956  0.00  0.00    +0.000 OA
ENDROOT
BRANCH   1   2
ATOM      2  C   UNL     1      44.458   3.702   9.288  0.00  0.00    +0.000 A 
ATOM      3  C   UNL     1      44.601   2.327   9.487  0.00  0.00    +0.000 A 
ATOM      4  C   UNL     1      45.533   1.597   8.737  0.00  0.00    +0.000 A 
ATOM      5  C   UNL     1      46.332   2.229   7.776  0.00  0.00    +0.000 A 
ATOM      6  C   UNL     1      46.179   3.603   7.585  0.00  0.00    +0.000 A 
ATOM      7  F   UNL     1      46.918   4.263   6.677  0.00  0.00    +0.000 F 
ATOM      8  C   UNL     1      45.253   4.335   8.332  0.00  0.00    +0.000 A 
BRANCH   5   9
ATOM      9  C   UNL     1      47.302   1.400   7.014  0.00  0.00    +0.000 C 
ATOM     10  N   UNL     1      48.498   1.957   6.665  0.00  0.00    +0.000 N 
ATOM     11  O   UNL     1      47.042   0.245   6.700  0.00  0.00    +0.000 OA
ATOM     12  H   UNL     1      48.757   2.908   6.901  0.00  0.00    +0.000 HD
ATOM     13  H   UNL     1      49.155   1.388   6.148  0.00  0.00    +0.000 HD
ENDBRANCH   5   9
ENDBRANCH   1   2
BRANCH   1  14
ATOM     14  C   UNL     1      43.568   4.414  11.379  0.00  0.00    +0.000 C 
BRANCH  14  18
ATOM     15  C   UNL     1      47.233   6.059  13.007  0.00  0.00    +0.000 A 
ATOM     16  C   UNL     1      46.736   4.832  13.467  0.00  0.00    +0.000 A 
ATOM     17  C   UNL     1      45.545   4.309  12.953  0.00  0.00    +0.000 A 
ATOM     18  C   UNL     1      44.837   4.993  11.957  0.00  0.00    +0.000 A 
ATOM     19  C   UNL     1      45.331   6.223  11.504  0.00  0.00    +0.000 A 
ATOM     20  C   UNL     1      46.521   6.747  12.017  0.00  0.00    +0.000 A 
BRANCH  15  21
ATOM     21  C   UNL     1      48.511   6.631  13.575  0.00  0.00    +0.000 C 
BRANCH  21  22
ATOM     22  C   UNL     1      49.125   7.712  12.678  0.00  0.00    +0.000 C 
BRANCH  22  23
ATOM     23  N   UNL     1      50.572   7.524  12.551  0.00  0.00    +0.000 NA
ATOM     24  H   UNL     1      50.921   7.032  13.372  0.00  0.00    +0.000 HD
ATOM     25  H   UNL     1      51.035   8.431  12.545  0.00  0.00    +0.000 HD
ENDBRANCH  22  23
ENDBRANCH  21  22
ENDBRANCH  15  21
ENDBRANCH  14  18
ENDBRANCH   1  14
TORSDOF 7
ENDMDL
MODEL 6
REMARK VINA RESULT:    -7.270      1.896      2.365
REMARK INTER + INTRA:         -10.825
REMARK INTER:                 -10.593
REMARK INTRA:                  -0.231
REMARK UNBOUND:                -0.793
REMARK  Name = 
REMARK  7 active torsions:
REMARK  status: ('A' for Active; 'I' for Inactive)
REMARK    1  A    between atoms: N_1  and  C_2
REMARK    2  A    between atoms: C_2  and  C_3
REMARK    3  A    between atoms: C_3  and  C_4
REMARK    4  A    between atoms: C_7  and  C_8
REMARK    5  A    between atoms: C_8  and  O_9
REMARK    6  A    between atoms: O_9  and  C_10
REMARK    7  A    between atoms: C_13  and  C_14
REMARK                            x       y       z     vdW  Elec       q    Type
REMARK                         _______ _______ _______ _____ _____    ______ ____
ROOT
ATOM      1  O   UNL     1      44.221   4.913  10.151  0.00  0.00    +0.000 OA
ENDROOT
BRANCH   1   2
ATOM      2  C   UNL     1      45.034   4.230   9.286  0.00  0.00    +0.000 A 
ATOM      3  C   UNL     1      45.950   4.801   8.399  0.00  0.00    +0.000 A 
ATOM      4  C   UNL     1      46.724   3.988   7.560  0.00  0.00    +0.000 A 
ATOM      5  C   UNL     1      46.596   2.593   7.597  0.00  0.00    +0.000 A 
ATOM      6  C   UNL     1      45.679   2.034   8.488  0.00  0.00    +0.000 A 
ATOM      7  F   UNL     1      45.514   0.703   8.568  0.00  0.00    +0.000 F 
ATOM      8  C   UNL     1      44.905   2.841   9.324  0.00  0.00    +0.000 A 
BRANCH   5   9
ATOM      9  C   UNL     1      47.445   1.786   6.682  0.00  0.00    +0.000 C 
ATOM     10  N   UNL     1      48.547   2.374   6.133  0.00  0.00    +0.000 N 
ATOM     11  O   UNL     1      47.169   0.621   6.421  0.00  0.00    +0.000 OA
ATOM     12  H   UNL     1      48.814   3.335   6.318  0.00  0.00    +0.000 HD
ATOM     13  H   UNL     1      49.122   1.821   5.512  0.00  0.00    +0.000 HD
ENDBRANCH   5   9
ENDBRANCH   1   2
BRANCH   1  14
ATOM     14  C   UNL     1      44.827   5.961  10.908  0.00  0.00    +0.000 C 
BRANCH  14  18
ATOM     15  C   UNL     1      46.916   4.285  14.316  0.00  0.00    +0.000 A 
ATOM     16  C   UNL     1      45.946   3.536  13.636  0.00  0.00    +0.000 A 
ATOM     17  C   UNL     1      45.261   4.083  12.546  0.00  0.00    +0.000 A 
ATOM     18  C   UNL     1      45.544   5.382  12.104  0.00  0.00    +0.000 A 
ATOM     19  C   UNL     1      46.507   6.132  12.790  0.00  0.00    +0.000 A 
ATOM     20  C   UNL     1      47.192   5.586  13.880  0.00  0.00    +0.000 A 
BRANCH  15  21
ATOM     21  C   UNL     1      47.643   3.700  15.504  0.00  0.00    +0.000 C 
BRANCH  21  22
ATOM     22  C   UNL     1      47.066   4.174  16.843  0.00  0.00    +0.000 C 
BRANCH  22  23
ATOM     23  N   UNL     1      46.666   3.034  17.671  0.00  0.00    +0.000 NA
ATOM     24  H   UNL     1      47.475   2.436  17.835  0.00  0.00    +0.000 HD
ATOM     25  H   UNL     1      45.990   2.465  17.164  0.00  0.00    +0.000 HD
ENDBRANCH  22  23
ENDBRANCH  21  22
ENDBRANCH  15  21
ENDBRANCH  14  18
ENDBRANCH   1  14
TORSDOF 7
ENDMDL
MODEL 7
REMARK VINA RESULT:    -6.466      3.408      7.273
REMARK INTER + INTRA:          -9.716
REMARK INTER:                  -9.384
REMARK INTRA:                  -0.333
REMARK UNBOUND:                -0.793
REMARK  Name = 
REMARK  7 active torsions:
REMARK  status: ('A' for Active; 'I' for Inactive)
REMARK    1  A    between atoms: N_1  and  C_2
REMARK    2  A    between atoms: C_2  and  C_3
REMARK    3  A    between atoms: C_3  and  C_4
REMARK    4  A    between atoms: C_7  and  C_8
REMARK    5  A    between atoms: C_8  and  O_9
REMARK    6  A    between atoms: O_9  and  C_10
REMARK    7  A    between atoms: C_13  and  C_14
REMARK                            x       y       z     vdW  Elec       q    Type
REMARK                         _______ _______ _______ _____ _____    ______ ____
ROOT
ATOM      1  O   UNL     1      45.460   5.105  12.487  0.00  0.00    +0.000 OA
ENDROOT
BRANCH   1   2
ATOM      2  C   UNL     1      46.065   6.331  12.393  0.00  0.00    +0.000 A 
ATOM      3  C   UNL     1      47.415   6.559  12.122  0.00  0.00    +0.000 A 
ATOM      4  C   UNL     1      47.912   7.868  12.054  0.00  0.00    +0.000 A 
ATOM      5  C   UNL     1      47.066   8.966  12.254  0.00  0.00    +0.000 A 
ATOM      6  C   UNL     1      45.718   8.726  12.523  0.00  0.00    +0.000 A 
ATOM      7  F   UNL     1      44.859   9.740  12.722  0.00  0.00    +0.000 F 
ATOM      8  C   UNL     1      45.219   7.423  12.593  0.00  0.00    +0.000 A 
BRANCH   5   9
ATOM      9  C   UNL     1      47.653  10.329  12.170  0.00  0.00    +0.000 C 
ATOM     10  N   UNL     1      49.009  10.446  12.079  0.00  0.00    +0.000 N 
ATOM     11  O   UNL     1      46.945  11.329  12.183  0.00  0.00    +0.000 OA
ATOM     12  H   UNL     1      49.635   9.649  12.066  0.00  0.00    +0.000 HD
ATOM     13  H   UNL     1      49.404  11.375  12.021  0.00  0.00    +0.000 HD
ENDBRANCH   5   9
ENDBRANCH   1   2
BRANCH   1  14
ATOM     14  C   UNL     1      44.390   4.846  11.580  0.00  0.00    +0.000 C 
BRANCH  14  18
ATOM     15  C   UNL     1      45.912   3.148   7.893  0.00  0.00    +0.000 A 
ATOM     16  C   UNL     1      45.322   2.329   8.865  0.00  0.00    +0.000 A 
ATOM     17  C   UNL     1      44.846   2.875  10.061  0.00  0.00    +0.000 A 
ATOM     18  C   UNL     1      44.933   4.252  10.302  0.00  0.00    +0.000 A 
ATOM     19  C   UNL     1      45.530   5.068   9.333  0.00  0.00    +0.000 A 
ATOM     20  C   UNL     1      46.007   4.524   8.137  0.00  0.00    +0.000 A 
BRANCH  15  21
ATOM     21  C   UNL     1      46.442   2.556   6.608  0.00  0.00    +0.000 C 
BRANCH  21  22
ATOM     22  C   UNL     1      47.765   1.808   6.804  0.00  0.00    +0.000 C 
BRANCH  22  23
ATOM     23  N   UNL     1      48.566   1.835   5.579  0.00  0.00    +0.000 NA
ATOM     24  H   UNL     1      49.401   1.264   5.708  0.00  0.00    +0.000 HD
ATOM     25  H   UNL     1      48.896   2.784   5.407  0.00  0.00    +0.000 HD
ENDBRANCH  22  23
ENDBRANCH  21  22
ENDBRANCH  15  21
ENDBRANCH  14  18
ENDBRANCH   1  14
TORSDOF 7
ENDMDL
MODEL 8
REMARK VINA RESULT:    -6.025      4.155      7.974
REMARK INTER + INTRA:          -9.108
REMARK INTER:                  -8.609
REMARK INTRA:                  -0.498
REMARK UNBOUND:                -0.793
REMARK  Name = 
REMARK  7 active torsions:
REMARK  status: ('A' for Active; 'I' for Inactive)
REMARK    1  A    between atoms: N_1  and  C_2
REMARK    2  A    between atoms: C_2  and  C_3
REMARK    3  A    between atoms: C_3  and  C_4
REMARK    4  A    between atoms: C_7  and  C_8
REMARK    5  A    between atoms: C_8  and  O_9
REMARK    6  A    between atoms: O_9  and  C_10
REMARK    7  A    between atoms: C_13  and  C_14
REMARK                            x       y       z     vdW  Elec       q    Type
REMARK                         _______ _______ _______ _____ _____    ______ ____
ROOT
ATOM      1  O   UNL     1      47.159   5.869  13.494  0.00  0.00    +0.000 OA
ENDROOT
BRANCH   1   2
ATOM      2  C   UNL     1      47.654   5.574  14.737  0.00  0.00    +0.000 A 
ATOM      3  C   UNL     1      48.609   6.316  15.435  0.00  0.00    +0.000 A 
ATOM      4  C   UNL     1      49.036   5.905  16.705  0.00  0.00    +0.000 A 
ATOM      5  C   UNL     1      48.513   4.748  17.296  0.00  0.00    +0.000 A 
ATOM      6  C   UNL     1      47.558   4.015  16.590  0.00  0.00    +0.000 A 
ATOM      7  F   UNL     1      47.020   2.897  17.107  0.00  0.00    +0.000 F 
ATOM      8  C   UNL     1      47.131   4.421  15.323  0.00  0.00    +0.000 A 
BRANCH   5   9
ATOM      9  C   UNL     1      49.007   4.363  18.644  0.00  0.00    +0.000 C 
ATOM     10  N   UNL     1      50.157   3.635  18.730  0.00  0.00    +0.000 N 
ATOM     11  O   UNL     1      48.401   4.687  19.659  0.00  0.00    +0.000 OA
ATOM     12  H   UNL     1      50.691   3.343  17.919  0.00  0.00    +0.000 HD
ATOM     13  H   UNL     1      50.489   3.377  19.650  0.00  0.00    +0.000 HD
ENDBRANCH   5   9
ENDBRANCH   1   2
BRANCH   1  14
ATOM     14  C   UNL     1      45.767   5.631  13.285  0.00  0.00    +0.000 C 
BRANCH  14  18
ATOM     15  C   UNL     1      45.090   4.036   9.312  0.00  0.00    +0.000 A 
ATOM     16  C   UNL     1      44.815   3.262  10.447  0.00  0.00    +0.000 A 
ATOM     17  C   UNL     1      45.049   3.771  11.729  0.00  0.00    +0.000 A 
ATOM     18  C   UNL     1      45.545   5.070  11.901  0.00  0.00    +0.000 A 
ATOM     19  C   UNL     1      45.827   5.839  10.765  0.00  0.00    +0.000 A 
ATOM     20  C   UNL     1      45.594   5.331   9.483  0.00  0.00    +0.000 A 
BRANCH  15  21
ATOM     21  C   UNL     1      44.854   3.479   7.927  0.00  0.00    +0.000 C 
BRANCH  21  22
ATOM     22  C   UNL     1      46.140   2.973   7.266  0.00  0.00    +0.000 C 
BRANCH  22  23
ATOM     23  N   UNL     1      46.794   4.042   6.508  0.00  0.00    +0.000 NA
ATOM     24  H   UNL     1      47.784   4.070   6.750  0.00  0.00    +0.000 HD
ATOM     25  H   UNL     1      46.409   4.943   6.788  0.00  0.00    +0.000 HD
ENDBRANCH  22  23
ENDBRANCH  21  22
ENDBRANCH  15  21
ENDBRANCH  14  18
ENDBRANCH   1  14
TORSDOF 7
ENDMDL
MODEL 9
REMARK VINA RESULT:    -5.806      4.858      8.619
REMARK INTER + INTRA:          -8.806
REMARK INTER:                  -8.365
REMARK INTRA:                  -0.441
REMARK UNBOUND:                -0.793
REMARK  Name = 
REMARK  7 active torsions:
REMARK  status: ('A' for Active; 'I' for Inactive)
REMARK    1  A    between atoms: N_1  and  C_2
REMARK    2  A    between atoms: C_2  and  C_3
REMARK    3  A    between atoms: C_3  and  C_4
REMARK    4  A    between atoms: C_7  and  C_8
REMARK    5  A    between atoms: C_8  and  O_9
REMARK    6  A    between atoms: O_9  and  C_10
REMARK    7  A    between atoms: C_13  and  C_14
REMARK                            x       y       z     vdW  Elec       q    Type
REMARK                         _______ _______ _______ _____ _____    ______ ____
ROOT
ATOM      1  O   UNL     1      47.325   4.378  14.318  0.00  0.00    +0.000 OA
ENDROOT
BRANCH   1   2
ATOM      2  C   UNL     1      47.718   4.357  15.630  0.00  0.00    +0.000 A 
ATOM      3  C   UNL     1      47.539   3.297  16.522  0.00  0.00    +0.000 A 
ATOM      4  C   UNL     1      47.986   3.403  17.846  0.00  0.00    +0.000 A 
ATOM      5  C   UNL     1      48.620   4.567  18.297  0.00  0.00    +0.000 A 
ATOM      6  C   UNL     1      48.795   5.619  17.397  0.00  0.00    +0.000 A 
ATOM      7  F   UNL     1      49.397   6.760  17.772  0.00  0.00    +0.000 F 
ATOM      8  C   UNL     1      48.349   5.519  16.077  0.00  0.00    +0.000 A 
BRANCH   5   9
ATOM      9  C   UNL     1      49.071   4.618  19.713  0.00  0.00    +0.000 C 
ATOM     10  N   UNL     1      50.398   4.447  19.977  0.00  0.00    +0.000 N 
ATOM     11  O   UNL     1      48.276   4.806  20.626  0.00  0.00    +0.000 OA
ATOM     12  H   UNL     1      51.092   4.287  19.254  0.00  0.00    +0.000 HD
ATOM     13  H   UNL     1      50.701   4.483  20.941  0.00  0.00    +0.000 HD
ENDBRANCH   5   9
ENDBRANCH   1   2
BRANCH   1  14
ATOM     14  C   UNL     1      45.983   4.788  14.056  0.00  0.00    +0.000 C 
BRANCH  14  18
ATOM     15  C   UNL     1      45.108   4.225   9.848  0.00  0.00    +0.000 A 
ATOM     16  C   UNL     1      45.640   5.436  10.310  0.00  0.00    +0.000 A 
ATOM     17  C   UNL     1      45.907   5.623  11.670  0.00  0.00    +0.000 A 
ATOM     18  C   UNL     1      45.665   4.597  12.592  0.00  0.00    +0.000 A 
ATOM     19  C   UNL     1      45.125   3.390  12.131  0.00  0.00    +0.000 A 
ATOM     20  C   UNL     1      44.857   3.202  10.772  0.00  0.00    +0.000 A 
BRANCH  15  21
ATOM     21  C   UNL     1      44.802   4.029   8.382  0.00  0.00    +0.000 C 
BRANCH  21  22
ATOM     22  C   UNL     1      45.946   3.344   7.625  0.00  0.00    +0.000 C 
BRANCH  22  23
ATOM     23  N   UNL     1      46.817   4.334   6.989  0.00  0.00    +0.000 NA
ATOM     24  H   UNL     1      47.003   4.051   6.028  0.00  0.00    +0.000 HD
ATOM     25  H   UNL     1      47.721   4.347   7.460  0.00  0.00    +0.000 HD
ENDBRANCH  22  23
ENDBRANCH  21  22
ENDBRANCH  15  21
ENDBRANCH  14  18
ENDBRANCH   1  14
TORSDOF 7
ENDMDL
