MODEL 1
REMARK VINA RESULT:    -7.807      0.000      0.000
REMARK INTER + INTRA:         -10.819
REMARK INTER:                 -10.317
REMARK INTRA:                  -0.502
REMARK UNBOUND:                -0.502
REMARK  Name = 
REMARK  6 active torsions:
REMARK  status: ('A' for Active; 'I' for Inactive)
REMARK    1  A    between atoms: C_2  and  C_3
REMARK    2  A    between atoms: C_6  and  N_7
REMARK    3  A    between atoms: N_7  and  C_8
REMARK    4  A    between atoms: C_8  and  C_9
REMARK    5  A    between atoms: C_17  and  C_18
REMARK    6  A    between atoms: C_18  and  O_19
REMARK                            x       y       z     vdW  Elec       q    Type
REMARK                         _______ _______ _______ _____ _____    ______ ____
ROOT
ATOM      1  C   UNL     1      45.359   5.177  11.929  0.00  0.00    +0.000 A 
ATOM      2  C   UNL     1      45.500   4.056  12.743  0.00  0.00    +0.000 A 
ATOM      3  C   UNL     1      46.571   4.010  13.618  0.00  0.00    +0.000 A 
ATOM      4  N   UNL     1      47.495   4.988  13.732  0.00  0.00    +0.000 NA
ATOM      5  C   UNL     1      47.382   6.070  12.937  0.00  0.00    +0.000 A 
ATOM      6  N   UNL     1      48.255   7.155  13.099  0.00  0.00    +0.000 N 
ATOM      7  C   UNL     1      48.932   7.183  14.401  0.00  0.00    +0.000 C 
ATOM      8  C   UNL     1      49.468   8.601  14.612  0.00  0.00    +0.000 C 
ATOM      9  C   UNL     1      50.400   9.051  13.470  0.00  0.00    +0.000 C 
ATOM     10  C   UNL     1      49.749   8.785  12.099  0.00  0.00    +0.000 C 
ATOM     11  C   UNL     1      49.168   7.371  11.973  0.00  0.00    +0.000 C 
ATOM     12  C   UNL     1      46.333   6.182  12.017  0.00  0.00    +0.000 A 
ENDROOT
BRANCH   1  13
ATOM     13  C   UNL     1      44.175   5.313  11.005  0.00  0.00    +0.000 C 
BRANCH  13  14
ATOM     14  N   UNL     1      43.880   4.031  10.386  0.00  0.00    +0.000 N 
ATOM     15  H   UNL     1      43.502   3.340  11.030  0.00  0.00    +0.000 HD
BRANCH  14  19
ATOM     16  C   UNL     1      46.619   2.521   7.547  0.00  0.00    +0.000 A 
ATOM     17  C   UNL     1      45.971   1.640   8.412  0.00  0.00    +0.000 A 
ATOM     18  C   UNL     1      45.046   2.119   9.349  0.00  0.00    +0.000 A 
ATOM     19  C   UNL     1      44.721   3.480   9.421  0.00  0.00    +0.000 A 
ATOM     20  C   UNL     1      45.391   4.351   8.550  0.00  0.00    +0.000 A 
ATOM     21  C   UNL     1      46.330   3.884   7.622  0.00  0.00    +0.000 A 
BRANCH  16  23
ATOM     22  N   UNL     1      48.353   1.635   5.834  0.00  0.00    +0.000 NA
ATOM     23  C   UNL     1      47.578   2.033   6.599  0.00  0.00    +0.000 C 
ENDBRANCH  16  23
ENDBRANCH  14  19
ENDBRANCH  13  14
ENDBRANCH   1  13
BRANCH   9  24
ATOM     24  C   UNL     1      51.786   8.402  13.566  0.00  0.00    +0.000 C 
BRANCH  24  25
ATOM     25  O   UNL     1      52.282   8.086  12.271  0.00  0.00    +0.000 OA
ATOM     26  H   UNL     1      53.249   8.012  12.334  0.00  0.00    +0.000 HD
ENDBRANCH  24  25
ENDBRANCH   9  24
TORSDOF 6
ENDMDL
MODEL 2
REMARK VINA RESULT:    -7.227      1.355      2.108
REMARK INTER + INTRA:         -10.052
REMARK INTER:                  -9.413
REMARK INTRA:                  -0.639
REMARK UNBOUND:                -0.502
REMARK  Name = 
REMARK  6 active torsions:
REMARK  status: ('A' for Active; 'I' for Inactive)
REMARK    1  A    between atoms: C_2  and  C_3
REMARK    2  A    between atoms: C_6  and  N_7
REMARK    3  A    between atoms: N_7  and  C_8
REMARK    4  A    between atoms: C_8  and  C_9
REMARK    5  A    between atoms: C_17  and  C_18
REMARK    6  A    between atoms: C_18  and  O_19
REMARK                            x       y       z     vdW  Elec       q    Type
REMARK                         _______ _______ _______ _____ _____    ______ ____
ROOT
ATOM      1  C   UNL     1      44.810   5.695  11.791  0.00  0.00    +0.000 A 
ATOM      2  C   UNL     1      43.986   6.746  11.394  0.00  0.00    +0.000 A 
ATOM      3  C   UNL     1      44.497   8.030  11.433  0.00  0.00    +0.000 A 
ATOM      4  N   UNL     1      45.749   8.334  11.836  0.00  0.00    +0.000 NA
ATOM      5  C   UNL     1      46.550   7.329  12.241  0.00  0.00    +0.000 A 
ATOM      6  N   UNL     1      47.891   7.586  12.563  0.00  0.00    +0.000 N 
ATOM      7  C   UNL     1      48.401   8.849  12.016  0.00  0.00    +0.000 C 
ATOM      8  C   UNL     1      49.930   8.781  12.046  0.00  0.00    +0.000 C 
ATOM      9  C   UNL     1      50.476   8.504  13.460  0.00  0.00    +0.000 C 
ATOM     10  C   UNL     1      49.747   7.309  14.102  0.00  0.00    +0.000 C 
ATOM     11  C   UNL     1      48.221   7.400  13.979  0.00  0.00    +0.000 C 
ATOM     12  C   UNL     1      46.100   6.004  12.244  0.00  0.00    +0.000 A 
ENDROOT
BRANCH   1  13
ATOM     13  C   UNL     1      44.330   4.267  11.707  0.00  0.00    +0.000 C 
BRANCH  13  14
ATOM     14  N   UNL     1      43.858   3.981  10.363  0.00  0.00    +0.000 N 
ATOM     15  H   UNL     1      42.916   3.597  10.330  0.00  0.00    +0.000 HD
BRANCH  14  19
ATOM     16  C   UNL     1      46.611   2.510   7.517  0.00  0.00    +0.000 A 
ATOM     17  C   UNL     1      45.979   1.620   8.384  0.00  0.00    +0.000 A 
ATOM     18  C   UNL     1      45.049   2.086   9.323  0.00  0.00    +0.000 A 
ATOM     19  C   UNL     1      44.704   3.442   9.396  0.00  0.00    +0.000 A 
ATOM     20  C   UNL     1      45.359   4.322   8.523  0.00  0.00    +0.000 A 
ATOM     21  C   UNL     1      46.303   3.869   7.593  0.00  0.00    +0.000 A 
BRANCH  16  23
ATOM     22  N   UNL     1      48.353   1.657   5.796  0.00  0.00    +0.000 NA
ATOM     23  C   UNL     1      47.574   2.037   6.566  0.00  0.00    +0.000 C 
ENDBRANCH  16  23
ENDBRANCH  14  19
ENDBRANCH  13  14
ENDBRANCH   1  13
BRANCH   9  24
ATOM     24  C   UNL     1      50.412   9.746  14.356  0.00  0.00    +0.000 C 
BRANCH  24  25
ATOM     25  O   UNL     1      50.916   9.453  15.654  0.00  0.00    +0.000 OA
ATOM     26  H   UNL     1      50.169   9.486  16.276  0.00  0.00    +0.000 HD
ENDBRANCH  24  25
ENDBRANCH   9  24
TORSDOF 6
ENDMDL
MODEL 3
REMARK VINA RESULT:    -6.644      2.995      4.158
REMARK INTER + INTRA:          -9.282
REMARK INTER:                  -8.799
REMARK INTRA:                  -0.484
REMARK UNBOUND:                -0.502
REMARK  Name = 
REMARK  6 active torsions:
REMARK  status: ('A' for Active; 'I' for Inactive)
REMARK    1  A    between atoms: C_2  and  C_3
REMARK    2  A    between atoms: C_6  and  N_7
REMARK    3  A    between atoms: N_7  and  C_8
REMARK    4  A    between atoms: C_8  and  C_9
REMARK    5  A    between atoms: C_17  and  C_18
REMARK    6  A    between atoms: C_18  and  O_19
REMARK                            x       y       z     vdW  Elec       q    Type
REMARK                         _______ _______ _______ _____ _____    ______ ____
ROOT
ATOM      1  C   UNL     1      45.374   4.281  12.595  0.00  0.00    +0.000 A 
ATOM      2  C   UNL     1      45.501   5.615  12.214  0.00  0.00    +0.000 A 
ATOM      3  C   UNL     1      46.264   6.453  13.006  0.00  0.00    +0.000 A 
ATOM      4  N   UNL     1      46.897   6.060  14.132  0.00  0.00    +0.000 NA
ATOM      5  C   UNL     1      46.766   4.776  14.523  0.00  0.00    +0.000 A 
ATOM      6  N   UNL     1      47.493   4.300  15.624  0.00  0.00    +0.000 N 
ATOM      7  C   UNL     1      48.648   5.134  15.978  0.00  0.00    +0.000 C 
ATOM      8  C   UNL     1      49.576   4.289  16.855  0.00  0.00    +0.000 C 
ATOM      9  C   UNL     1      48.860   3.737  18.103  0.00  0.00    +0.000 C 
ATOM     10  C   UNL     1      47.525   3.071  17.716  0.00  0.00    +0.000 C 
ATOM     11  C   UNL     1      46.671   3.936  16.781  0.00  0.00    +0.000 C 
ATOM     12  C   UNL     1      45.999   3.871  13.781  0.00  0.00    +0.000 A 
ENDROOT
BRANCH   1  13
ATOM     13  C   UNL     1      44.609   3.305  11.735  0.00  0.00    +0.000 C 
BRANCH  13  14
ATOM     14  N   UNL     1      44.430   3.854  10.401  0.00  0.00    +0.000 N 
ATOM     15  H   UNL     1      43.457   3.927  10.113  0.00  0.00    +0.000 HD
BRANCH  14  19
ATOM     16  C   UNL     1      46.842   2.672   7.140  0.00  0.00    +0.000 A 
ATOM     17  C   UNL     1      46.612   4.028   7.368  0.00  0.00    +0.000 A 
ATOM     18  C   UNL     1      45.830   4.441   8.455  0.00  0.00    +0.000 A 
ATOM     19  C   UNL     1      45.289   3.515   9.357  0.00  0.00    +0.000 A 
ATOM     20  C   UNL     1      45.522   2.156   9.104  0.00  0.00    +0.000 A 
ATOM     21  C   UNL     1      46.288   1.732   8.010  0.00  0.00    +0.000 A 
BRANCH  16  23
ATOM     22  N   UNL     1      48.262   1.905   5.111  0.00  0.00    +0.000 NA
ATOM     23  C   UNL     1      47.629   2.248   6.019  0.00  0.00    +0.000 C 
ENDBRANCH  16  23
ENDBRANCH  14  19
ENDBRANCH  13  14
ENDBRANCH   1  13
BRANCH   9  24
ATOM     24  C   UNL     1      48.658   4.812  19.176  0.00  0.00    +0.000 C 
BRANCH  24  25
ATOM     25  O   UNL     1      48.342   4.217  20.429  0.00  0.00    +0.000 OA
ATOM     26  H   UNL     1      48.758   3.338  20.452  0.00  0.00    +0.000 HD
ENDBRANCH  24  25
ENDBRANCH   9  24
TORSDOF 6
ENDMDL
MODEL 4
REMARK VINA RESULT:    -6.359      4.687      8.461
REMARK INTER + INTRA:          -8.906
REMARK INTER:                  -8.347
REMARK INTRA:                  -0.559
REMARK UNBOUND:                -0.502
REMARK  Name = 
REMARK  6 active torsions:
REMARK  status: ('A' for Active; 'I' for Inactive)
REMARK    1  A    between atoms: C_2  and  C_3
REMARK    2  A    between atoms: C_6  and  N_7
REMARK    3  A    between atoms: N_7  and  C_8
REMARK    4  A    between atoms: C_8  and  C_9
REMARK    5  A    between atoms: C_17  and  C_18
REMARK    6  A    between atoms: C_18  and  O_19
REMARK                            x       y       z     vdW  Elec       q    Type
REMARK                         _______ _______ _______ _____ _____    ______ ____
ROOT
ATOM      1  C   UNL     1      47.856   5.213  15.854  0.00  0.00    +0.000 A 
ATOM      2  C   UNL     1      48.642   6.239  15.335  0.00  0.00    +0.000 A 
ATOM      3  C   UNL     1      48.366   6.696  14.059  0.00  0.00    +0.000 A 
ATOM      4  N   UNL     1      47.380   6.206  13.278  0.00  0.00    +0.000 NA
ATOM      5  C   UNL     1      46.624   5.199  13.760  0.00  0.00    +0.000 A 
ATOM      6  N   UNL     1      45.521   4.736  13.027  0.00  0.00    +0.000 N 
ATOM      7  C   UNL     1      45.046   5.681  12.009  0.00  0.00    +0.000 C 
ATOM      8  C   UNL     1      43.623   5.267  11.625  0.00  0.00    +0.000 C 
ATOM      9  C   UNL     1      43.549   3.807  11.135  0.00  0.00    +0.000 C 
ATOM     10  C   UNL     1      44.271   2.866  12.118  0.00  0.00    +0.000 C 
ATOM     11  C   UNL     1      45.663   3.368  12.520  0.00  0.00    +0.000 C 
ATOM     12  C   UNL     1      46.851   4.674  15.037  0.00  0.00    +0.000 A 
ENDROOT
BRANCH   1  13
ATOM     13  C   UNL     1      48.067   4.720  17.263  0.00  0.00    +0.000 C 
BRANCH  13  14
ATOM     14  N   UNL     1      49.435   4.977  17.679  0.00  0.00    +0.000 N 
ATOM     15  H   UNL     1      49.823   5.843  17.310  0.00  0.00    +0.000 HD
BRANCH  14  19
ATOM     16  C   UNL     1      52.231   1.810  17.687  0.00  0.00    +0.000 A 
ATOM     17  C   UNL     1      52.633   3.081  18.094  0.00  0.00    +0.000 A 
ATOM     18  C   UNL     1      51.716   4.141  18.116  0.00  0.00    +0.000 A 
ATOM     19  C   UNL     1      50.373   3.950  17.765  0.00  0.00    +0.000 A 
ATOM     20  C   UNL     1      49.992   2.666  17.348  0.00  0.00    +0.000 A 
ATOM     21  C   UNL     1      50.904   1.605  17.306  0.00  0.00    +0.000 A 
BRANCH  16  23
ATOM     22  N   UNL     1      53.933  -0.146  17.622  0.00  0.00    +0.000 NA
ATOM     23  C   UNL     1      53.172   0.729  17.649  0.00  0.00    +0.000 C 
ENDBRANCH  16  23
ENDBRANCH  14  19
ENDBRANCH  13  14
ENDBRANCH   1  13
BRANCH   9  24
ATOM     24  C   UNL     1      44.090   3.649   9.709  0.00  0.00    +0.000 C 
BRANCH  24  25
ATOM     25  O   UNL     1      43.669   4.735   8.891  0.00  0.00    +0.000 OA
ATOM     26  H   UNL     1      42.727   4.605   8.688  0.00  0.00    +0.000 HD
ENDBRANCH  24  25
ENDBRANCH   9  24
TORSDOF 6
ENDMDL
MODEL 5
REMARK VINA RESULT:    -6.286      4.025      7.992
REMARK INTER + INTRA:          -8.808
REMARK INTER:                  -8.189
REMARK INTRA:                  -0.619
REMARK UNBOUND:                -0.502
REMARK  Name = 
REMARK  6 active torsions:
REMARK  status: ('A' for Active; 'I' for Inactive)
REMARK    1  A    between atoms: C_2  and  C_3
REMARK    2  A    between atoms: C_6  and  N_7
REMARK    3  A    between atoms: N_7  and  C_8
REMARK    4  A    between atoms: C_8  and  C_9
REMARK    5  A    between atoms: C_17  and  C_18
REMARK    6  A    between atoms: C_18  and  O_19
REMARK                            x       y       z     vdW  Elec       q    Type
REMARK                         _______ _______ _______ _____ _____    ______ ____
ROOT
ATOM      1  C   UNL     1      48.608   6.792  14.863  0.00  0.00    +0.000 A 
ATOM      2  C   UNL     1      49.474   7.400  13.957  0.00  0.00    +0.000 A 
ATOM      3  C   UNL     1      49.153   7.358  12.613  0.00  0.00    +0.000 A 
ATOM      4  N   UNL     1      48.048   6.760  12.119  0.00  0.00    +0.000 NA
ATOM      5  C   UNL     1      47.210   6.152  12.982  0.00  0.00    +0.000 A 
ATOM      6  N   UNL     1      45.998   5.615  12.524  0.00  0.00    +0.000 N 
ATOM      7  C   UNL     1      45.566   6.148  11.226  0.00  0.00    +0.000 C 
ATOM      8  C   UNL     1      44.073   5.842  11.077  0.00  0.00    +0.000 C 
ATOM      9  C   UNL     1      43.767   4.338  11.212  0.00  0.00    +0.000 C 
ATOM     10  C   UNL     1      44.440   3.756  12.470  0.00  0.00    +0.000 C 
ATOM     11  C   UNL     1      45.915   4.154  12.602  0.00  0.00    +0.000 C 
ATOM     12  C   UNL     1      47.475   6.140  14.356  0.00  0.00    +0.000 A 
ENDROOT
BRANCH   1  13
ATOM     13  C   UNL     1      48.872   6.863  16.346  0.00  0.00    +0.000 C 
BRANCH  13  14
ATOM     14  N   UNL     1      48.448   5.629  16.986  0.00  0.00    +0.000 N 
ATOM     15  H   UNL     1      47.877   5.770  17.816  0.00  0.00    +0.000 HD
BRANCH  14  19
ATOM     16  C   UNL     1      51.104   2.391  17.540  0.00  0.00    +0.000 A 
ATOM     17  C   UNL     1      49.780   2.140  17.182  0.00  0.00    +0.000 A 
ATOM     18  C   UNL     1      48.888   3.201  16.976  0.00  0.00    +0.000 A 
ATOM     19  C   UNL     1      49.304   4.534  17.089  0.00  0.00    +0.000 A 
ATOM     20  C   UNL     1      50.636   4.766  17.460  0.00  0.00    +0.000 A 
ATOM     21  C   UNL     1      51.531   3.712  17.685  0.00  0.00    +0.000 A 
BRANCH  16  23
ATOM     22  N   UNL     1      52.750   0.430  17.953  0.00  0.00    +0.000 NA
ATOM     23  C   UNL     1      52.013   1.306  17.767  0.00  0.00    +0.000 C 
ENDBRANCH  16  23
ENDBRANCH  14  19
ENDBRANCH  13  14
ENDBRANCH   1  13
BRANCH   9  24
ATOM     24  C   UNL     1      44.158   3.553   9.955  0.00  0.00    +0.000 C 
BRANCH  24  25
ATOM     25  O   UNL     1      43.941   4.338   8.788  0.00  0.00    +0.000 OA
ATOM     26  H   UNL     1      43.869   3.731   8.032  0.00  0.00    +0.000 HD
ENDBRANCH  24  25
ENDBRANCH   9  24
TORSDOF 6
ENDMDL
MODEL 6
REMARK VINA RESULT:    -6.144      1.467      1.842
REMARK INTER + INTRA:          -8.621
REMARK INTER:                  -8.057
REMARK INTRA:                  -0.564
REMARK UNBOUND:                -0.502
REMARK  Name = 
REMARK  6 active torsions:
REMARK  status: ('A' for Active; 'I' for Inactive)
REMARK    1  A    between atoms: C_2  and  C_3
REMARK    2  A    between atoms: C_6  and  N_7
REMARK    3  A    between atoms: N_7  and  C_8
REMARK    4  A    between atoms: C_8  and  C_9
REMARK    5  A    between atoms: C_17  and  C_18
REMARK    6  A    between atoms: C_18  and  O_19
REMARK                            x       y       z     vdW  Elec       q    Type
REMARK                         _______ _______ _______ _____ _____    ______ ____
ROOT
ATOM      1  C   UNL     1      45.806   5.871  12.915  0.00  0.00    +0.000 A 
ATOM      2  C   UNL     1      45.772   4.693  13.659  0.00  0.00    +0.000 A 
ATOM      3  C   UNL     1      46.797   4.456  14.557  0.00  0.00    +0.000 A 
ATOM      4  N   UNL     1      47.834   5.296  14.760  0.00  0.00    +0.000 NA
ATOM      5  C   UNL     1      47.888   6.430  14.034  0.00  0.00    +0.000 A 
ATOM      6  N   UNL     1      48.887   7.380  14.291  0.00  0.00    +0.000 N 
ATOM      7  C   UNL     1      49.515   7.241  15.611  0.00  0.00    +0.000 C 
ATOM      8  C   UNL     1      50.221   8.562  15.928  0.00  0.00    +0.000 C 
ATOM      9  C   UNL     1      51.243   8.954  14.843  0.00  0.00    +0.000 C 
ATOM     10  C   UNL     1      50.613   8.860  13.441  0.00  0.00    +0.000 C 
ATOM     11  C   UNL     1      49.861   7.544  13.207  0.00  0.00    +0.000 C 
ATOM     12  C   UNL     1      46.896   6.734  13.095  0.00  0.00    +0.000 A 
ENDROOT
BRANCH   1  13
ATOM     13  C   UNL     1      44.683   6.215  11.969  0.00  0.00    +0.000 C 
BRANCH  13  14
ATOM     14  N   UNL     1      44.208   5.013  11.304  0.00  0.00    +0.000 N 
ATOM     15  H   UNL     1      43.914   4.278  11.943  0.00  0.00    +0.000 HD
BRANCH  14  19
ATOM     16  C   UNL     1      45.849   3.492   7.721  0.00  0.00    +0.000 A 
ATOM     17  C   UNL     1      46.221   4.762   8.162  0.00  0.00    +0.000 A 
ATOM     18  C   UNL     1      45.702   5.277   9.357  0.00  0.00    +0.000 A 
ATOM     19  C   UNL     1      44.829   4.526  10.155  0.00  0.00    +0.000 A 
ATOM     20  C   UNL     1      44.458   3.256   9.689  0.00  0.00    +0.000 A 
ATOM     21  C   UNL     1      44.958   2.740   8.487  0.00  0.00    +0.000 A 
BRANCH  16  23
ATOM     22  N   UNL     1      46.790   2.550   5.496  0.00  0.00    +0.000 NA
ATOM     23  C   UNL     1      46.368   2.971   6.490  0.00  0.00    +0.000 C 
ENDBRANCH  16  23
ENDBRANCH  14  19
ENDBRANCH  13  14
ENDBRANCH   1  13
BRANCH   9  24
ATOM     24  C   UNL     1      52.530   8.127  14.936  0.00  0.00    +0.000 C 
BRANCH  24  25
ATOM     25  O   UNL     1      52.822   7.807  16.291  0.00  0.00    +0.000 OA
ATOM     26  H   UNL     1      53.758   8.018  16.450  0.00  0.00    +0.000 HD
ENDBRANCH  24  25
ENDBRANCH   9  24
TORSDOF 6
ENDMDL
MODEL 7
REMARK VINA RESULT:    -5.896      3.523      5.728
REMARK INTER + INTRA:          -8.293
REMARK INTER:                  -7.758
REMARK INTRA:                  -0.535
REMARK UNBOUND:                -0.502
REMARK  Name = 
REMARK  6 active torsions:
REMARK  status: ('A' for Active; 'I' for Inactive)
REMARK    1  A    between atoms: C_2  and  C_3
REMARK    2  A    between atoms: C_6  and  N_7
REMARK    3  A    between atoms: N_7  and  C_8
REMARK    4  A    between atoms: C_8  and  C_9
REMARK    5  A    between atoms: C_17  and  C_18
REMARK    6  A    between atoms: C_18  and  O_19
REMARK                            x       y       z     vdW  Elec       q    Type
REMARK                         _______ _______ _______ _____ _____    ______ ____
ROOT
ATOM      1  C   UNL     1      48.889   7.939  13.275  0.00  0.00    +0.000 A 
ATOM      2  C   UNL     1      49.684   9.032  13.613  0.00  0.00    +0.000 A 
ATOM      3  C   UNL     1      50.326   9.021  14.838  0.00  0.00    +0.000 A 
ATOM      4  N   UNL     1      50.230   8.015  15.733  0.00  0.00    +0.000 NA
ATOM      5  C   UNL     1      49.449   6.960  15.426  0.00  0.00    +0.000 A 
ATOM      6  N   UNL     1      49.407   5.846  16.278  0.00  0.00    +0.000 N 
ATOM      7  C   UNL     1      50.547   5.761  17.199  0.00  0.00    +0.000 C 
ATOM      8  C   UNL     1      50.613   4.322  17.719  0.00  0.00    +0.000 C 
ATOM      9  C   UNL     1      49.297   3.880  18.389  0.00  0.00    +0.000 C 
ATOM     10  C   UNL     1      48.091   4.205  17.486  0.00  0.00    +0.000 C 
ATOM     11  C   UNL     1      48.117   5.637  16.940  0.00  0.00    +0.000 C 
ATOM     12  C   UNL     1      48.756   6.905  14.212  0.00  0.00    +0.000 A 
ENDROOT
BRANCH   1  13
ATOM     13  C   UNL     1      48.217   7.865  11.926  0.00  0.00    +0.000 C 
BRANCH  13  14
ATOM     14  N   UNL     1      46.776   7.794  12.093  0.00  0.00    +0.000 N 
ATOM     15  H   UNL     1      46.420   8.366  12.856  0.00  0.00    +0.000 HD
BRANCH  14  19
ATOM     16  C   UNL     1      44.471   4.272  11.732  0.00  0.00    +0.000 A 
ATOM     17  C   UNL     1      45.107   4.795  10.607  0.00  0.00    +0.000 A 
ATOM     18  C   UNL     1      45.891   5.952  10.709  0.00  0.00    +0.000 A 
ATOM     19  C   UNL     1      46.085   6.593  11.939  0.00  0.00    +0.000 A 
ATOM     20  C   UNL     1      45.429   6.058  13.057  0.00  0.00    +0.000 A 
ATOM     21  C   UNL     1      44.629   4.912  12.962  0.00  0.00    +0.000 A 
BRANCH  16  23
ATOM     22  N   UNL     1      43.002   2.144  11.540  0.00  0.00    +0.000 NA
ATOM     23  C   UNL     1      43.657   3.097  11.625  0.00  0.00    +0.000 C 
ENDBRANCH  16  23
ENDBRANCH  14  19
ENDBRANCH  13  14
ENDBRANCH   1  13
BRANCH   9  24
ATOM     24  C   UNL     1      49.129   4.486  19.786  0.00  0.00    +0.000 C 
BRANCH  24  25
ATOM     25  O   UNL     1      48.396   3.604  20.629  0.00  0.00    +0.000 OA
ATOM     26  H   UNL     1      48.231   2.786  20.130  0.00  0.00    +0.000 HD
ENDBRANCH  24  25
ENDBRANCH   9  24
TORSDOF 6
ENDMDL
MODEL 8
REMARK VINA RESULT:    -5.675      4.138      8.748
REMARK INTER + INTRA:          -8.002
REMARK INTER:                  -7.366
REMARK INTRA:                  -0.636
REMARK UNBOUND:                -0.502
REMARK  Name = 
REMARK  6 active torsions:
REMARK  status: ('A' for Active; 'I' for Inactive)
REMARK    1  A    between atoms: C_2  and  C_3
REMARK    2  A    between atoms: C_6  and  N_7
REMARK    3  A    between atoms: N_7  and  C_8
REMARK    4  A    between atoms: C_8  and  C_9
REMARK    5  A    between atoms: C_17  and  C_18
REMARK    6  A    between atoms: C_18  and  O_19
REMARK                            x       y       z     vdW  Elec       q    Type
REMARK                         _______ _______ _______ _____ _____    ______ ____
ROOT
ATOM      1  C   UNL     1      47.285   9.034  13.004  0.00  0.00    +0.000 A 
ATOM      2  C   UNL     1      46.524   9.948  12.277  0.00  0.00    +0.000 A 
ATOM      3  C   UNL     1      45.338   9.513  11.714  0.00  0.00    +0.000 A 
ATOM      4  N   UNL     1      44.868   8.252  11.823  0.00  0.00    +0.000 NA
ATOM      5  C   UNL     1      45.603   7.353  12.507  0.00  0.00    +0.000 A 
ATOM      6  N   UNL     1      45.100   6.064  12.736  0.00  0.00    +0.000 N 
ATOM      7  C   UNL     1      43.644   5.957  12.578  0.00  0.00    +0.000 C 
ATOM      8  C   UNL     1      43.197   4.673  13.280  0.00  0.00    +0.000 C 
ATOM      9  C   UNL     1      43.927   3.427  12.742  0.00  0.00    +0.000 C 
ATOM     10  C   UNL     1      45.449   3.662  12.698  0.00  0.00    +0.000 C 
ATOM     11  C   UNL     1      45.831   4.997  12.046  0.00  0.00    +0.000 C 
ATOM     12  C   UNL     1      46.821   7.714  13.093  0.00  0.00    +0.000 A 
ENDROOT
BRANCH   1  13
ATOM     13  C   UNL     1      48.553   9.467  13.695  0.00  0.00    +0.000 C 
BRANCH  13  14
ATOM     14  N   UNL     1      48.249   9.955  15.030  0.00  0.00    +0.000 N 
ATOM     15  H   UNL     1      48.564  10.907  15.203  0.00  0.00    +0.000 HD
BRANCH  14  19
ATOM     16  C   UNL     1      48.325   7.473  18.447  0.00  0.00    +0.000 A 
ATOM     17  C   UNL     1      48.873   7.012  17.251  0.00  0.00    +0.000 A 
ATOM     18  C   UNL     1      48.874   7.826  16.111  0.00  0.00    +0.000 A 
ATOM     19  C   UNL     1      48.360   9.129  16.147  0.00  0.00    +0.000 A 
ATOM     20  C   UNL     1      47.804   9.571  17.356  0.00  0.00    +0.000 A 
ATOM     21  C   UNL     1      47.783   8.758  18.496  0.00  0.00    +0.000 A 
BRANCH  16  23
ATOM     22  N   UNL     1      48.298   5.960  20.553  0.00  0.00    +0.000 NA
ATOM     23  C   UNL     1      48.310   6.635  19.610  0.00  0.00    +0.000 C 
ENDBRANCH  16  23
ENDBRANCH  14  19
ENDBRANCH  13  14
ENDBRANCH   1  13
BRANCH   9  24
ATOM     24  C   UNL     1      43.389   2.988  11.375  0.00  0.00    +0.000 C 
BRANCH  24  25
ATOM     25  O   UNL     1      42.989   1.623  11.409  0.00  0.00    +0.000 OA
ATOM     26  H   UNL     1      43.777   1.080  11.237  0.00  0.00    +0.000 HD
ENDBRANCH  24  25
ENDBRANCH   9  24
TORSDOF 6
ENDMDL
MODEL 9
REMARK VINA RESULT:    -5.567      3.947      7.004
REMARK INTER + INTRA:          -7.859
REMARK INTER:                  -7.756
REMARK INTRA:                  -0.103
REMARK UNBOUND:                -0.502
REMARK  Name = 
REMARK  6 active torsions:
REMARK  status: ('A' for Active; 'I' for Inactive)
REMARK    1  A    between atoms: C_2  and  C_3
REMARK    2  A    between atoms: C_6  and  N_7
REMARK    3  A    between atoms: N_7  and  C_8
REMARK    4  A    between atoms: C_8  and  C_9
REMARK    5  A    between atoms: C_17  and  C_18
REMARK    6  A    between atoms: C_18  and  O_19
REMARK                            x       y       z     vdW  Elec       q    Type
REMARK                         _______ _______ _______ _____ _____    ______ ____
ROOT
ATOM      1  C   UNL     1      49.805   7.902  12.805  0.00  0.00    +0.000 A 
ATOM      2  C   UNL     1      50.171   7.714  14.136  0.00  0.00    +0.000 A 
ATOM      3  C   UNL     1      49.388   6.888  14.922  0.00  0.00    +0.000 A 
ATOM      4  N   UNL     1      48.283   6.250  14.480  0.00  0.00    +0.000 NA
ATOM      5  C   UNL     1      47.907   6.438  13.199  0.00  0.00    +0.000 A 
ATOM      6  N   UNL     1      46.831   5.710  12.670  0.00  0.00    +0.000 N 
ATOM      7  C   UNL     1      46.495   4.504  13.437  0.00  0.00    +0.000 C 
ATOM      8  C   UNL     1      45.654   3.601  12.532  0.00  0.00    +0.000 C 
ATOM      9  C   UNL     1      44.395   4.314  12.000  0.00  0.00    +0.000 C 
ATOM     10  C   UNL     1      44.757   5.691  11.411  0.00  0.00    +0.000 C 
ATOM     11  C   UNL     1      45.658   6.521  12.333  0.00  0.00    +0.000 C 
ATOM     12  C   UNL     1      48.641   7.270  12.346  0.00  0.00    +0.000 A 
ENDROOT
BRANCH   1  13
ATOM     13  C   UNL     1      50.658   8.738  11.884  0.00  0.00    +0.000 C 
BRANCH  13  14
ATOM     14  N   UNL     1      51.905   8.048  11.599  0.00  0.00    +0.000 N 
ATOM     15  H   UNL     1      52.631   8.205  12.295  0.00  0.00    +0.000 HD
BRANCH  14  19
ATOM     16  C   UNL     1      53.204   7.601   7.604  0.00  0.00    +0.000 A 
ATOM     17  C   UNL     1      53.016   8.880   8.126  0.00  0.00    +0.000 A 
ATOM     18  C   UNL     1      52.603   9.050   9.455  0.00  0.00    +0.000 A 
ATOM     19  C   UNL     1      52.401   7.952  10.300  0.00  0.00    +0.000 A 
ATOM     20  C   UNL     1      52.585   6.673   9.754  0.00  0.00    +0.000 A 
ATOM     21  C   UNL     1      52.981   6.493   8.423  0.00  0.00    +0.000 A 
BRANCH  16  23
ATOM     22  N   UNL     1      53.938   7.284   5.138  0.00  0.00    +0.000 NA
ATOM     23  C   UNL     1      53.612   7.426   6.241  0.00  0.00    +0.000 C 
ENDBRANCH  16  23
ENDBRANCH  14  19
ENDBRANCH  13  14
ENDBRANCH   1  13
BRANCH   9  24
ATOM     24  C   UNL     1      43.303   4.432  13.069  0.00  0.00    +0.000 C 
BRANCH  24  25
ATOM     25  O   UNL     1      42.962   5.796  13.287  0.00  0.00    +0.000 OA
ATOM     26  H   UNL     1      43.431   6.095  14.085  0.00  0.00    +0.000 HD
ENDBRANCH  24  25
ENDBRANCH   9  24
TORSDOF 6
ENDMDL
