MODEL 1
REMARK VINA RESULT:    -7.673      0.000      0.000
REMARK INTER + INTRA:         -11.339
REMARK INTER:                 -10.589
REMARK INTRA:                  -0.750
REMARK UNBOUND:                -0.750
REMARK  Name = 
REMARK  7 active torsions:
REMARK  status: ('A' for Active; 'I' for Inactive)
REMARK    1  A    between atoms: N_1  and  C_2
REMARK    2  A    between atoms: C_2  and  C_3
REMARK    3  A    between atoms: C_7  and  O_8
REMARK    4  A    between atoms: O_8  and  C_9
REMARK    5  A    between atoms: C_9  and  C_10
REMARK    6  A    between atoms: C_10  and  C_11
REMARK    7  A    between atoms: C_15  and  C_16
REMARK                            x       y       z     vdW  Elec       q    Type
REMARK                         _______ _______ _______ _____ _____    ______ ____
ROOT
ATOM      1  C   UNL     1      43.451   3.759  10.996  0.00  0.00    +0.000 C 
ENDROOT
BRANCH   1   2
ATOM      2  O   UNL     1      44.040   2.650  10.308  0.00  0.00    +0.000 OA
BRANCH   2   7
ATOM      3  C   UNL     1      46.527   2.037   7.708  0.00  0.00    +0.000 A 
ATOM      4  C   UNL     1      46.775   3.333   7.237  0.00  0.00    +0.000 A 
ATOM      5  C   UNL     1      46.110   4.426   7.791  0.00  0.00    +0.000 A 
ATOM      6  C   UNL     1      45.184   4.238   8.817  0.00  0.00    +0.000 A 
ATOM      7  C   UNL     1      44.920   2.956   9.302  0.00  0.00    +0.000 A 
ATOM      8  C   UNL     1      45.595   1.863   8.745  0.00  0.00    +0.000 A 
BRANCH   3   9
ATOM      9  C   UNL     1      47.219   0.855   7.078  0.00  0.00    +0.000 C 
BRANCH   9  10
ATOM     10  N   UNL     1      46.813  -0.404   7.692  0.00  0.00    +0.000 NA
ATOM     11  H   UNL     1      45.913  -0.278   8.150  0.00  0.00    +0.000 HD
ATOM     12  H   UNL     1      47.481  -0.641   8.425  0.00  0.00    +0.000 HD
ENDBRANCH   9  10
ENDBRANCH   3   9
ENDBRANCH   2   7
ENDBRANCH   1   2
BRANCH   1  13
ATOM     13  C   UNL     1      43.735   3.658  12.492  0.00  0.00    +0.000 C 
BRANCH  13  14
ATOM     14  C   UNL     1      44.974   4.416  12.890  0.00  0.00    +0.000 A 
ATOM     15  C   UNL     1      45.441   5.462  12.100  0.00  0.00    +0.000 A 
ATOM     16  C   UNL     1      46.587   6.141  12.494  0.00  0.00    +0.000 A 
ATOM     17  C   UNL     1      47.242   5.755  13.659  0.00  0.00    +0.000 A 
ATOM     18  C   UNL     1      46.730   4.695  14.409  0.00  0.00    +0.000 A 
ATOM     19  N   UNL     1      45.601   4.028  14.027  0.00  0.00    +0.000 NA
BRANCH  18  20
ATOM     20  C   UNL     1      47.439   4.267  15.688  0.00  0.00    +0.000 C 
ATOM     21  F   UNL     1      46.647   4.356  16.801  0.00  0.00    +0.000 F 
ATOM     22  F   UNL     1      47.866   2.973  15.657  0.00  0.00    +0.000 F 
ATOM     23  F   UNL     1      48.541   5.021  15.971  0.00  0.00    +0.000 F 
ENDBRANCH  18  20
ENDBRANCH  13  14
ENDBRANCH   1  13
TORSDOF 7
ENDMDL
MODEL 2
REMARK VINA RESULT:    -7.553      3.905      6.648
REMARK INTER + INTRA:         -11.173
REMARK INTER:                 -10.287
REMARK INTRA:                  -0.886
REMARK UNBOUND:                -0.750
REMARK  Name = 
REMARK  7 active torsions:
REMARK  status: ('A' for Active; 'I' for Inactive)
REMARK    1  A    between atoms: N_1  and  C_2
REMARK    2  A    between atoms: C_2  and  C_3
REMARK    3  A    between atoms: C_7  and  O_8
REMARK    4  A    between atoms: O_8  and  C_9
REMARK    5  A    between atoms: C_9  and  C_10
REMARK    6  A    between atoms: C_10  and  C_11
REMARK    7  A    between atoms: C_15  and  C_16
REMARK                            x       y       z     vdW  Elec       q    Type
REMARK                         _______ _______ _______ _____ _____    ______ ____
ROOT
ATOM      1  C   UNL     1      43.390   3.602  11.767  0.00  0.00    +0.000 C 
ENDROOT
BRANCH   1   2
ATOM      2  O   UNL     1      44.128   3.658  12.994  0.00  0.00    +0.000 OA
BRANCH   2   7
ATOM      3  C   UNL     1      45.607   6.978  12.664  0.00  0.00    +0.000 A 
ATOM      4  C   UNL     1      46.907   6.761  13.141  0.00  0.00    +0.000 A 
ATOM      5  C   UNL     1      47.299   5.496  13.576  0.00  0.00    +0.000 A 
ATOM      6  C   UNL     1      46.397   4.433  13.546  0.00  0.00    +0.000 A 
ATOM      7  C   UNL     1      45.097   4.625  13.076  0.00  0.00    +0.000 A 
ATOM      8  C   UNL     1      44.711   5.896  12.636  0.00  0.00    +0.000 A 
BRANCH   3   9
ATOM      9  C   UNL     1      45.177   8.357  12.232  0.00  0.00    +0.000 C 
BRANCH   9  10
ATOM     10  N   UNL     1      44.121   8.308  11.227  0.00  0.00    +0.000 NA
ATOM     11  H   UNL     1      44.037   7.355  10.877  0.00  0.00    +0.000 HD
ATOM     12  H   UNL     1      44.398   8.886  10.434  0.00  0.00    +0.000 HD
ENDBRANCH   9  10
ENDBRANCH   3   9
ENDBRANCH   2   7
ENDBRANCH   1   2
BRANCH   1  13
ATOM     13  C   UNL     1      43.872   2.429  10.919  0.00  0.00    +0.000 C 
BRANCH  13  14
ATOM     14  C   UNL     1      44.730   2.876   9.764  0.00  0.00    +0.000 A 
ATOM     15  C   UNL     1      44.792   4.221   9.415  0.00  0.00    +0.000 A 
ATOM     16  C   UNL     1      45.591   4.601   8.345  0.00  0.00    +0.000 A 
ATOM     17  C   UNL     1      46.300   3.632   7.645  0.00  0.00    +0.000 A 
ATOM     18  C   UNL     1      46.197   2.296   8.037  0.00  0.00    +0.000 A 
ATOM     19  N   UNL     1      45.415   1.919   9.093  0.00  0.00    +0.000 NA
BRANCH  18  20
ATOM     20  C   UNL     1      46.972   1.225   7.278  0.00  0.00    +0.000 C 
ATOM     21  F   UNL     1      46.758  -0.039   7.759  0.00  0.00    +0.000 F 
ATOM     22  F   UNL     1      46.648   1.165   5.956  0.00  0.00    +0.000 F 
ATOM     23  F   UNL     1      48.324   1.404   7.328  0.00  0.00    +0.000 F 
ENDBRANCH  18  20
ENDBRANCH  13  14
ENDBRANCH   1  13
TORSDOF 7
ENDMDL
MODEL 3
REMARK VINA RESULT:    -7.535      2.497      2.978
REMARK INTER + INTRA:         -11.149
REMARK INTER:                 -10.363
REMARK INTRA:                  -0.786
REMARK UNBOUND:                -0.750
REMARK  Name = 
REMARK  7 active torsions:
REMARK  status: ('A' for Active; 'I' for Inactive)
REMARK    1  A    between atoms: N_1  and  C_2
REMARK    2  A    between atoms: C_2  and  C_3
REMARK    3  A    between atoms: C_7  and  O_8
REMARK    4  A    between atoms: O_8  and  C_9
REMARK    5  A    between atoms: C_9  and  C_10
REMARK    6  A    between atoms: C_10  and  C_11
REMARK    7  A    between atoms: C_15  and  C_16
REMARK                            x       y       z     vdW  Elec       q    Type
REMARK                         _______ _______ _______ _____ _____    ______ ____
ROOT
ATOM      1  C   UNL     1      43.371   3.683  11.138  0.00  0.00    +0.000 C 
ENDROOT
BRANCH   1   2
ATOM      2  O   UNL     1      43.784   2.635  10.254  0.00  0.00    +0.000 OA
BRANCH   2   7
ATOM      3  C   UNL     1      46.421   2.087   7.791  0.00  0.00    +0.000 A 
ATOM      4  C   UNL     1      46.715   3.397   7.389  0.00  0.00    +0.000 A 
ATOM      5  C   UNL     1      46.030   4.478   7.942  0.00  0.00    +0.000 A 
ATOM      6  C   UNL     1      45.039   4.264   8.901  0.00  0.00    +0.000 A 
ATOM      7  C   UNL     1      44.730   2.967   9.317  0.00  0.00    +0.000 A 
ATOM      8  C   UNL     1      45.424   1.888   8.761  0.00  0.00    +0.000 A 
BRANCH   3   9
ATOM      9  C   UNL     1      47.137   0.921   7.159  0.00  0.00    +0.000 C 
BRANCH   9  10
ATOM     10  N   UNL     1      46.795  -0.342   7.804  0.00  0.00    +0.000 NA
ATOM     11  H   UNL     1      46.980  -1.108   7.159  0.00  0.00    +0.000 HD
ATOM     12  H   UNL     1      45.793  -0.353   7.989  0.00  0.00    +0.000 HD
ENDBRANCH   9  10
ENDBRANCH   3   9
ENDBRANCH   2   7
ENDBRANCH   1   2
BRANCH   1  13
ATOM     13  C   UNL     1      43.983   3.473  12.520  0.00  0.00    +0.000 C 
BRANCH  13  14
ATOM     14  C   UNL     1      45.085   4.458  12.812  0.00  0.00    +0.000 A 
ATOM     15  C   UNL     1      46.245   4.042  13.456  0.00  0.00    +0.000 A 
ATOM     16  C   UNL     1      47.242   4.974  13.712  0.00  0.00    +0.000 A 
ATOM     17  C   UNL     1      47.055   6.297  13.327  0.00  0.00    +0.000 A 
ATOM     18  C   UNL     1      45.867   6.659  12.688  0.00  0.00    +0.000 A 
ATOM     19  N   UNL     1      44.887   5.743  12.430  0.00  0.00    +0.000 NA
BRANCH  18  20
ATOM     20  C   UNL     1      45.653   8.105  12.259  0.00  0.00    +0.000 C 
ATOM     21  F   UNL     1      46.788   8.700  11.779  0.00  0.00    +0.000 F 
ATOM     22  F   UNL     1      44.731   8.238  11.265  0.00  0.00    +0.000 F 
ATOM     23  F   UNL     1      45.229   8.910  13.277  0.00  0.00    +0.000 F 
ENDBRANCH  18  20
ENDBRANCH  13  14
ENDBRANCH   1  13
TORSDOF 7
ENDMDL
MODEL 4
REMARK VINA RESULT:    -7.290      1.402      1.853
REMARK INTER + INTRA:         -10.810
REMARK INTER:                  -9.968
REMARK INTRA:                  -0.842
REMARK UNBOUND:                -0.750
REMARK  Name = 
REMARK  7 active torsions:
REMARK  status: ('A' for Active; 'I' for Inactive)
REMARK    1  A    between atoms: N_1  and  C_2
REMARK    2  A    between atoms: C_2  and  C_3
REMARK    3  A    between atoms: C_7  and  O_8
REMARK    4  A    between atoms: O_8  and  C_9
REMARK    5  A    between atoms: C_9  and  C_10
REMARK    6  A    between atoms: C_10  and  C_11
REMARK    7  A    between atoms: C_15  and  C_16
REMARK                            x       y       z     vdW  Elec       q    Type
REMARK                         _______ _______ _______ _____ _____    ______ ____
ROOT
ATOM      1  C   UNL     1      44.215   2.783  11.549  0.00  0.00    +0.000 C 
ENDROOT
BRANCH   1   2
ATOM      2  O   UNL     1      43.804   2.698  10.179  0.00  0.00    +0.000 OA
BRANCH   2   7
ATOM      3  C   UNL     1      46.462   2.050   7.764  0.00  0.00    +0.000 A 
ATOM      4  C   UNL     1      46.761   3.343   7.313  0.00  0.00    +0.000 A 
ATOM      5  C   UNL     1      46.073   4.445   7.818  0.00  0.00    +0.000 A 
ATOM      6  C   UNL     1      45.073   4.270   8.775  0.00  0.00    +0.000 A 
ATOM      7  C   UNL     1      44.758   2.992   9.239  0.00  0.00    +0.000 A 
ATOM      8  C   UNL     1      45.456   1.890   8.732  0.00  0.00    +0.000 A 
BRANCH   3   9
ATOM      9  C   UNL     1      47.182   0.859   7.185  0.00  0.00    +0.000 C 
BRANCH   9  10
ATOM     10  N   UNL     1      46.769  -0.388   7.819  0.00  0.00    +0.000 NA
ATOM     11  H   UNL     1      47.345  -0.551   8.643  0.00  0.00    +0.000 HD
ATOM     12  H   UNL     1      46.955  -1.158   7.178  0.00  0.00    +0.000 HD
ENDBRANCH   9  10
ENDBRANCH   3   9
ENDBRANCH   2   7
ENDBRANCH   1   2
BRANCH   1  13
ATOM     13  C   UNL     1      43.499   3.939  12.239  0.00  0.00    +0.000 C 
BRANCH  13  14
ATOM     14  C   UNL     1      44.313   5.207  12.220  0.00  0.00    +0.000 A 
ATOM     15  C   UNL     1      43.860   6.321  11.522  0.00  0.00    +0.000 A 
ATOM     16  C   UNL     1      44.634   7.475  11.523  0.00  0.00    +0.000 A 
ATOM     17  C   UNL     1      45.842   7.485  12.212  0.00  0.00    +0.000 A 
ATOM     18  C   UNL     1      46.248   6.335  12.892  0.00  0.00    +0.000 A 
ATOM     19  N   UNL     1      45.487   5.201  12.897  0.00  0.00    +0.000 NA
BRANCH  18  20
ATOM     20  C   UNL     1      47.569   6.337  13.652  0.00  0.00    +0.000 C 
ATOM     21  F   UNL     1      47.649   5.350  14.596  0.00  0.00    +0.000 F 
ATOM     22  F   UNL     1      48.651   6.149  12.846  0.00  0.00    +0.000 F 
ATOM     23  F   UNL     1      47.798   7.500  14.328  0.00  0.00    +0.000 F 
ENDBRANCH  18  20
ENDBRANCH  13  14
ENDBRANCH   1  13
TORSDOF 7
ENDMDL
MODEL 5
REMARK VINA RESULT:    -7.128      3.862      6.565
REMARK INTER + INTRA:         -10.587
REMARK INTER:                  -9.808
REMARK INTRA:                  -0.779
REMARK UNBOUND:                -0.750
REMARK  Name = 
REMARK  7 active torsions:
REMARK  status: ('A' for Active; 'I' for Inactive)
REMARK    1  A    between atoms: N_1  and  C_2
REMARK    2  A    between atoms: C_2  and  C_3
REMARK    3  A    between atoms: C_7  and  O_8
REMARK    4  A    between atoms: O_8  and  C_9
REMARK    5  A    between atoms: C_9  and  C_10
REMARK    6  A    between atoms: C_10  and  C_11
REMARK    7  A    between atoms: C_15  and  C_16
REMARK                            x       y       z     vdW  Elec       q    Type
REMARK                         _______ _______ _______ _____ _____    ______ ____
ROOT
ATOM      1  C   UNL     1      43.482   3.309  11.919  0.00  0.00    +0.000 C 
ENDROOT
BRANCH   1   2
ATOM      2  O   UNL     1      44.552   3.566  12.835  0.00  0.00    +0.000 OA
BRANCH   2   7
ATOM      3  C   UNL     1      46.970   6.233  13.435  0.00  0.00    +0.000 A 
ATOM      4  C   UNL     1      46.272   7.360  12.982  0.00  0.00    +0.000 A 
ATOM      5  C   UNL     1      44.981   7.235  12.472  0.00  0.00    +0.000 A 
ATOM      6  C   UNL     1      44.372   5.981  12.402  0.00  0.00    +0.000 A 
ATOM      7  C   UNL     1      45.049   4.844  12.847  0.00  0.00    +0.000 A 
ATOM      8  C   UNL     1      46.343   4.977  13.363  0.00  0.00    +0.000 A 
BRANCH   3   9
ATOM      9  C   UNL     1      48.381   6.369  13.949  0.00  0.00    +0.000 C 
BRANCH   9  10
ATOM     10  N   UNL     1      49.332   6.613  12.869  0.00  0.00    +0.000 NA
ATOM     11  H   UNL     1      49.135   5.976  12.100  0.00  0.00    +0.000 HD
ATOM     12  H   UNL     1      50.269   6.388  13.202  0.00  0.00    +0.000 HD
ENDBRANCH   9  10
ENDBRANCH   3   9
ENDBRANCH   2   7
ENDBRANCH   1   2
BRANCH   1  13
ATOM     13  C   UNL     1      43.865   2.178  10.970  0.00  0.00    +0.000 C 
BRANCH  13  14
ATOM     14  C   UNL     1      44.653   2.671   9.784  0.00  0.00    +0.000 A 
ATOM     15  C   UNL     1      44.568   4.002   9.390  0.00  0.00    +0.000 A 
ATOM     16  C   UNL     1      45.305   4.426   8.292  0.00  0.00    +0.000 A 
ATOM     17  C   UNL     1      46.101   3.511   7.610  0.00  0.00    +0.000 A 
ATOM     18  C   UNL     1      46.143   2.186   8.048  0.00  0.00    +0.000 A 
ATOM     19  N   UNL     1      45.423   1.767   9.131  0.00  0.00    +0.000 NA
BRANCH  18  20
ATOM     20  C   UNL     1      47.013   1.176   7.309  0.00  0.00    +0.000 C 
ATOM     21  F   UNL     1      48.345   1.491   7.334  0.00  0.00    +0.000 F 
ATOM     22  F   UNL     1      46.933  -0.081   7.829  0.00  0.00    +0.000 F 
ATOM     23  F   UNL     1      46.696   1.059   5.987  0.00  0.00    +0.000 F 
ENDBRANCH  18  20
ENDBRANCH  13  14
ENDBRANCH   1  13
TORSDOF 7
ENDMDL
MODEL 6
REMARK VINA RESULT:    -6.827      1.525      2.028
REMARK INTER + INTRA:         -10.171
REMARK INTER:                  -9.513
REMARK INTRA:                  -0.658
REMARK UNBOUND:                -0.750
REMARK  Name = 
REMARK  7 active torsions:
REMARK  status: ('A' for Active; 'I' for Inactive)
REMARK    1  A    between atoms: N_1  and  C_2
REMARK    2  A    between atoms: C_2  and  C_3
REMARK    3  A    between atoms: C_7  and  O_8
REMARK    4  A    between atoms: O_8  and  C_9
REMARK    5  A    between atoms: C_9  and  C_10
REMARK    6  A    between atoms: C_10  and  C_11
REMARK    7  A    between atoms: C_15  and  C_16
REMARK                            x       y       z     vdW  Elec       q    Type
REMARK                         _______ _______ _______ _____ _____    ______ ____
ROOT
ATOM      1  C   UNL     1      43.448   4.260  10.420  0.00  0.00    +0.000 C 
ENDROOT
BRANCH   1   2
ATOM      2  O   UNL     1      44.245   4.501   9.256  0.00  0.00    +0.000 OA
BRANCH   2   7
ATOM      3  C   UNL     1      46.651   2.718   7.169  0.00  0.00    +0.000 A 
ATOM      4  C   UNL     1      46.472   1.394   7.593  0.00  0.00    +0.000 A 
ATOM      5  C   UNL     1      45.539   1.087   8.582  0.00  0.00    +0.000 A 
ATOM      6  C   UNL     1      44.778   2.100   9.166  0.00  0.00    +0.000 A 
ATOM      7  C   UNL     1      44.939   3.426   8.761  0.00  0.00    +0.000 A 
ATOM      8  C   UNL     1      45.874   3.726   7.764  0.00  0.00    +0.000 A 
BRANCH   3   9
ATOM      9  C   UNL     1      47.690   3.047   6.128  0.00  0.00    +0.000 C 
BRANCH   9  10
ATOM     10  N   UNL     1      48.507   1.887   5.787  0.00  0.00    +0.000 NA
ATOM     11  H   UNL     1      48.146   1.070   6.275  0.00  0.00    +0.000 HD
ATOM     12  H   UNL     1      49.452   2.040   6.136  0.00  0.00    +0.000 HD
ENDBRANCH   9  10
ENDBRANCH   3   9
ENDBRANCH   2   7
ENDBRANCH   1   2
BRANCH   1  13
ATOM     13  C   UNL     1      43.204   5.568  11.167  0.00  0.00    +0.000 C 
BRANCH  13  14
ATOM     14  C   UNL     1      44.456   6.095  11.818  0.00  0.00    +0.000 A 
ATOM     15  C   UNL     1      44.926   7.367  11.508  0.00  0.00    +0.000 A 
ATOM     16  C   UNL     1      46.084   7.824  12.124  0.00  0.00    +0.000 A 
ATOM     17  C   UNL     1      46.748   6.999  13.026  0.00  0.00    +0.000 A 
ATOM     18  C   UNL     1      46.232   5.730  13.295  0.00  0.00    +0.000 A 
ATOM     19  N   UNL     1      45.091   5.280  12.695  0.00  0.00    +0.000 NA
BRANCH  18  20
ATOM     20  C   UNL     1      46.950   4.820  14.284  0.00  0.00    +0.000 C 
ATOM     21  F   UNL     1      46.153   4.411  15.319  0.00  0.00    +0.000 F 
ATOM     22  F   UNL     1      47.414   3.671  13.716  0.00  0.00    +0.000 F 
ATOM     23  F   UNL     1      48.029   5.411  14.874  0.00  0.00    +0.000 F 
ENDBRANCH  18  20
ENDBRANCH  13  14
ENDBRANCH   1  13
TORSDOF 7
ENDMDL
MODEL 7
REMARK VINA RESULT:    -6.760      1.896      2.692
REMARK INTER + INTRA:         -10.079
REMARK INTER:                  -9.360
REMARK INTRA:                  -0.719
REMARK UNBOUND:                -0.750
REMARK  Name = 
REMARK  7 active torsions:
REMARK  status: ('A' for Active; 'I' for Inactive)
REMARK    1  A    between atoms: N_1  and  C_2
REMARK    2  A    between atoms: C_2  and  C_3
REMARK    3  A    between atoms: C_7  and  O_8
REMARK    4  A    between atoms: O_8  and  C_9
REMARK    5  A    between atoms: C_9  and  C_10
REMARK    6  A    between atoms: C_10  and  C_11
REMARK    7  A    between atoms: C_15  and  C_16
REMARK                            x       y       z     vdW  Elec       q    Type
REMARK                         _______ _______ _______ _____ _____    ______ ____
ROOT
ATOM      1  C   UNL     1      44.124   4.792  10.226  0.00  0.00    +0.000 C 
ENDROOT
BRANCH   1   2
ATOM      2  O   UNL     1      44.114   4.464   8.832  0.00  0.00    +0.000 OA
BRANCH   2   7
ATOM      3  C   UNL     1      46.580   2.649   6.845  0.00  0.00    +0.000 A 
ATOM      4  C   UNL     1      46.597   1.400   7.480  0.00  0.00    +0.000 A 
ATOM      5  C   UNL     1      45.778   1.155   8.582  0.00  0.00    +0.000 A 
ATOM      6  C   UNL     1      44.937   2.157   9.067  0.00  0.00    +0.000 A 
ATOM      7  C   UNL     1      44.903   3.409   8.450  0.00  0.00    +0.000 A 
ATOM      8  C   UNL     1      45.724   3.646   7.342  0.00  0.00    +0.000 A 
BRANCH   3   9
ATOM      9  C   UNL     1      47.497   2.920   5.679  0.00  0.00    +0.000 C 
BRANCH   9  10
ATOM     10  N   UNL     1      48.516   1.886   5.536  0.00  0.00    +0.000 NA
ATOM     11  H   UNL     1      48.583   1.360   6.406  0.00  0.00    +0.000 HD
ATOM     12  H   UNL     1      49.420   2.335   5.398  0.00  0.00    +0.000 HD
ENDBRANCH   9  10
ENDBRANCH   3   9
ENDBRANCH   2   7
ENDBRANCH   1   2
BRANCH   1  13
ATOM     13  C   UNL     1      45.296   5.718  10.537  0.00  0.00    +0.000 C 
BRANCH  13  14
ATOM     14  C   UNL     1      45.939   5.397  11.862  0.00  0.00    +0.000 A 
ATOM     15  C   UNL     1      45.647   4.203  12.513  0.00  0.00    +0.000 A 
ATOM     16  C   UNL     1      46.255   3.938  13.733  0.00  0.00    +0.000 A 
ATOM     17  C   UNL     1      47.131   4.871  14.276  0.00  0.00    +0.000 A 
ATOM     18  C   UNL     1      47.383   6.055  13.580  0.00  0.00    +0.000 A 
ATOM     19  N   UNL     1      46.790   6.317  12.378  0.00  0.00    +0.000 NA
BRANCH  18  20
ATOM     20  C   UNL     1      48.342   7.083  14.166  0.00  0.00    +0.000 C 
ATOM     21  F   UNL     1      47.886   8.369  14.060  0.00  0.00    +0.000 F 
ATOM     22  F   UNL     1      48.581   6.898  15.494  0.00  0.00    +0.000 F 
ATOM     23  F   UNL     1      49.565   7.085  13.559  0.00  0.00    +0.000 F 
ENDBRANCH  18  20
ENDBRANCH  13  14
ENDBRANCH   1  13
TORSDOF 7
ENDMDL
MODEL 8
REMARK VINA RESULT:    -6.632      4.087      4.779
REMARK INTER + INTRA:          -9.902
REMARK INTER:                  -9.288
REMARK INTRA:                  -0.614
REMARK UNBOUND:                -0.750
REMARK  Name = 
REMARK  7 active torsions:
REMARK  status: ('A' for Active; 'I' for Inactive)
REMARK    1  A    between atoms: N_1  and  C_2
REMARK    2  A    between atoms: C_2  and  C_3
REMARK    3  A    between atoms: C_7  and  O_8
REMARK    4  A    between atoms: O_8  and  C_9
REMARK    5  A    between atoms: C_9  and  C_10
REMARK    6  A    between atoms: C_10  and  C_11
REMARK    7  A    between atoms: C_15  and  C_16
REMARK                            x       y       z     vdW  Elec       q    Type
REMARK                         _______ _______ _______ _____ _____    ______ ____
ROOT
ATOM      1  C   UNL     1      44.141   4.875  10.616  0.00  0.00    +0.000 C 
ENDROOT
BRANCH   1   2
ATOM      2  O   UNL     1      44.357   4.752   9.205  0.00  0.00    +0.000 OA
BRANCH   2   7
ATOM      3  C   UNL     1      46.818   2.739   7.412  0.00  0.00    +0.000 A 
ATOM      4  C   UNL     1      46.454   1.439   7.788  0.00  0.00    +0.000 A 
ATOM      5  C   UNL     1      45.377   1.226   8.647  0.00  0.00    +0.000 A 
ATOM      6  C   UNL     1      44.653   2.309   9.146  0.00  0.00    +0.000 A 
ATOM      7  C   UNL     1      44.997   3.613   8.786  0.00  0.00    +0.000 A 
ATOM      8  C   UNL     1      46.076   3.820   7.920  0.00  0.00    +0.000 A 
BRANCH   3   9
ATOM      9  C   UNL     1      48.009   2.965   6.516  0.00  0.00    +0.000 C 
BRANCH   9  10
ATOM     10  N   UNL     1      48.458   1.728   5.886  0.00  0.00    +0.000 NA
ATOM     11  H   UNL     1      47.663   1.103   5.773  0.00  0.00    +0.000 HD
ATOM     12  H   UNL     1      49.110   1.259   6.514  0.00  0.00    +0.000 HD
ENDBRANCH   9  10
ENDBRANCH   3   9
ENDBRANCH   2   7
ENDBRANCH   1   2
BRANCH   1  13
ATOM     13  C   UNL     1      45.444   5.255  11.313  0.00  0.00    +0.000 C 
BRANCH  13  14
ATOM     14  C   UNL     1      45.453   6.695  11.758  0.00  0.00    +0.000 A 
ATOM     15  C   UNL     1      46.318   7.112  12.765  0.00  0.00    +0.000 A 
ATOM     16  C   UNL     1      46.303   8.445  13.153  0.00  0.00    +0.000 A 
ATOM     17  C   UNL     1      45.421   9.326  12.535  0.00  0.00    +0.000 A 
ATOM     18  C   UNL     1      44.573   8.850  11.534  0.00  0.00    +0.000 A 
ATOM     19  N   UNL     1      44.589   7.540  11.146  0.00  0.00    +0.000 NA
BRANCH  18  20
ATOM     20  C   UNL     1      43.605   9.807  10.849  0.00  0.00    +0.000 C 
ATOM     21  F   UNL     1      44.098  10.333   9.686  0.00  0.00    +0.000 F 
ATOM     22  F   UNL     1      42.425   9.219  10.503  0.00  0.00    +0.000 F 
ATOM     23  F   UNL     1      43.278  10.884  11.621  0.00  0.00    +0.000 F 
ENDBRANCH  18  20
ENDBRANCH  13  14
ENDBRANCH   1  13
TORSDOF 7
ENDMDL
MODEL 9
REMARK VINA RESULT:    -6.474      3.922      7.134
REMARK INTER + INTRA:          -9.685
REMARK INTER:                  -9.102
REMARK INTRA:                  -0.583
REMARK UNBOUND:                -0.750
REMARK  Name = 
REMARK  7 active torsions:
REMARK  status: ('A' for Active; 'I' for Inactive)
REMARK    1  A    between atoms: N_1  and  C_2
REMARK    2  A    between atoms: C_2  and  C_3
REMARK    3  A    between atoms: C_7  and  O_8
REMARK    4  A    between atoms: O_8  and  C_9
REMARK    5  A    between atoms: C_9  and  C_10
REMARK    6  A    between atoms: C_10  and  C_11
REMARK    7  A    between atoms: C_15  and  C_16
REMARK                            x       y       z     vdW  Elec       q    Type
REMARK                         _______ _______ _______ _____ _____    ______ ____
ROOT
ATOM      1  C   UNL     1      45.215   6.290  12.673  0.00  0.00    +0.000 C 
ENDROOT
BRANCH   1   2
ATOM      2  O   UNL     1      46.508   5.673  12.645  0.00  0.00    +0.000 OA
BRANCH   2   7
ATOM      3  C   UNL     1      47.657   4.519  15.911  0.00  0.00    +0.000 A 
ATOM      4  C   UNL     1      48.551   5.534  16.275  0.00  0.00    +0.000 A 
ATOM      5  C   UNL     1      48.776   6.617  15.427  0.00  0.00    +0.000 A 
ATOM      6  C   UNL     1      48.114   6.698  14.202  0.00  0.00    +0.000 A 
ATOM      7  C   UNL     1      47.219   5.698  13.817  0.00  0.00    +0.000 A 
ATOM      8  C   UNL     1      46.995   4.616  14.675  0.00  0.00    +0.000 A 
BRANCH   3   9
ATOM      9  C   UNL     1      47.450   3.330  16.814  0.00  0.00    +0.000 C 
BRANCH   9  10
ATOM     10  N   UNL     1      46.941   3.724  18.123  0.00  0.00    +0.000 NA
ATOM     11  H   UNL     1      47.171   3.001  18.802  0.00  0.00    +0.000 HD
ATOM     12  H   UNL     1      45.924   3.768  18.079  0.00  0.00    +0.000 HD
ENDBRANCH   9  10
ENDBRANCH   3   9
ENDBRANCH   2   7
ENDBRANCH   1   2
BRANCH   1  13
ATOM     13  C   UNL     1      44.615   6.311  11.270  0.00  0.00    +0.000 C 
BRANCH  13  14
ATOM     14  C   UNL     1      44.644   4.954  10.617  0.00  0.00    +0.000 A 
ATOM     15  C   UNL     1      43.926   3.896  11.166  0.00  0.00    +0.000 A 
ATOM     16  C   UNL     1      43.974   2.657  10.541  0.00  0.00    +0.000 A 
ATOM     17  C   UNL     1      44.740   2.501   9.391  0.00  0.00    +0.000 A 
ATOM     18  C   UNL     1      45.444   3.597   8.888  0.00  0.00    +0.000 A 
ATOM     19  N   UNL     1      45.395   4.819   9.498  0.00  0.00    +0.000 NA
BRANCH  18  20
ATOM     20  C   UNL     1      46.285   3.438   7.627  0.00  0.00    +0.000 C 
ATOM     21  F   UNL     1      47.125   2.358   7.672  0.00  0.00    +0.000 F 
ATOM     22  F   UNL     1      45.536   3.263   6.502  0.00  0.00    +0.000 F 
ATOM     23  F   UNL     1      47.092   4.511   7.381  0.00  0.00    +0.000 F 
ENDBRANCH  18  20
ENDBRANCH  13  14
ENDBRANCH   1  13
TORSDOF 7
ENDMDL
