MODEL 1
REMARK VINA RESULT:    -9.268      0.000      0.000
REMARK INTER + INTRA:         -12.695
REMARK INTER:                 -12.520
REMARK INTRA:                  -0.176
REMARK UNBOUND:                -0.176
REMARK  Name = 
REMARK  6 active torsions:
REMARK  status: ('A' for Active; 'I' for Inactive)
REMARK    1  A    between atoms: C_2  and  C_3
REMARK    2  A    between atoms: C_6  and  C_7
REMARK    3  A    between atoms: C_11  and  C_12
REMARK    4  A    between atoms: C_12  and  N_13
REMARK    5  A    between atoms: N_13  and  C_14
REMARK    6  A    between atoms: C_17  and  C_18
REMARK                            x       y       z     vdW  Elec       q    Type
REMARK                         _______ _______ _______ _____ _____    ______ ____
ROOT
ATOM      1  C   UNL     1      43.989   4.964  11.595  0.00  0.00    +0.000 C 
ATOM      2  C   UNL     1      42.750   5.159  12.451  0.00  0.00    +0.000 C 
ATOM      3  C   UNL     1      43.410   3.829  12.447  0.00  0.00    +0.000 C 
ATOM      4  F   UNL     1      42.770   2.797  11.780  0.00  0.00    +0.000 F 
ENDROOT
BRANCH   1   9
ATOM      5  C   UNL     1      47.079   5.745  13.768  0.00  0.00    +0.000 A 
ATOM      6  C   UNL     1      47.764   6.525  12.832  0.00  0.00    +0.000 A 
ATOM      7  N   UNL     1      47.293   6.870  11.613  0.00  0.00    +0.000 NA
ATOM      8  C   UNL     1      46.077   6.385  11.281  0.00  0.00    +0.000 A 
ATOM      9  C   UNL     1      45.309   5.542  12.080  0.00  0.00    +0.000 A 
ATOM     10  C   UNL     1      45.828   5.264  13.354  0.00  0.00    +0.000 A 
BRANCH   5  14
ATOM     11  C   UNL     1      48.674   4.913  17.691  0.00  0.00    +0.000 A 
ATOM     12  C   UNL     1      49.142   6.002  16.957  0.00  0.00    +0.000 A 
ATOM     13  C   UNL     1      48.623   6.268  15.685  0.00  0.00    +0.000 A 
ATOM     14  C   UNL     1      47.634   5.451  15.108  0.00  0.00    +0.000 A 
ATOM     15  C   UNL     1      47.188   4.349  15.863  0.00  0.00    +0.000 A 
ATOM     16  C   UNL     1      47.694   4.086  17.142  0.00  0.00    +0.000 A 
BRANCH  11  18
ATOM     17  N   UNL     1      49.616   4.434  20.058  0.00  0.00    +0.000 NA
ATOM     18  C   UNL     1      49.194   4.648  18.997  0.00  0.00    +0.000 C 
ENDBRANCH  11  18
ENDBRANCH   5  14
ENDBRANCH   1   9
BRANCH   1  19
ATOM     19  N   UNL     1      43.940   4.750  10.143  0.00  0.00    +0.000 N 
ATOM     20  H   UNL     1      43.353   5.388   9.614  0.00  0.00    +0.000 HD
BRANCH  19  21
ATOM     21  C   UNL     1      44.740   3.913   9.351  0.00  0.00    +0.000 A 
ATOM     22  C   UNL     1      44.777   2.520   9.440  0.00  0.00    +0.000 A 
ATOM     23  C   UNL     1      45.630   1.772   8.608  0.00  0.00    +0.000 A 
ATOM     24  C   UNL     1      46.439   2.407   7.657  0.00  0.00    +0.000 A 
ATOM     25  C   UNL     1      46.381   3.796   7.534  0.00  0.00    +0.000 A 
ATOM     26  C   UNL     1      45.536   4.530   8.370  0.00  0.00    +0.000 A 
BRANCH  24  27
ATOM     27  C   UNL     1      47.387   1.598   6.844  0.00  0.00    +0.000 C 
ATOM     28  N   UNL     1      48.563   2.188   6.468  0.00  0.00    +0.000 N 
ATOM     29  O   UNL     1      47.127   0.450   6.511  0.00  0.00    +0.000 OA
ATOM     30  H   UNL     1      48.738   3.179   6.546  0.00  0.00    +0.000 HD
ATOM     31  H   UNL     1      49.176   1.646   5.873  0.00  0.00    +0.000 HD
ENDBRANCH  24  27
ENDBRANCH  19  21
ENDBRANCH   1  19
TORSDOF 6
ENDMDL
MODEL 2
REMARK VINA RESULT:    -9.255      2.403      3.675
REMARK INTER + INTRA:         -12.677
REMARK INTER:                 -11.636
REMARK INTRA:                  -1.041
REMARK UNBOUND:                -0.176
REMARK  Name = 
REMARK  6 active torsions:
REMARK  status: ('A' for Active; 'I' for Inactive)
REMARK    1  A    between atoms: C_2  and  C_3
REMARK    2  A    between atoms: C_6  and  C_7
REMARK    3  A    between atoms: C_11  and  C_12
REMARK    4  A    between atoms: C_12  and  N_13
REMARK    5  A    between atoms: N_13  and  C_14
REMARK    6  A    between atoms: C_17  and  C_18
REMARK                            x       y       z     vdW  Elec       q    Type
REMARK                         _______ _______ _______ _____ _____    ______ ____
ROOT
ATOM      1  C   UNL     1      44.007   5.265  11.288  0.00  0.00    +0.000 C 
ATOM      2  C   UNL     1      43.438   6.648  11.026  0.00  0.00    +0.000 C 
ATOM      3  C   UNL     1      42.743   5.766  11.996  0.00  0.00    +0.000 C 
ATOM      4  F   UNL     1      41.534   5.211  11.607  0.00  0.00    +0.000 F 
ENDROOT
BRANCH   1   9
ATOM      5  C   UNL     1      47.411   5.968  12.959  0.00  0.00    +0.000 A 
ATOM      6  C   UNL     1      47.386   4.909  13.870  0.00  0.00    +0.000 A 
ATOM      7  N   UNL     1      46.419   3.968  13.943  0.00  0.00    +0.000 NA
ATOM      8  C   UNL     1      45.390   4.099  13.079  0.00  0.00    +0.000 A 
ATOM      9  C   UNL     1      45.243   5.138  12.164  0.00  0.00    +0.000 A 
ATOM     10  C   UNL     1      46.306   6.053  12.100  0.00  0.00    +0.000 A 
BRANCH   5  14
ATOM     11  C   UNL     1      50.657   8.809  12.796  0.00  0.00    +0.000 A 
ATOM     12  C   UNL     1      49.855   8.591  11.676  0.00  0.00    +0.000 A 
ATOM     13  C   UNL     1      48.804   7.669  11.733  0.00  0.00    +0.000 A 
ATOM     14  C   UNL     1      48.532   6.933  12.900  0.00  0.00    +0.000 A 
ATOM     15  C   UNL     1      49.365   7.160  14.014  0.00  0.00    +0.000 A 
ATOM     16  C   UNL     1      50.409   8.092  13.967  0.00  0.00    +0.000 A 
BRANCH  11  18
ATOM     17  N   UNL     1      52.588  10.535  12.702  0.00  0.00    +0.000 NA
ATOM     18  C   UNL     1      51.722   9.762  12.745  0.00  0.00    +0.000 C 
ENDBRANCH  11  18
ENDBRANCH   5  14
ENDBRANCH   1   9
BRANCH   1  19
ATOM     19  N   UNL     1      43.811   4.128  10.380  0.00  0.00    +0.000 N 
ATOM     20  H   UNL     1      42.863   3.773  10.301  0.00  0.00    +0.000 HD
BRANCH  19  21
ATOM     21  C   UNL     1      44.710   3.581   9.453  0.00  0.00    +0.000 A 
ATOM     22  C   UNL     1      44.972   2.218   9.296  0.00  0.00    +0.000 A 
ATOM     23  C   UNL     1      45.908   1.773   8.345  0.00  0.00    +0.000 A 
ATOM     24  C   UNL     1      46.576   2.686   7.518  0.00  0.00    +0.000 A 
ATOM     25  C   UNL     1      46.294   4.046   7.640  0.00  0.00    +0.000 A 
ATOM     26  C   UNL     1      45.368   4.478   8.593  0.00  0.00    +0.000 A 
BRANCH  24  27
ATOM     27  C   UNL     1      47.617   2.193   6.575  0.00  0.00    +0.000 C 
ATOM     28  N   UNL     1      47.830   2.917   5.434  0.00  0.00    +0.000 N 
ATOM     29  O   UNL     1      48.254   1.174   6.800  0.00  0.00    +0.000 OA
ATOM     30  H   UNL     1      47.207   3.641   5.109  0.00  0.00    +0.000 HD
ATOM     31  H   UNL     1      48.504   2.545   4.776  0.00  0.00    +0.000 HD
ENDBRANCH  24  27
ENDBRANCH  19  21
ENDBRANCH   1  19
TORSDOF 6
ENDMDL
MODEL 3
REMARK VINA RESULT:    -8.379      2.745      3.429
REMARK INTER + INTRA:         -11.494
REMARK INTER:                 -11.068
REMARK INTRA:                  -0.427
REMARK UNBOUND:                -0.176
REMARK  Name = 
REMARK  6 active torsions:
REMARK  status: ('A' for Active; 'I' for Inactive)
REMARK    1  A    between atoms: C_2  and  C_3
REMARK    2  A    between atoms: C_6  and  C_7
REMARK    3  A    between atoms: C_11  and  C_12
REMARK    4  A    between atoms: C_12  and  N_13
REMARK    5  A    between atoms: N_13  and  C_14
REMARK    6  A    between atoms: C_17  and  C_18
REMARK                            x       y       z     vdW  Elec       q    Type
REMARK                         _______ _______ _______ _____ _____    ______ ____
ROOT
ATOM      1  C   UNL     1      43.887   5.008  11.738  0.00  0.00    +0.000 C 
ATOM      2  C   UNL     1      43.018   4.636  12.927  0.00  0.00    +0.000 C 
ATOM      3  C   UNL     1      44.357   4.009  12.801  0.00  0.00    +0.000 C 
ATOM      4  F   UNL     1      44.409   2.673  12.439  0.00  0.00    +0.000 F 
ENDROOT
BRANCH   1   9
ATOM      5  C   UNL     1      46.598   7.732  12.067  0.00  0.00    +0.000 A 
ATOM      6  C   UNL     1      45.831   8.805  11.604  0.00  0.00    +0.000 A 
ATOM      7  N   UNL     1      44.523   8.739  11.268  0.00  0.00    +0.000 NA
ATOM      8  C   UNL     1      43.941   7.525  11.365  0.00  0.00    +0.000 A 
ATOM      9  C   UNL     1      44.593   6.355  11.744  0.00  0.00    +0.000 A 
ATOM     10  C   UNL     1      45.934   6.498  12.130  0.00  0.00    +0.000 A 
BRANCH   5  14
ATOM     11  C   UNL     1      50.719   8.224  13.252  0.00  0.00    +0.000 A 
ATOM     12  C   UNL     1      50.261   8.767  12.052  0.00  0.00    +0.000 A 
ATOM     13  C   UNL     1      48.925   8.604  11.671  0.00  0.00    +0.000 A 
ATOM     14  C   UNL     1      48.013   7.889  12.468  0.00  0.00    +0.000 A 
ATOM     15  C   UNL     1      48.502   7.339  13.669  0.00  0.00    +0.000 A 
ATOM     16  C   UNL     1      49.835   7.509  14.062  0.00  0.00    +0.000 A 
BRANCH  11  18
ATOM     17  N   UNL     1      53.187   8.544  13.975  0.00  0.00    +0.000 NA
ATOM     18  C   UNL     1      52.081   8.401  13.650  0.00  0.00    +0.000 C 
ENDBRANCH  11  18
ENDBRANCH   5  14
ENDBRANCH   1   9
BRANCH   1  19
ATOM     19  N   UNL     1      43.693   4.452  10.393  0.00  0.00    +0.000 N 
ATOM     20  H   UNL     1      42.785   4.612   9.967  0.00  0.00    +0.000 HD
BRANCH  19  21
ATOM     21  C   UNL     1      44.646   3.897   9.527  0.00  0.00    +0.000 A 
ATOM     22  C   UNL     1      45.525   4.629   8.726  0.00  0.00    +0.000 A 
ATOM     23  C   UNL     1      46.434   3.973   7.876  0.00  0.00    +0.000 A 
ATOM     24  C   UNL     1      46.494   2.574   7.836  0.00  0.00    +0.000 A 
ATOM     25  C   UNL     1      45.647   1.834   8.661  0.00  0.00    +0.000 A 
ATOM     26  C   UNL     1      44.743   2.494   9.496  0.00  0.00    +0.000 A 
BRANCH  24  27
ATOM     27  C   UNL     1      47.412   1.907   6.873  0.00  0.00    +0.000 C 
ATOM     28  N   UNL     1      48.440   2.650   6.360  0.00  0.00    +0.000 N 
ATOM     29  O   UNL     1      47.253   0.741   6.539  0.00  0.00    +0.000 OA
ATOM     30  H   UNL     1      48.499   3.653   6.447  0.00  0.00    +0.000 HD
ATOM     31  H   UNL     1      49.026   2.201   5.667  0.00  0.00    +0.000 HD
ENDBRANCH  24  27
ENDBRANCH  19  21
ENDBRANCH   1  19
TORSDOF 6
ENDMDL
MODEL 4
REMARK VINA RESULT:    -7.020      3.323      5.209
REMARK INTER + INTRA:          -9.658
REMARK INTER:                  -8.843
REMARK INTRA:                  -0.815
REMARK UNBOUND:                -0.176
REMARK  Name = 
REMARK  6 active torsions:
REMARK  status: ('A' for Active; 'I' for Inactive)
REMARK    1  A    between atoms: C_2  and  C_3
REMARK    2  A    between atoms: C_6  and  C_7
REMARK    3  A    between atoms: C_11  and  C_12
REMARK    4  A    between atoms: C_12  and  N_13
REMARK    5  A    between atoms: N_13  and  C_14
REMARK    6  A    between atoms: C_17  and  C_18
REMARK                            x       y       z     vdW  Elec       q    Type
REMARK                         _______ _______ _______ _____ _____    ______ ____
ROOT
ATOM      1  C   UNL     1      48.123   7.789  13.335  0.00  0.00    +0.000 C 
ATOM      2  C   UNL     1      49.107   7.592  12.195  0.00  0.00    +0.000 C 
ATOM      3  C   UNL     1      48.631   8.965  12.493  0.00  0.00    +0.000 C 
ATOM      4  F   UNL     1      47.739   9.543  11.604  0.00  0.00    +0.000 F 
ENDROOT
BRANCH   1   9
ATOM      5  C   UNL     1      49.942   6.647  16.538  0.00  0.00    +0.000 A 
ATOM      6  C   UNL     1      49.643   7.764  17.322  0.00  0.00    +0.000 A 
ATOM      7  N   UNL     1      48.864   8.799  16.937  0.00  0.00    +0.000 NA
ATOM      8  C   UNL     1      48.373   8.744  15.680  0.00  0.00    +0.000 A 
ATOM      9  C   UNL     1      48.640   7.731  14.763  0.00  0.00    +0.000 A 
ATOM     10  C   UNL     1      49.411   6.660  15.240  0.00  0.00    +0.000 A 
BRANCH   5  14
ATOM     11  C   UNL     1      52.326   3.353  17.984  0.00  0.00    +0.000 A 
ATOM     12  C   UNL     1      50.940   3.232  17.894  0.00  0.00    +0.000 A 
ATOM     13  C   UNL     1      50.171   4.303  17.426  0.00  0.00    +0.000 A 
ATOM     14  C   UNL     1      50.759   5.523  17.046  0.00  0.00    +0.000 A 
ATOM     15  C   UNL     1      52.160   5.624  17.158  0.00  0.00    +0.000 A 
ATOM     16  C   UNL     1      52.936   4.552  17.613  0.00  0.00    +0.000 A 
BRANCH  11  18
ATOM     17  N   UNL     1      53.758   1.364  18.828  0.00  0.00    +0.000 NA
ATOM     18  C   UNL     1      53.116   2.255  18.449  0.00  0.00    +0.000 C 
ENDBRANCH  11  18
ENDBRANCH   5  14
ENDBRANCH   1   9
BRANCH   1  19
ATOM     19  N   UNL     1      46.687   7.506  13.218  0.00  0.00    +0.000 N 
ATOM     20  H   UNL     1      46.057   8.249  13.503  0.00  0.00    +0.000 HD
BRANCH  19  21
ATOM     21  C   UNL     1      46.054   6.425  12.586  0.00  0.00    +0.000 A 
ATOM     22  C   UNL     1      45.581   6.429  11.272  0.00  0.00    +0.000 A 
ATOM     23  C   UNL     1      44.943   5.295  10.738  0.00  0.00    +0.000 A 
ATOM     24  C   UNL     1      44.794   4.131  11.502  0.00  0.00    +0.000 A 
ATOM     25  C   UNL     1      45.298   4.104  12.803  0.00  0.00    +0.000 A 
ATOM     26  C   UNL     1      45.923   5.237  13.327  0.00  0.00    +0.000 A 
BRANCH  24  27
ATOM     27  C   UNL     1      44.048   2.974  10.938  0.00  0.00    +0.000 C 
ATOM     28  N   UNL     1      44.608   2.316   9.876  0.00  0.00    +0.000 N 
ATOM     29  O   UNL     1      42.969   2.623  11.394  0.00  0.00    +0.000 OA
ATOM     30  H   UNL     1      45.385   2.679   9.345  0.00  0.00    +0.000 HD
ATOM     31  H   UNL     1      44.068   1.564   9.469  0.00  0.00    +0.000 HD
ENDBRANCH  24  27
ENDBRANCH  19  21
ENDBRANCH   1  19
TORSDOF 6
ENDMDL
MODEL 5
REMARK VINA RESULT:    -6.764      3.245      8.090
REMARK INTER + INTRA:          -9.313
REMARK INTER:                  -8.533
REMARK INTRA:                  -0.780
REMARK UNBOUND:                -0.176
REMARK  Name = 
REMARK  6 active torsions:
REMARK  status: ('A' for Active; 'I' for Inactive)
REMARK    1  A    between atoms: C_2  and  C_3
REMARK    2  A    between atoms: C_6  and  C_7
REMARK    3  A    between atoms: C_11  and  C_12
REMARK    4  A    between atoms: C_12  and  N_13
REMARK    5  A    between atoms: N_13  and  C_14
REMARK    6  A    between atoms: C_17  and  C_18
REMARK                            x       y       z     vdW  Elec       q    Type
REMARK                         _______ _______ _______ _____ _____    ______ ____
ROOT
ATOM      1  C   UNL     1      46.284   7.996  12.597  0.00  0.00    +0.000 C 
ATOM      2  C   UNL     1      45.756   9.254  13.265  0.00  0.00    +0.000 C 
ATOM      3  C   UNL     1      46.516   9.387  11.997  0.00  0.00    +0.000 C 
ATOM      4  F   UNL     1      47.799   9.904  12.069  0.00  0.00    +0.000 F 
ENDROOT
BRANCH   1   9
ATOM      5  C   UNL     1      44.829   5.201  10.372  0.00  0.00    +0.000 A 
ATOM      6  C   UNL     1      43.478   5.470  10.607  0.00  0.00    +0.000 A 
ATOM      7  N   UNL     1      43.007   6.495  11.350  0.00  0.00    +0.000 NA
ATOM      8  C   UNL     1      43.932   7.292  11.928  0.00  0.00    +0.000 A 
ATOM      9  C   UNL     1      45.309   7.108  11.840  0.00  0.00    +0.000 A 
ATOM     10  C   UNL     1      45.736   6.059  11.012  0.00  0.00    +0.000 A 
BRANCH   5  14
ATOM     11  C   UNL     1      46.157   1.959   7.852  0.00  0.00    +0.000 A 
ATOM     12  C   UNL     1      46.503   3.275   7.547  0.00  0.00    +0.000 A 
ATOM     13  C   UNL     1      46.070   4.323   8.366  0.00  0.00    +0.000 A 
ATOM     14  C   UNL     1      45.273   4.090   9.502  0.00  0.00    +0.000 A 
ATOM     15  C   UNL     1      44.926   2.754   9.781  0.00  0.00    +0.000 A 
ATOM     16  C   UNL     1      45.367   1.699   8.972  0.00  0.00    +0.000 A 
BRANCH  11  18
ATOM     17  N   UNL     1      46.981   0.012   6.351  0.00  0.00    +0.000 NA
ATOM     18  C   UNL     1      46.611   0.885   7.024  0.00  0.00    +0.000 C 
ENDBRANCH  11  18
ENDBRANCH   5  14
ENDBRANCH   1   9
BRANCH   1  19
ATOM     19  N   UNL     1      47.492   7.293  13.045  0.00  0.00    +0.000 N 
ATOM     20  H   UNL     1      48.360   7.553  12.585  0.00  0.00    +0.000 HD
BRANCH  19  21
ATOM     21  C   UNL     1      47.658   6.450  14.153  0.00  0.00    +0.000 A 
ATOM     22  C   UNL     1      48.461   6.728  15.261  0.00  0.00    +0.000 A 
ATOM     23  C   UNL     1      48.572   5.803  16.315  0.00  0.00    +0.000 A 
ATOM     24  C   UNL     1      47.859   4.597  16.287  0.00  0.00    +0.000 A 
ATOM     25  C   UNL     1      47.024   4.327  15.203  0.00  0.00    +0.000 A 
ATOM     26  C   UNL     1      46.926   5.248  14.157  0.00  0.00    +0.000 A 
BRANCH  24  27
ATOM     27  C   UNL     1      48.054   3.605  17.379  0.00  0.00    +0.000 C 
ATOM     28  N   UNL     1      47.014   2.763  17.664  0.00  0.00    +0.000 N 
ATOM     29  O   UNL     1      49.101   3.545  18.009  0.00  0.00    +0.000 OA
ATOM     30  H   UNL     1      46.077   2.899  17.315  0.00  0.00    +0.000 HD
ATOM     31  H   UNL     1      47.140   2.128  18.441  0.00  0.00    +0.000 HD
ENDBRANCH  24  27
ENDBRANCH  19  21
ENDBRANCH   1  19
TORSDOF 6
ENDMDL
MODEL 6
REMARK VINA RESULT:    -6.606      4.194      7.715
REMARK INTER + INTRA:          -9.099
REMARK INTER:                  -8.428
REMARK INTRA:                  -0.671
REMARK UNBOUND:                -0.176
REMARK  Name = 
REMARK  6 active torsions:
REMARK  status: ('A' for Active; 'I' for Inactive)
REMARK    1  A    between atoms: C_2  and  C_3
REMARK    2  A    between atoms: C_6  and  C_7
REMARK    3  A    between atoms: C_11  and  C_12
REMARK    4  A    between atoms: C_12  and  N_13
REMARK    5  A    between atoms: N_13  and  C_14
REMARK    6  A    between atoms: C_17  and  C_18
REMARK                            x       y       z     vdW  Elec       q    Type
REMARK                         _______ _______ _______ _____ _____    ______ ____
ROOT
ATOM      1  C   UNL     1      43.817   8.362  11.630  0.00  0.00    +0.000 C 
ATOM      2  C   UNL     1      42.646   9.292  11.366  0.00  0.00    +0.000 C 
ATOM      3  C   UNL     1      43.777   9.282  10.405  0.00  0.00    +0.000 C 
ATOM      4  F   UNL     1      44.628  10.376  10.404  0.00  0.00    +0.000 F 
ENDROOT
BRANCH   1   9
ATOM      5  C   UNL     1      44.344   4.813  10.213  0.00  0.00    +0.000 A 
ATOM      6  C   UNL     1      43.366   4.169  10.976  0.00  0.00    +0.000 A 
ATOM      7  N   UNL     1      42.524   4.780  11.838  0.00  0.00    +0.000 NA
ATOM      8  C   UNL     1      42.678   6.113  11.982  0.00  0.00    +0.000 A 
ATOM      9  C   UNL     1      43.650   6.878  11.343  0.00  0.00    +0.000 A 
ATOM     10  C   UNL     1      44.459   6.195  10.421  0.00  0.00    +0.000 A 
BRANCH   5  14
ATOM     11  C   UNL     1      46.802   2.690   7.371  0.00  0.00    +0.000 A 
ATOM     12  C   UNL     1      46.004   1.989   8.274  0.00  0.00    +0.000 A 
ATOM     13  C   UNL     1      45.210   2.681   9.194  0.00  0.00    +0.000 A 
ATOM     14  C   UNL     1      45.197   4.086   9.246  0.00  0.00    +0.000 A 
ATOM     15  C   UNL     1      46.021   4.772   8.333  0.00  0.00    +0.000 A 
ATOM     16  C   UNL     1      46.809   4.086   7.401  0.00  0.00    +0.000 A 
BRANCH  11  18
ATOM     17  N   UNL     1      48.256   1.411   5.648  0.00  0.00    +0.000 NA
ATOM     18  C   UNL     1      47.604   1.985   6.420  0.00  0.00    +0.000 C 
ENDBRANCH  11  18
ENDBRANCH   5  14
ENDBRANCH   1   9
BRANCH   1  19
ATOM     19  N   UNL     1      44.876   8.656  12.604  0.00  0.00    +0.000 N 
ATOM     20  H   UNL     1      44.569   8.905  13.540  0.00  0.00    +0.000 HD
BRANCH  19  21
ATOM     21  C   UNL     1      46.258   8.454  12.486  0.00  0.00    +0.000 A 
ATOM     22  C   UNL     1      46.904   7.223  12.612  0.00  0.00    +0.000 A 
ATOM     23  C   UNL     1      48.303   7.132  12.492  0.00  0.00    +0.000 A 
ATOM     24  C   UNL     1      49.073   8.270  12.219  0.00  0.00    +0.000 A 
ATOM     25  C   UNL     1      48.434   9.499  12.054  0.00  0.00    +0.000 A 
ATOM     26  C   UNL     1      47.045   9.580  12.181  0.00  0.00    +0.000 A 
BRANCH  24  27
ATOM     27  C   UNL     1      50.556   8.157  12.174  0.00  0.00    +0.000 C 
ATOM     28  N   UNL     1      51.097   7.273  11.281  0.00  0.00    +0.000 N 
ATOM     29  O   UNL     1      51.271   8.821  12.912  0.00  0.00    +0.000 OA
ATOM     30  H   UNL     1      50.558   6.571  10.797  0.00  0.00    +0.000 HD
ATOM     31  H   UNL     1      52.104   7.168  11.295  0.00  0.00    +0.000 HD
ENDBRANCH  24  27
ENDBRANCH  19  21
ENDBRANCH   1  19
TORSDOF 6
ENDMDL
MODEL 7
REMARK VINA RESULT:    -6.424      4.331      8.428
REMARK INTER + INTRA:          -8.853
REMARK INTER:                  -7.798
REMARK INTRA:                  -1.055
REMARK UNBOUND:                -0.176
REMARK  Name = 
REMARK  6 active torsions:
REMARK  status: ('A' for Active; 'I' for Inactive)
REMARK    1  A    between atoms: C_2  and  C_3
REMARK    2  A    between atoms: C_6  and  C_7
REMARK    3  A    between atoms: C_11  and  C_12
REMARK    4  A    between atoms: C_12  and  N_13
REMARK    5  A    between atoms: N_13  and  C_14
REMARK    6  A    between atoms: C_17  and  C_18
REMARK                            x       y       z     vdW  Elec       q    Type
REMARK                         _______ _______ _______ _____ _____    ______ ____
ROOT
ATOM      1  C   UNL     1      49.647   9.538  12.309  0.00  0.00    +0.000 C 
ATOM      2  C   UNL     1      50.450  10.113  11.156  0.00  0.00    +0.000 C 
ATOM      3  C   UNL     1      50.486   8.648  11.386  0.00  0.00    +0.000 C 
ATOM      4  F   UNL     1      51.650   8.108  11.909  0.00  0.00    +0.000 F 
ENDROOT
BRANCH   1   9
ATOM      5  C   UNL     1      46.102   8.051  11.996  0.00  0.00    +0.000 A 
ATOM      6  C   UNL     1      45.399   9.258  12.010  0.00  0.00    +0.000 A 
ATOM      7  N   UNL     1      45.963  10.486  12.040  0.00  0.00    +0.000 NA
ATOM      8  C   UNL     1      47.311  10.525  12.095  0.00  0.00    +0.000 A 
ATOM      9  C   UNL     1      48.140   9.408  12.157  0.00  0.00    +0.000 A 
ATOM     10  C   UNL     1      47.498   8.163  12.067  0.00  0.00    +0.000 A 
BRANCH   5  14
ATOM     11  C   UNL     1      44.141   4.214  11.748  0.00  0.00    +0.000 A 
ATOM     12  C   UNL     1      44.961   4.654  10.709  0.00  0.00    +0.000 A 
ATOM     13  C   UNL     1      45.594   5.899  10.793  0.00  0.00    +0.000 A 
ATOM     14  C   UNL     1      45.419   6.741  11.906  0.00  0.00    +0.000 A 
ATOM     15  C   UNL     1      44.576   6.280  12.936  0.00  0.00    +0.000 A 
ATOM     16  C   UNL     1      43.950   5.030  12.864  0.00  0.00    +0.000 A 
BRANCH  11  18
ATOM     17  N   UNL     1      42.988   1.897  11.607  0.00  0.00    +0.000 NA
ATOM     18  C   UNL     1      43.504   2.936  11.671  0.00  0.00    +0.000 C 
ENDBRANCH  11  18
ENDBRANCH   5  14
ENDBRANCH   1   9
BRANCH   1  19
ATOM     19  N   UNL     1      50.093   9.593  13.707  0.00  0.00    +0.000 N 
ATOM     20  H   UNL     1      50.710  10.361  13.953  0.00  0.00    +0.000 HD
BRANCH  19  21
ATOM     21  C   UNL     1      49.635   8.848  14.804  0.00  0.00    +0.000 A 
ATOM     22  C   UNL     1      48.840   9.347  15.838  0.00  0.00    +0.000 A 
ATOM     23  C   UNL     1      48.449   8.518  16.905  0.00  0.00    +0.000 A 
ATOM     24  C   UNL     1      48.826   7.169  16.938  0.00  0.00    +0.000 A 
ATOM     25  C   UNL     1      49.589   6.651  15.891  0.00  0.00    +0.000 A 
ATOM     26  C   UNL     1      49.978   7.485  14.840  0.00  0.00    +0.000 A 
BRANCH  24  27
ATOM     27  C   UNL     1      48.463   6.336  18.116  0.00  0.00    +0.000 C 
ATOM     28  N   UNL     1      47.135   6.219  18.424  0.00  0.00    +0.000 N 
ATOM     29  O   UNL     1      49.315   5.780  18.795  0.00  0.00    +0.000 OA
ATOM     30  H   UNL     1      46.417   6.806  18.024  0.00  0.00    +0.000 HD
ATOM     31  H   UNL     1      46.903   5.692  19.256  0.00  0.00    +0.000 HD
ENDBRANCH  24  27
ENDBRANCH  19  21
ENDBRANCH   1  19
TORSDOF 6
ENDMDL
