MODEL 1
REMARK VINA RESULT:    -7.948      0.000      0.000
REMARK INTER + INTRA:         -10.839
REMARK INTER:                 -10.735
REMARK INTRA:                  -0.103
REMARK UNBOUND:                -0.103
REMARK  Name = 
REMARK  8 active torsions:
REMARK  status: ('A' for Active; 'I' for Inactive)
REMARK    1  A    between atoms: C_1  and  C_2
REMARK    2  A    between atoms: C_4  and  C_5
REMARK    3  A    between atoms: C_10  and  N_11
REMARK    4  A    between atoms: N_11  and  C_12
REMARK    5  A    between atoms: N_11  and  C_13
REMARK    6  A    between atoms: C_13  and  C_14
REMARK    7  A    between atoms: C_17  and  O_18
REMARK    8  A    between atoms: O_18  and  C_19
REMARK                            x       y       z     vdW  Elec       q    Type
REMARK                         _______ _______ _______ _____ _____    ______ ____
ROOT
ATOM      1  N   UNL     1      45.562   5.053  12.523  0.00  0.00    +0.000 N 
ATOM      2  C   UNL     1      46.057   4.520  13.806  0.00  0.00    +0.000 C 
ENDROOT
BRANCH   1   9
ATOM      3  C   UNL     1      48.405   6.368  12.713  0.00  0.00    +0.000 C 
ATOM      4  C   UNL     1      47.106   7.048  12.426  0.00  0.00    +0.000 A 
ATOM      5  C   UNL     1      47.193   8.456  12.249  0.00  0.00    +0.000 A 
ATOM      6  C   UNL     1      46.079   9.231  11.945  0.00  0.00    +0.000 A 
ATOM      7  C   UNL     1      44.897   8.551  11.829  0.00  0.00    +0.000 A 
ATOM      8  N   UNL     1      44.783   7.211  12.004  0.00  0.00    +0.000 NA
ATOM      9  C   UNL     1      45.856   6.421  12.311  0.00  0.00    +0.000 A 
BRANCH   6  10
ATOM     10  C   UNL     1      46.223  10.697  11.770  0.00  0.00    +0.000 C 
ATOM     11  N   UNL     1      45.182  11.516  12.111  0.00  0.00    +0.000 N 
ATOM     12  O   UNL     1      47.262  11.184  11.331  0.00  0.00    +0.000 OA
ATOM     13  H   UNL     1      44.288  11.227  12.474  0.00  0.00    +0.000 HD
ATOM     14  H   UNL     1      45.327  12.509  11.970  0.00  0.00    +0.000 HD
ENDBRANCH   6  10
ENDBRANCH   1   9
BRANCH   1  15
ATOM     15  C   UNL     1      44.630   4.130  11.782  0.00  0.00    +0.000 C 
ATOM     16  C   UNL     1      43.133   4.321  12.140  0.00  0.00    +0.000 C 
ATOM     17  C   UNL     1      43.799   3.039  12.463  0.00  0.00    +0.000 C 
BRANCH  15  18
ATOM     18  C   UNL     1      44.875   3.948  10.258  0.00  0.00    +0.000 A 
ATOM     19  C   UNL     1      45.533   4.933   9.493  0.00  0.00    +0.000 A 
ATOM     20  C   UNL     1      45.954   4.710   8.175  0.00  0.00    +0.000 A 
ATOM     21  C   UNL     1      45.755   3.469   7.588  0.00  0.00    +0.000 A 
ATOM     22  C   UNL     1      45.026   2.507   8.279  0.00  0.00    +0.000 A 
ATOM     23  C   UNL     1      44.607   2.739   9.596  0.00  0.00    +0.000 A 
BRANCH  21  24
ATOM     24  O   UNL     1      46.193   3.098   6.354  0.00  0.00    +0.000 OA
BRANCH  24  25
ATOM     25  C   UNL     1      47.313   2.226   6.267  0.00  0.00    +0.000 C 
ATOM     26  F   UNL     1      47.949   2.248   5.077  0.00  0.00    +0.000 F 
ATOM     27  F   UNL     1      48.210   2.581   7.215  0.00  0.00    +0.000 F 
ATOM     28  F   UNL     1      46.912   0.962   6.523  0.00  0.00    +0.000 F 
ENDBRANCH  24  25
ENDBRANCH  21  24
ENDBRANCH  15  18
ENDBRANCH   1  15
TORSDOF 6
ENDMDL
MODEL 2
REMARK VINA RESULT:    -7.747      4.539      7.341
REMARK INTER + INTRA:         -10.567
REMARK INTER:                 -10.444
REMARK INTRA:                  -0.123
REMARK UNBOUND:                -0.103
REMARK  Name = 
REMARK  8 active torsions:
REMARK  status: ('A' for Active; 'I' for Inactive)
REMARK    1  A    between atoms: C_1  and  C_2
REMARK    2  A    between atoms: C_4  and  C_5
REMARK    3  A    between atoms: C_10  and  N_11
REMARK    4  A    between atoms: N_11  and  C_12
REMARK    5  A    between atoms: N_11  and  C_13
REMARK    6  A    between atoms: C_13  and  C_14
REMARK    7  A    between atoms: C_17  and  O_18
REMARK    8  A    between atoms: O_18  and  C_19
REMARK                            x       y       z     vdW  Elec       q    Type
REMARK                         _______ _______ _______ _____ _____    ______ ____
ROOT
ATOM      1  N   UNL     1      44.069   3.788  10.906  0.00  0.00    +0.000 N 
ATOM      2  C   UNL     1      43.368   2.616  11.463  0.00  0.00    +0.000 C 
ENDROOT
BRANCH   1   9
ATOM      3  C   UNL     1      45.778   5.868   9.294  0.00  0.00    +0.000 C 
ATOM      4  C   UNL     1      45.658   4.401   9.043  0.00  0.00    +0.000 A 
ATOM      5  C   UNL     1      46.393   3.923   7.923  0.00  0.00    +0.000 A 
ATOM      6  C   UNL     1      46.411   2.576   7.574  0.00  0.00    +0.000 A 
ATOM      7  C   UNL     1      45.678   1.746   8.377  0.00  0.00    +0.000 A 
ATOM      8  N   UNL     1      44.960   2.176   9.443  0.00  0.00    +0.000 NA
ATOM      9  C   UNL     1      44.913   3.493   9.809  0.00  0.00    +0.000 A 
BRANCH   6  10
ATOM     10  C   UNL     1      47.194   2.129   6.396  0.00  0.00    +0.000 C 
ATOM     11  N   UNL     1      47.275   2.944   5.300  0.00  0.00    +0.000 N 
ATOM     12  O   UNL     1      47.773   1.046   6.393  0.00  0.00    +0.000 OA
ATOM     13  H   UNL     1      46.840   3.846   5.192  0.00  0.00    +0.000 HD
ATOM     14  H   UNL     1      47.818   2.593   4.520  0.00  0.00    +0.000 HD
ENDBRANCH   6  10
ENDBRANCH   1   9
BRANCH   1  15
ATOM     15  C   UNL     1      43.958   5.036  11.742  0.00  0.00    +0.000 C 
ATOM     16  C   UNL     1      42.605   5.181  12.488  0.00  0.00    +0.000 C 
ATOM     17  C   UNL     1      42.970   6.168  11.447  0.00  0.00    +0.000 C 
BRANCH  15  18
ATOM     18  C   UNL     1      45.183   5.413  12.622  0.00  0.00    +0.000 A 
ATOM     19  C   UNL     1      45.939   4.431  13.294  0.00  0.00    +0.000 A 
ATOM     20  C   UNL     1      47.162   4.714  13.916  0.00  0.00    +0.000 A 
ATOM     21  C   UNL     1      47.687   5.996  13.855  0.00  0.00    +0.000 A 
ATOM     22  C   UNL     1      46.924   7.009  13.283  0.00  0.00    +0.000 A 
ATOM     23  C   UNL     1      45.701   6.717  12.665  0.00  0.00    +0.000 A 
BRANCH  21  24
ATOM     24  O   UNL     1      48.900   6.379  14.339  0.00  0.00    +0.000 OA
BRANCH  24  25
ATOM     25  C   UNL     1      49.010   6.685  15.724  0.00  0.00    +0.000 C 
ATOM     26  F   UNL     1      48.221   5.939  16.526  0.00  0.00    +0.000 F 
ATOM     27  F   UNL     1      50.290   6.484  16.110  0.00  0.00    +0.000 F 
ATOM     28  F   UNL     1      48.715   7.990  15.914  0.00  0.00    +0.000 F 
ENDBRANCH  24  25
ENDBRANCH  21  24
ENDBRANCH  15  18
ENDBRANCH   1  15
TORSDOF 6
ENDMDL
MODEL 3
REMARK VINA RESULT:    -7.684      1.770      2.411
REMARK INTER + INTRA:         -10.483
REMARK INTER:                 -10.156
REMARK INTRA:                  -0.327
REMARK UNBOUND:                -0.103
REMARK  Name = 
REMARK  8 active torsions:
REMARK  status: ('A' for Active; 'I' for Inactive)
REMARK    1  A    between atoms: C_1  and  C_2
REMARK    2  A    between atoms: C_4  and  C_5
REMARK    3  A    between atoms: C_10  and  N_11
REMARK    4  A    between atoms: N_11  and  C_12
REMARK    5  A    between atoms: N_11  and  C_13
REMARK    6  A    between atoms: C_13  and  C_14
REMARK    7  A    between atoms: C_17  and  O_18
REMARK    8  A    between atoms: O_18  and  C_19
REMARK                            x       y       z     vdW  Elec       q    Type
REMARK                         _______ _______ _______ _____ _____    ______ ____
ROOT
ATOM      1  N   UNL     1      46.135   5.155  13.060  0.00  0.00    +0.000 N 
ATOM      2  C   UNL     1      46.422   4.501  14.350  0.00  0.00    +0.000 C 
ENDROOT
BRANCH   1   9
ATOM      3  C   UNL     1      45.146   8.071  12.452  0.00  0.00    +0.000 C 
ATOM      4  C   UNL     1      46.554   7.572  12.463  0.00  0.00    +0.000 A 
ATOM      5  C   UNL     1      47.537   8.545  12.132  0.00  0.00    +0.000 A 
ATOM      6  C   UNL     1      48.896   8.249  12.128  0.00  0.00    +0.000 A 
ATOM      7  C   UNL     1      49.223   6.963  12.463  0.00  0.00    +0.000 A 
ATOM      8  N   UNL     1      48.307   6.013  12.772  0.00  0.00    +0.000 NA
ATOM      9  C   UNL     1      46.964   6.268  12.777  0.00  0.00    +0.000 A 
BRANCH   6  10
ATOM     10  C   UNL     1      49.881   9.301  11.776  0.00  0.00    +0.000 C 
ATOM     11  N   UNL     1      51.188   9.141  12.146  0.00  0.00    +0.000 N 
ATOM     12  O   UNL     1      49.543  10.304  11.154  0.00  0.00    +0.000 OA
ATOM     13  H   UNL     1      51.575   8.365  12.658  0.00  0.00    +0.000 HD
ATOM     14  H   UNL     1      51.822   9.888  11.885  0.00  0.00    +0.000 HD
ENDBRANCH   6  10
ENDBRANCH   1   9
BRANCH   1  15
ATOM     15  C   UNL     1      44.871   4.686  12.389  0.00  0.00    +0.000 C 
ATOM     16  C   UNL     1      43.598   5.456  12.827  0.00  0.00    +0.000 C 
ATOM     17  C   UNL     1      43.716   4.013  13.134  0.00  0.00    +0.000 C 
BRANCH  15  18
ATOM     18  C   UNL     1      44.934   4.431  10.856  0.00  0.00    +0.000 A 
ATOM     19  C   UNL     1      45.620   5.306   9.989  0.00  0.00    +0.000 A 
ATOM     20  C   UNL     1      45.872   4.995   8.647  0.00  0.00    +0.000 A 
ATOM     21  C   UNL     1      45.470   3.770   8.134  0.00  0.00    +0.000 A 
ATOM     22  C   UNL     1      44.709   2.924   8.934  0.00  0.00    +0.000 A 
ATOM     23  C   UNL     1      44.459   3.244  10.275  0.00  0.00    +0.000 A 
BRANCH  21  24
ATOM     24  O   UNL     1      45.730   3.314   6.879  0.00  0.00    +0.000 OA
BRANCH  24  25
ATOM     25  C   UNL     1      46.891   2.517   6.677  0.00  0.00    +0.000 C 
ATOM     26  F   UNL     1      46.818   1.278   7.207  0.00  0.00    +0.000 F 
ATOM     27  F   UNL     1      47.094   2.380   5.347  0.00  0.00    +0.000 F 
ATOM     28  F   UNL     1      47.962   3.152   7.201  0.00  0.00    +0.000 F 
ENDBRANCH  24  25
ENDBRANCH  21  24
ENDBRANCH  15  18
ENDBRANCH   1  15
TORSDOF 6
ENDMDL
MODEL 4
REMARK VINA RESULT:    -7.622      2.062      3.019
REMARK INTER + INTRA:         -10.398
REMARK INTER:                 -10.394
REMARK INTRA:                  -0.004
REMARK UNBOUND:                -0.103
REMARK  Name = 
REMARK  8 active torsions:
REMARK  status: ('A' for Active; 'I' for Inactive)
REMARK    1  A    between atoms: C_1  and  C_2
REMARK    2  A    between atoms: C_4  and  C_5
REMARK    3  A    between atoms: C_10  and  N_11
REMARK    4  A    between atoms: N_11  and  C_12
REMARK    5  A    between atoms: N_11  and  C_13
REMARK    6  A    between atoms: C_13  and  C_14
REMARK    7  A    between atoms: C_17  and  O_18
REMARK    8  A    between atoms: O_18  and  C_19
REMARK                            x       y       z     vdW  Elec       q    Type
REMARK                         _______ _______ _______ _____ _____    ______ ____
ROOT
ATOM      1  N   UNL     1      44.952   6.330  12.016  0.00  0.00    +0.000 N 
ATOM      2  C   UNL     1      44.452   7.596  11.446  0.00  0.00    +0.000 C 
ENDROOT
BRANCH   1   9
ATOM      3  C   UNL     1      46.496   3.996  13.434  0.00  0.00    +0.000 C 
ATOM      4  C   UNL     1      46.813   5.455  13.479  0.00  0.00    +0.000 A 
ATOM      5  C   UNL     1      47.932   5.801  14.286  0.00  0.00    +0.000 A 
ATOM      6  C   UNL     1      48.376   7.113  14.408  0.00  0.00    +0.000 A 
ATOM      7  C   UNL     1      47.666   8.047  13.702  0.00  0.00    +0.000 A 
ATOM      8  N   UNL     1      46.589   7.747  12.935  0.00  0.00    +0.000 NA
ATOM      9  C   UNL     1      46.122   6.469  12.800  0.00  0.00    +0.000 A 
BRANCH   6  10
ATOM     10  C   UNL     1      49.549   7.421  15.261  0.00  0.00    +0.000 C 
ATOM     11  N   UNL     1      50.804   7.344  14.723  0.00  0.00    +0.000 N 
ATOM     12  O   UNL     1      49.410   7.747  16.437  0.00  0.00    +0.000 OA
ATOM     13  H   UNL     1      51.035   7.085  13.777  0.00  0.00    +0.000 HD
ATOM     14  H   UNL     1      51.574   7.560  15.346  0.00  0.00    +0.000 HD
ENDBRANCH   6  10
ENDBRANCH   1   9
BRANCH   1  15
ATOM     15  C   UNL     1      44.283   5.095  11.472  0.00  0.00    +0.000 C 
ATOM     16  C   UNL     1      42.738   5.199  11.379  0.00  0.00    +0.000 C 
ATOM     17  C   UNL     1      43.345   4.207  12.295  0.00  0.00    +0.000 C 
BRANCH  15  18
ATOM     18  C   UNL     1      44.926   4.431  10.222  0.00  0.00    +0.000 A 
ATOM     19  C   UNL     1      44.654   3.093   9.873  0.00  0.00    +0.000 A 
ATOM     20  C   UNL     1      45.047   2.536   8.649  0.00  0.00    +0.000 A 
ATOM     21  C   UNL     1      45.703   3.322   7.712  0.00  0.00    +0.000 A 
ATOM     22  C   UNL     1      46.071   4.617   8.061  0.00  0.00    +0.000 A 
ATOM     23  C   UNL     1      45.677   5.165   9.289  0.00  0.00    +0.000 A 
BRANCH  21  24
ATOM     24  O   UNL     1      46.057   2.929   6.459  0.00  0.00    +0.000 OA
BRANCH  24  25
ATOM     25  C   UNL     1      47.228   2.136   6.304  0.00  0.00    +0.000 C 
ATOM     26  F   UNL     1      47.860   2.298   5.122  0.00  0.00    +0.000 F 
ATOM     27  F   UNL     1      48.102   2.463   7.283  0.00  0.00    +0.000 F 
ATOM     28  F   UNL     1      46.904   0.833   6.449  0.00  0.00    +0.000 F 
ENDBRANCH  24  25
ENDBRANCH  21  24
ENDBRANCH  15  18
ENDBRANCH   1  15
TORSDOF 6
ENDMDL
MODEL 5
REMARK VINA RESULT:    -6.973      5.847      8.088
REMARK INTER + INTRA:          -9.522
REMARK INTER:                  -8.777
REMARK INTRA:                  -0.744
REMARK UNBOUND:                -0.103
REMARK  Name = 
REMARK  8 active torsions:
REMARK  status: ('A' for Active; 'I' for Inactive)
REMARK    1  A    between atoms: C_1  and  C_2
REMARK    2  A    between atoms: C_4  and  C_5
REMARK    3  A    between atoms: C_10  and  N_11
REMARK    4  A    between atoms: N_11  and  C_12
REMARK    5  A    between atoms: N_11  and  C_13
REMARK    6  A    between atoms: C_13  and  C_14
REMARK    7  A    between atoms: C_17  and  O_18
REMARK    8  A    between atoms: O_18  and  C_19
REMARK                            x       y       z     vdW  Elec       q    Type
REMARK                         _______ _______ _______ _____ _____    ______ ____
ROOT
ATOM      1  N   UNL     1      48.675   5.528  16.831  0.00  0.00    +0.000 N 
ATOM      2  C   UNL     1      47.852   5.945  17.982  0.00  0.00    +0.000 C 
ENDROOT
BRANCH   1   9
ATOM      3  C   UNL     1      51.510   5.972  18.101  0.00  0.00    +0.000 C 
ATOM      4  C   UNL     1      50.904   4.681  17.658  0.00  0.00    +0.000 A 
ATOM      5  C   UNL     1      51.740   3.541  17.817  0.00  0.00    +0.000 A 
ATOM      6  C   UNL     1      51.313   2.260  17.482  0.00  0.00    +0.000 A 
ATOM      7  C   UNL     1      50.039   2.171  16.990  0.00  0.00    +0.000 A 
ATOM      8  N   UNL     1      49.225   3.241  16.817  0.00  0.00    +0.000 NA
ATOM      9  C   UNL     1      49.616   4.514  17.128  0.00  0.00    +0.000 A 
BRANCH   6  10
ATOM     10  C   UNL     1      52.224   1.105  17.668  0.00  0.00    +0.000 C 
ATOM     11  N   UNL     1      51.740  -0.041  18.238  0.00  0.00    +0.000 N 
ATOM     12  O   UNL     1      53.399   1.160  17.315  0.00  0.00    +0.000 OA
ATOM     13  H   UNL     1      50.801  -0.195  18.566  0.00  0.00    +0.000 HD
ATOM     14  H   UNL     1      52.401  -0.801  18.347  0.00  0.00    +0.000 HD
ENDBRANCH   6  10
ENDBRANCH   1   9
BRANCH   1  15
ATOM     15  C   UNL     1      48.542   6.409  15.617  0.00  0.00    +0.000 C 
ATOM     16  C   UNL     1      49.877   7.045  15.146  0.00  0.00    +0.000 C 
ATOM     17  C   UNL     1      48.788   7.920  15.636  0.00  0.00    +0.000 C 
BRANCH  15  18
ATOM     18  C   UNL     1      47.673   5.875  14.444  0.00  0.00    +0.000 A 
ATOM     19  C   UNL     1      47.111   4.583  14.469  0.00  0.00    +0.000 A 
ATOM     20  C   UNL     1      46.160   4.153  13.535  0.00  0.00    +0.000 A 
ATOM     21  C   UNL     1      45.711   5.027  12.555  0.00  0.00    +0.000 A 
ATOM     22  C   UNL     1      46.313   6.276  12.442  0.00  0.00    +0.000 A 
ATOM     23  C   UNL     1      47.266   6.697  13.380  0.00  0.00    +0.000 A 
BRANCH  21  24
ATOM     24  O   UNL     1      44.732   4.765  11.648  0.00  0.00    +0.000 OA
BRANCH  24  25
ATOM     25  C   UNL     1      43.379   4.784  12.089  0.00  0.00    +0.000 C 
ATOM     26  F   UNL     1      43.185   5.411  13.269  0.00  0.00    +0.000 F 
ATOM     27  F   UNL     1      42.632   5.423  11.161  0.00  0.00    +0.000 F 
ATOM     28  F   UNL     1      42.927   3.516  12.191  0.00  0.00    +0.000 F 
ENDBRANCH  24  25
ENDBRANCH  21  24
ENDBRANCH  15  18
ENDBRANCH   1  15
TORSDOF 6
ENDMDL
MODEL 6
REMARK VINA RESULT:    -6.730      3.866      5.541
REMARK INTER + INTRA:          -9.194
REMARK INTER:                  -8.845
REMARK INTRA:                  -0.349
REMARK UNBOUND:                -0.103
REMARK  Name = 
REMARK  8 active torsions:
REMARK  status: ('A' for Active; 'I' for Inactive)
REMARK    1  A    between atoms: C_1  and  C_2
REMARK    2  A    between atoms: C_4  and  C_5
REMARK    3  A    between atoms: C_10  and  N_11
REMARK    4  A    between atoms: N_11  and  C_12
REMARK    5  A    between atoms: N_11  and  C_13
REMARK    6  A    between atoms: C_13  and  C_14
REMARK    7  A    between atoms: C_17  and  O_18
REMARK    8  A    between atoms: O_18  and  C_19
REMARK                            x       y       z     vdW  Elec       q    Type
REMARK                         _______ _______ _______ _____ _____    ______ ____
ROOT
ATOM      1  N   UNL     1      48.145   7.108  13.710  0.00  0.00    +0.000 N 
ATOM      2  C   UNL     1      49.366   6.984  12.892  0.00  0.00    +0.000 C 
ENDROOT
BRANCH   1   9
ATOM      3  C   UNL     1      48.715   9.136  16.037  0.00  0.00    +0.000 C 
ATOM      4  C   UNL     1      48.619   7.648  16.130  0.00  0.00    +0.000 A 
ATOM      5  C   UNL     1      48.841   7.114  17.430  0.00  0.00    +0.000 A 
ATOM      6  C   UNL     1      48.757   5.750  17.691  0.00  0.00    +0.000 A 
ATOM      7  C   UNL     1      48.447   4.960  16.618  0.00  0.00    +0.000 A 
ATOM      8  N   UNL     1      48.241   5.441  15.367  0.00  0.00    +0.000 NA
ATOM      9  C   UNL     1      48.324   6.774  15.074  0.00  0.00    +0.000 A 
BRANCH   6  10
ATOM     10  C   UNL     1      48.997   5.245  19.064  0.00  0.00    +0.000 C 
ATOM     11  N   UNL     1      48.198   4.250  19.558  0.00  0.00    +0.000 N 
ATOM     12  O   UNL     1      49.903   5.698  19.758  0.00  0.00    +0.000 OA
ATOM     13  H   UNL     1      47.428   3.809  19.082  0.00  0.00    +0.000 HD
ATOM     14  H   UNL     1      48.399   3.940  20.502  0.00  0.00    +0.000 HD
ENDBRANCH   6  10
ENDBRANCH   1   9
BRANCH   1  15
ATOM     15  C   UNL     1      46.883   7.328  12.918  0.00  0.00    +0.000 C 
ATOM     16  C   UNL     1      46.868   8.649  12.105  0.00  0.00    +0.000 C 
ATOM     17  C   UNL     1      45.891   8.460  13.202  0.00  0.00    +0.000 C 
BRANCH  15  18
ATOM     18  C   UNL     1      46.323   6.115  12.123  0.00  0.00    +0.000 A 
ATOM     19  C   UNL     1      45.963   4.914  12.766  0.00  0.00    +0.000 A 
ATOM     20  C   UNL     1      45.265   3.888  12.115  0.00  0.00    +0.000 A 
ATOM     21  C   UNL     1      44.874   4.050  10.794  0.00  0.00    +0.000 A 
ATOM     22  C   UNL     1      45.295   5.181  10.102  0.00  0.00    +0.000 A 
ATOM     23  C   UNL     1      45.995   6.201  10.761  0.00  0.00    +0.000 A 
BRANCH  21  24
ATOM     24  O   UNL     1      44.120   3.172  10.078  0.00  0.00    +0.000 OA
BRANCH  24  25
ATOM     25  C   UNL     1      44.751   2.423   9.047  0.00  0.00    +0.000 C 
ATOM     26  F   UNL     1      46.087   2.291   9.189  0.00  0.00    +0.000 F 
ATOM     27  F   UNL     1      44.218   1.180   9.030  0.00  0.00    +0.000 F 
ATOM     28  F   UNL     1      44.496   3.004   7.855  0.00  0.00    +0.000 F 
ENDBRANCH  24  25
ENDBRANCH  21  24
ENDBRANCH  15  18
ENDBRANCH   1  15
TORSDOF 6
ENDMDL
MODEL 7
REMARK VINA RESULT:    -6.714      2.859      4.180
REMARK INTER + INTRA:          -9.172
REMARK INTER:                  -9.937
REMARK INTRA:                   0.765
REMARK UNBOUND:                -0.103
REMARK  Name = 
REMARK  8 active torsions:
REMARK  status: ('A' for Active; 'I' for Inactive)
REMARK    1  A    between atoms: C_1  and  C_2
REMARK    2  A    between atoms: C_4  and  C_5
REMARK    3  A    between atoms: C_10  and  N_11
REMARK    4  A    between atoms: N_11  and  C_12
REMARK    5  A    between atoms: N_11  and  C_13
REMARK    6  A    between atoms: C_13  and  C_14
REMARK    7  A    between atoms: C_17  and  O_18
REMARK    8  A    between atoms: O_18  and  C_19
REMARK                            x       y       z     vdW  Elec       q    Type
REMARK                         _______ _______ _______ _____ _____    ______ ____
ROOT
ATOM      1  N   UNL     1      46.043   5.569  12.560  0.00  0.00    +0.000 N 
ATOM      2  C   UNL     1      46.768   6.384  11.567  0.00  0.00    +0.000 C 
ENDROOT
BRANCH   1   9
ATOM      3  C   UNL     1      47.945   7.673  13.902  0.00  0.00    +0.000 C 
ATOM      4  C   UNL     1      47.617   6.301  14.392  0.00  0.00    +0.000 A 
ATOM      5  C   UNL     1      48.277   5.920  15.593  0.00  0.00    +0.000 A 
ATOM      6  C   UNL     1      48.057   4.687  16.197  0.00  0.00    +0.000 A 
ATOM      7  C   UNL     1      47.166   3.866  15.560  0.00  0.00    +0.000 A 
ATOM      8  N   UNL     1      46.531   4.199  14.409  0.00  0.00    +0.000 NA
ATOM      9  C   UNL     1      46.731   5.399  13.785  0.00  0.00    +0.000 A 
BRANCH   6  10
ATOM     10  C   UNL     1      48.771   4.338  17.449  0.00  0.00    +0.000 C 
ATOM     11  N   UNL     1      50.089   3.978  17.388  0.00  0.00    +0.000 N 
ATOM     12  O   UNL     1      48.200   4.375  18.536  0.00  0.00    +0.000 OA
ATOM     13  H   UNL     1      50.653   3.910  16.556  0.00  0.00    +0.000 HD
ATOM     14  H   UNL     1      50.532   3.746  18.269  0.00  0.00    +0.000 HD
ENDBRANCH   6  10
ENDBRANCH   1   9
BRANCH   1  15
ATOM     15  C   UNL     1      44.825   4.865  12.020  0.00  0.00    +0.000 C 
ATOM     16  C   UNL     1      43.500   5.645  12.223  0.00  0.00    +0.000 C 
ATOM     17  C   UNL     1      43.688   4.342  12.901  0.00  0.00    +0.000 C 
BRANCH  15  18
ATOM     18  C   UNL     1      44.945   4.221  10.610  0.00  0.00    +0.000 A 
ATOM     19  C   UNL     1      45.269   4.989   9.473  0.00  0.00    +0.000 A 
ATOM     20  C   UNL     1      45.589   4.412   8.237  0.00  0.00    +0.000 A 
ATOM     21  C   UNL     1      45.627   3.030   8.110  0.00  0.00    +0.000 A 
ATOM     22  C   UNL     1      45.221   2.245   9.183  0.00  0.00    +0.000 A 
ATOM     23  C   UNL     1      44.900   2.831  10.415  0.00  0.00    +0.000 A 
BRANCH  21  24
ATOM     24  O   UNL     1      46.007   2.348   6.996  0.00  0.00    +0.000 OA
BRANCH  24  25
ATOM     25  C   UNL     1      47.398   2.186   6.744  0.00  0.00    +0.000 C 
ATOM     26  F   UNL     1      47.931   1.057   7.258  0.00  0.00    +0.000 F 
ATOM     27  F   UNL     1      47.593   2.156   5.406  0.00  0.00    +0.000 F 
ATOM     28  F   UNL     1      48.067   3.249   7.241  0.00  0.00    +0.000 F 
ENDBRANCH  24  25
ENDBRANCH  21  24
ENDBRANCH  15  18
ENDBRANCH   1  15
TORSDOF 6
ENDMDL
MODEL 8
REMARK VINA RESULT:    -6.470      5.545      8.778
REMARK INTER + INTRA:          -8.842
REMARK INTER:                  -8.252
REMARK INTRA:                  -0.590
REMARK UNBOUND:                -0.103
REMARK  Name = 
REMARK  8 active torsions:
REMARK  status: ('A' for Active; 'I' for Inactive)
REMARK    1  A    between atoms: C_1  and  C_2
REMARK    2  A    between atoms: C_4  and  C_5
REMARK    3  A    between atoms: C_10  and  N_11
REMARK    4  A    between atoms: N_11  and  C_12
REMARK    5  A    between atoms: N_11  and  C_13
REMARK    6  A    between atoms: C_13  and  C_14
REMARK    7  A    between atoms: C_17  and  O_18
REMARK    8  A    between atoms: O_18  and  C_19
REMARK                            x       y       z     vdW  Elec       q    Type
REMARK                         _______ _______ _______ _____ _____    ______ ____
ROOT
ATOM      1  N   UNL     1      46.772   7.488  12.600  0.00  0.00    +0.000 N 
ATOM      2  C   UNL     1      45.890   8.624  12.928  0.00  0.00    +0.000 C 
ENDROOT
BRANCH   1   9
ATOM      3  C   UNL     1      46.762   4.893  14.364  0.00  0.00    +0.000 C 
ATOM      4  C   UNL     1      46.090   5.099  13.047  0.00  0.00    +0.000 A 
ATOM      5  C   UNL     1      45.394   3.964  12.545  0.00  0.00    +0.000 A 
ATOM      6  C   UNL     1      44.690   4.001  11.346  0.00  0.00    +0.000 A 
ATOM      7  C   UNL     1      44.712   5.198  10.683  0.00  0.00    +0.000 A 
ATOM      8  N   UNL     1      45.375   6.292  11.133  0.00  0.00    +0.000 NA
ATOM      9  C   UNL     1      46.084   6.287  12.302  0.00  0.00    +0.000 A 
BRANCH   6  10
ATOM     10  C   UNL     1      43.981   2.790  10.868  0.00  0.00    +0.000 C 
ATOM     11  N   UNL     1      44.466   2.120   9.778  0.00  0.00    +0.000 N 
ATOM     12  O   UNL     1      42.974   2.378  11.437  0.00  0.00    +0.000 OA
ATOM     13  H   UNL     1      45.277   2.368   9.235  0.00  0.00    +0.000 HD
ATOM     14  H   UNL     1      43.945   1.300   9.487  0.00  0.00    +0.000 HD
ENDBRANCH   6  10
ENDBRANCH   1   9
BRANCH   1  15
ATOM     15  C   UNL     1      48.233   7.732  12.873  0.00  0.00    +0.000 C 
ATOM     16  C   UNL     1      48.897   8.747  11.906  0.00  0.00    +0.000 C 
ATOM     17  C   UNL     1      49.353   7.339  11.906  0.00  0.00    +0.000 C 
BRANCH  15  18
ATOM     18  C   UNL     1      48.653   7.937  14.356  0.00  0.00    +0.000 A 
ATOM     19  C   UNL     1      48.114   8.977  15.139  0.00  0.00    +0.000 A 
ATOM     20  C   UNL     1      48.309   9.060  16.524  0.00  0.00    +0.000 A 
ATOM     21  C   UNL     1      49.031   8.073  17.179  0.00  0.00    +0.000 A 
ATOM     22  C   UNL     1      49.656   7.085  16.425  0.00  0.00    +0.000 A 
ATOM     23  C   UNL     1      49.457   7.012  15.040  0.00  0.00    +0.000 A 
BRANCH  21  24
ATOM     24  O   UNL     1      49.217   7.989  18.524  0.00  0.00    +0.000 OA
BRANCH  24  25
ATOM     25  C   UNL     1      48.143   7.514  19.327  0.00  0.00    +0.000 C 
ATOM     26  F   UNL     1      48.524   6.937  20.487  0.00  0.00    +0.000 F 
ATOM     27  F   UNL     1      47.340   8.558  19.635  0.00  0.00    +0.000 F 
ATOM     28  F   UNL     1      47.418   6.623  18.617  0.00  0.00    +0.000 F 
ENDBRANCH  24  25
ENDBRANCH  21  24
ENDBRANCH  15  18
ENDBRANCH   1  15
TORSDOF 6
ENDMDL
MODEL 9
REMARK VINA RESULT:    -6.037      6.675      9.004
REMARK INTER + INTRA:          -8.258
REMARK INTER:                  -8.129
REMARK INTRA:                  -0.129
REMARK UNBOUND:                -0.103
REMARK  Name = 
REMARK  8 active torsions:
REMARK  status: ('A' for Active; 'I' for Inactive)
REMARK    1  A    between atoms: C_1  and  C_2
REMARK    2  A    between atoms: C_4  and  C_5
REMARK    3  A    between atoms: C_10  and  N_11
REMARK    4  A    between atoms: N_11  and  C_12
REMARK    5  A    between atoms: N_11  and  C_13
REMARK    6  A    between atoms: C_13  and  C_14
REMARK    7  A    between atoms: C_17  and  O_18
REMARK    8  A    between atoms: O_18  and  C_19
REMARK                            x       y       z     vdW  Elec       q    Type
REMARK                         _______ _______ _______ _____ _____    ______ ____
ROOT
ATOM      1  N   UNL     1      50.278   4.914  17.421  0.00  0.00    +0.000 N 
ATOM      2  C   UNL     1      51.039   6.102  16.990  0.00  0.00    +0.000 C 
ENDROOT
BRANCH   1   9
ATOM      3  C   UNL     1      49.292   2.040  16.638  0.00  0.00    +0.000 C 
ATOM      4  C   UNL     1      50.625   2.425  17.190  0.00  0.00    +0.000 A 
ATOM      5  C   UNL     1      51.523   1.341  17.400  0.00  0.00    +0.000 A 
ATOM      6  C   UNL     1      52.814   1.535  17.879  0.00  0.00    +0.000 A 
ATOM      7  C   UNL     1      53.162   2.834  18.135  0.00  0.00    +0.000 A 
ATOM      8  N   UNL     1      52.324   3.884  17.955  0.00  0.00    +0.000 NA
ATOM      9  C   UNL     1      51.046   3.728  17.494  0.00  0.00    +0.000 A 
BRANCH   6  10
ATOM     10  C   UNL     1      53.711   0.371  18.079  0.00  0.00    +0.000 C 
ATOM     11  N   UNL     1      53.928  -0.490  17.038  0.00  0.00    +0.000 N 
ATOM     12  O   UNL     1      54.263   0.174  19.158  0.00  0.00    +0.000 OA
ATOM     13  H   UNL     1      53.528  -0.428  16.117  0.00  0.00    +0.000 HD
ATOM     14  H   UNL     1      54.546  -1.272  17.225  0.00  0.00    +0.000 HD
ENDBRANCH   6  10
ENDBRANCH   1   9
BRANCH   1  15
ATOM     15  C   UNL     1      48.786   5.114  17.472  0.00  0.00    +0.000 C 
ATOM     16  C   UNL     1      48.313   6.072  18.597  0.00  0.00    +0.000 C 
ATOM     17  C   UNL     1      47.907   4.649  18.636  0.00  0.00    +0.000 C 
BRANCH  15  18
ATOM     18  C   UNL     1      48.055   5.352  16.120  0.00  0.00    +0.000 A 
ATOM     19  C   UNL     1      48.387   6.436  15.282  0.00  0.00    +0.000 A 
ATOM     20  C   UNL     1      47.900   6.557  13.974  0.00  0.00    +0.000 A 
ATOM     21  C   UNL     1      47.084   5.566  13.447  0.00  0.00    +0.000 A 
ATOM     22  C   UNL     1      46.661   4.532  14.276  0.00  0.00    +0.000 A 
ATOM     23  C   UNL     1      47.151   4.421  15.585  0.00  0.00    +0.000 A 
BRANCH  21  24
ATOM     24  O   UNL     1      46.619   5.520  12.169  0.00  0.00    +0.000 OA
BRANCH  24  25
ATOM     25  C   UNL     1      45.515   6.346  11.820  0.00  0.00    +0.000 C 
ATOM     26  F   UNL     1      45.846   7.616  11.503  0.00  0.00    +0.000 F 
ATOM     27  F   UNL     1      44.895   5.806  10.747  0.00  0.00    +0.000 F 
ATOM     28  F   UNL     1      44.636   6.369  12.845  0.00  0.00    +0.000 F 
ENDBRANCH  24  25
ENDBRANCH  21  24
ENDBRANCH  15  18
ENDBRANCH   1  15
TORSDOF 6
ENDMDL
