MODEL 1
REMARK VINA RESULT:    -8.656      0.000      0.000
REMARK INTER + INTRA:         -12.636
REMARK INTER:                 -11.692
REMARK INTRA:                  -0.944
REMARK UNBOUND:                -0.944
REMARK  Name = 
REMARK  6 active torsions:
REMARK  status: ('A' for Active; 'I' for Inactive)
REMARK    1  A    between atoms: C_2  and  C_3
REMARK    2  A    between atoms: N_7  and  C_8
REMARK    3  A    between atoms: C_8  and  C_9
REMARK    4  A    between atoms: C_9  and  C_12
REMARK    5  A    between atoms: C_16  and  O_17
REMARK    6  A    between atoms: O_17  and  C_18
REMARK                            x       y       z     vdW  Elec       q    Type
REMARK                         _______ _______ _______ _____ _____    ______ ____
ROOT
ATOM      1  C   UNL     1      43.734   4.705  12.422  0.00  0.00    +0.000 C 
ATOM      2  F   UNL     1      42.805   5.580  12.906  0.00  0.00    +0.000 F 
ATOM      3  F   UNL     1      43.532   3.544  13.113  0.00  0.00    +0.000 F 
ENDROOT
BRANCH   1   4
ATOM      4  C   UNL     1      45.153   5.224  12.578  0.00  0.00    +0.000 A 
ATOM      5  C   UNL     1      45.692   6.124  11.649  0.00  0.00    +0.000 A 
ATOM      6  C   UNL     1      46.969   6.656  11.841  0.00  0.00    +0.000 A 
ATOM      7  C   UNL     1      47.728   6.295  12.959  0.00  0.00    +0.000 A 
ATOM      8  C   UNL     1      47.208   5.392  13.881  0.00  0.00    +0.000 A 
ATOM      9  C   UNL     1      45.927   4.863  13.693  0.00  0.00    +0.000 A 
BRANCH   8  10
ATOM     10  O   UNL     1      47.831   4.992  15.035  0.00  0.00    +0.000 OA
BRANCH  10  11
ATOM     11  C   UNL     1      47.131   4.135  15.967  0.00  0.00    +0.000 C 
ATOM     12  C   UNL     1      47.115   4.540  17.457  0.00  0.00    +0.000 C 
ATOM     13  N   UNL     1      47.491   3.163  17.835  0.00  0.00    +0.000 NA
ATOM     14  C   UNL     1      47.952   2.919  16.455  0.00  0.00    +0.000 C 
ATOM     15  H   UNL     1      46.704   2.578  18.113  0.00  0.00    +0.000 HD
ENDBRANCH  10  11
ENDBRANCH   8  10
ENDBRANCH   1   4
BRANCH   1  16
ATOM     16  C   UNL     1      43.441   4.447  10.921  0.00  0.00    +0.000 C 
BRANCH  16  21
ATOM     17  C   UNL     1      46.637   2.459   7.418  0.00  0.00    +0.000 A 
ATOM     18  C   UNL     1      46.284   3.771   7.698  0.00  0.00    +0.000 A 
ATOM     19  C   UNL     1      45.362   4.027   8.717  0.00  0.00    +0.000 A 
ATOM     20  C   UNL     1      44.808   2.972   9.435  0.00  0.00    +0.000 A 
ATOM     21  N   UNL     1      43.883   3.147  10.429  0.00  0.00    +0.000 N 
ATOM     22  N   UNL     1      45.152   1.698   9.172  0.00  0.00    +0.000 NA
ATOM     23  C   UNL     1      46.050   1.463   8.179  0.00  0.00    +0.000 A 
ATOM     24  H   UNL     1      43.572   2.295  10.887  0.00  0.00    +0.000 HD
BRANCH  17  26
ATOM     25  N   UNL     1      48.324   1.874   5.545  0.00  0.00    +0.000 NA
ATOM     26  C   UNL     1      47.567   2.143   6.383  0.00  0.00    +0.000 C 
ENDBRANCH  17  26
ENDBRANCH  16  21
ENDBRANCH   1  16
TORSDOF 6
ENDMDL
MODEL 2
REMARK VINA RESULT:    -7.505      2.302      3.321
REMARK INTER + INTRA:         -11.082
REMARK INTER:                 -10.319
REMARK INTRA:                  -0.763
REMARK UNBOUND:                -0.944
REMARK  Name = 
REMARK  6 active torsions:
REMARK  status: ('A' for Active; 'I' for Inactive)
REMARK    1  A    between atoms: C_2  and  C_3
REMARK    2  A    between atoms: N_7  and  C_8
REMARK    3  A    between atoms: C_8  and  C_9
REMARK    4  A    between atoms: C_9  and  C_12
REMARK    5  A    between atoms: C_16  and  O_17
REMARK    6  A    between atoms: O_17  and  C_18
REMARK                            x       y       z     vdW  Elec       q    Type
REMARK                         _______ _______ _______ _____ _____    ______ ____
ROOT
ATOM      1  C   UNL     1      43.575   4.636  12.439  0.00  0.00    +0.000 C 
ATOM      2  F   UNL     1      42.629   5.527  12.856  0.00  0.00    +0.000 F 
ATOM      3  F   UNL     1      43.262   3.459  13.058  0.00  0.00    +0.000 F 
ENDROOT
BRANCH   1   4
ATOM      4  C   UNL     1      44.985   5.096  12.766  0.00  0.00    +0.000 A 
ATOM      5  C   UNL     1      45.812   4.332  13.600  0.00  0.00    +0.000 A 
ATOM      6  C   UNL     1      47.132   4.722  13.835  0.00  0.00    +0.000 A 
ATOM      7  C   UNL     1      47.645   5.882  13.244  0.00  0.00    +0.000 A 
ATOM      8  C   UNL     1      46.829   6.655  12.425  0.00  0.00    +0.000 A 
ATOM      9  C   UNL     1      45.508   6.263  12.185  0.00  0.00    +0.000 A 
BRANCH   8  10
ATOM     10  O   UNL     1      47.223   7.786  11.756  0.00  0.00    +0.000 OA
BRANCH  10  11
ATOM     11  C   UNL     1      48.114   8.725  12.400  0.00  0.00    +0.000 C 
ATOM     12  C   UNL     1      47.692   9.309  13.766  0.00  0.00    +0.000 C 
ATOM     13  N   UNL     1      48.031  10.665  13.291  0.00  0.00    +0.000 NA
ATOM     14  C   UNL     1      47.978  10.181  11.898  0.00  0.00    +0.000 C 
ATOM     15  H   UNL     1      48.954  10.989  13.577  0.00  0.00    +0.000 HD
ENDBRANCH  10  11
ENDBRANCH   8  10
ENDBRANCH   1   4
BRANCH   1  16
ATOM     16  C   UNL     1      43.436   4.442  10.907  0.00  0.00    +0.000 C 
BRANCH  16  21
ATOM     17  C   UNL     1      46.622   2.437   7.403  0.00  0.00    +0.000 A 
ATOM     18  C   UNL     1      46.275   3.751   7.682  0.00  0.00    +0.000 A 
ATOM     19  C   UNL     1      45.355   4.012   8.702  0.00  0.00    +0.000 A 
ATOM     20  C   UNL     1      44.796   2.960   9.421  0.00  0.00    +0.000 A 
ATOM     21  N   UNL     1      43.873   3.140  10.416  0.00  0.00    +0.000 N 
ATOM     22  N   UNL     1      45.135   1.684   9.159  0.00  0.00    +0.000 NA
ATOM     23  C   UNL     1      46.032   1.445   8.166  0.00  0.00    +0.000 A 
ATOM     24  H   UNL     1      43.559   2.289  10.874  0.00  0.00    +0.000 HD
BRANCH  17  26
ATOM     25  N   UNL     1      48.300   1.845   5.525  0.00  0.00    +0.000 NA
ATOM     26  C   UNL     1      47.550   2.117   6.368  0.00  0.00    +0.000 C 
ENDBRANCH  17  26
ENDBRANCH  16  21
ENDBRANCH   1  16
TORSDOF 6
ENDMDL
MODEL 3
REMARK VINA RESULT:    -7.345      2.478      7.850
REMARK INTER + INTRA:         -10.865
REMARK INTER:                 -10.392
REMARK INTRA:                  -0.474
REMARK UNBOUND:                -0.944
REMARK  Name = 
REMARK  6 active torsions:
REMARK  status: ('A' for Active; 'I' for Inactive)
REMARK    1  A    between atoms: C_2  and  C_3
REMARK    2  A    between atoms: N_7  and  C_8
REMARK    3  A    between atoms: C_8  and  C_9
REMARK    4  A    between atoms: C_9  and  C_12
REMARK    5  A    between atoms: C_16  and  O_17
REMARK    6  A    between atoms: O_17  and  C_18
REMARK                            x       y       z     vdW  Elec       q    Type
REMARK                         _______ _______ _______ _____ _____    ______ ____
ROOT
ATOM      1  C   UNL     1      45.192   6.017  11.408  0.00  0.00    +0.000 C 
ATOM      2  F   UNL     1      44.127   6.171  12.248  0.00  0.00    +0.000 F 
ATOM      3  F   UNL     1      45.253   7.174  10.684  0.00  0.00    +0.000 F 
ENDROOT
BRANCH   1   4
ATOM      4  C   UNL     1      45.053   4.793  10.519  0.00  0.00    +0.000 A 
ATOM      5  C   UNL     1      44.280   3.697  10.926  0.00  0.00    +0.000 A 
ATOM      6  C   UNL     1      44.094   2.609  10.072  0.00  0.00    +0.000 A 
ATOM      7  C   UNL     1      44.680   2.595   8.801  0.00  0.00    +0.000 A 
ATOM      8  C   UNL     1      45.461   3.672   8.392  0.00  0.00    +0.000 A 
ATOM      9  C   UNL     1      45.643   4.765   9.245  0.00  0.00    +0.000 A 
BRANCH   8  10
ATOM     10  O   UNL     1      46.052   3.798   7.161  0.00  0.00    +0.000 OA
BRANCH  10  11
ATOM     11  C   UNL     1      46.532   2.621   6.473  0.00  0.00    +0.000 C 
ATOM     12  C   UNL     1      47.779   1.906   7.038  0.00  0.00    +0.000 C 
ATOM     13  N   UNL     1      48.365   1.858   5.684  0.00  0.00    +0.000 NA
ATOM     14  C   UNL     1      47.434   2.918   5.253  0.00  0.00    +0.000 C 
ATOM     15  H   UNL     1      48.227   0.971   5.201  0.00  0.00    +0.000 HD
ENDBRANCH  10  11
ENDBRANCH   8  10
ENDBRANCH   1   4
BRANCH   1  16
ATOM     16  C   UNL     1      46.483   5.894  12.258  0.00  0.00    +0.000 C 
BRANCH  16  21
ATOM     17  C   UNL     1      48.335   4.861  16.943  0.00  0.00    +0.000 A 
ATOM     18  C   UNL     1      48.537   5.939  16.094  0.00  0.00    +0.000 A 
ATOM     19  C   UNL     1      47.905   5.954  14.847  0.00  0.00    +0.000 A 
ATOM     20  C   UNL     1      47.088   4.893  14.469  0.00  0.00    +0.000 A 
ATOM     21  N   UNL     1      46.457   4.830  13.256  0.00  0.00    +0.000 N 
ATOM     22  N   UNL     1      46.883   3.848  15.291  0.00  0.00    +0.000 NA
ATOM     23  C   UNL     1      47.502   3.847  16.502  0.00  0.00    +0.000 A 
ATOM     24  H   UNL     1      45.874   4.010  13.112  0.00  0.00    +0.000 HD
BRANCH  17  26
ATOM     25  N   UNL     1      49.477   4.753  19.263  0.00  0.00    +0.000 NA
ATOM     26  C   UNL     1      48.962   4.795  18.223  0.00  0.00    +0.000 C 
ENDBRANCH  17  26
ENDBRANCH  16  21
ENDBRANCH   1  16
TORSDOF 6
ENDMDL
MODEL 4
REMARK VINA RESULT:    -7.290      2.901      4.667
REMARK INTER + INTRA:         -10.791
REMARK INTER:                 -10.183
REMARK INTRA:                  -0.608
REMARK UNBOUND:                -0.944
REMARK  Name = 
REMARK  6 active torsions:
REMARK  status: ('A' for Active; 'I' for Inactive)
REMARK    1  A    between atoms: C_2  and  C_3
REMARK    2  A    between atoms: N_7  and  C_8
REMARK    3  A    between atoms: C_8  and  C_9
REMARK    4  A    between atoms: C_9  and  C_12
REMARK    5  A    between atoms: C_16  and  O_17
REMARK    6  A    between atoms: O_17  and  C_18
REMARK                            x       y       z     vdW  Elec       q    Type
REMARK                         _______ _______ _______ _____ _____    ______ ____
ROOT
ATOM      1  C   UNL     1      43.663   4.849  12.545  0.00  0.00    +0.000 C 
ATOM      2  F   UNL     1      42.647   5.139  13.409  0.00  0.00    +0.000 F 
ATOM      3  F   UNL     1      44.107   3.610  12.911  0.00  0.00    +0.000 F 
ENDROOT
BRANCH   1   4
ATOM      4  C   UNL     1      44.771   5.888  12.588  0.00  0.00    +0.000 A 
ATOM      5  C   UNL     1      46.087   5.519  12.894  0.00  0.00    +0.000 A 
ATOM      6  C   UNL     1      47.113   6.465  12.856  0.00  0.00    +0.000 A 
ATOM      7  C   UNL     1      46.840   7.795  12.517  0.00  0.00    +0.000 A 
ATOM      8  C   UNL     1      45.534   8.176  12.225  0.00  0.00    +0.000 A 
ATOM      9  C   UNL     1      44.507   7.227  12.257  0.00  0.00    +0.000 A 
BRANCH   8  10
ATOM     10  O   UNL     1      45.144   9.433  11.838  0.00  0.00    +0.000 OA
BRANCH  10  11
ATOM     11  C   UNL     1      43.958   9.597  11.029  0.00  0.00    +0.000 C 
ATOM     12  C   UNL     1      44.056  10.476   9.763  0.00  0.00    +0.000 C 
ATOM     13  N   UNL     1      42.817  11.177  10.155  0.00  0.00    +0.000 NA
ATOM     14  C   UNL     1      42.986  10.687  11.536  0.00  0.00    +0.000 C 
ATOM     15  H   UNL     1      41.977  10.827   9.696  0.00  0.00    +0.000 HD
ENDBRANCH  10  11
ENDBRANCH   8  10
ENDBRANCH   1   4
BRANCH   1  16
ATOM     16  C   UNL     1      43.088   4.766  11.108  0.00  0.00    +0.000 C 
BRANCH  16  21
ATOM     17  C   UNL     1      46.380   2.627   7.788  0.00  0.00    +0.000 A 
ATOM     18  C   UNL     1      45.608   2.074   8.799  0.00  0.00    +0.000 A 
ATOM     19  C   UNL     1      44.797   2.909   9.572  0.00  0.00    +0.000 A 
ATOM     20  C   UNL     1      44.772   4.278   9.325  0.00  0.00    +0.000 A 
ATOM     21  N   UNL     1      44.020   5.158  10.056  0.00  0.00    +0.000 N 
ATOM     22  N   UNL     1      45.514   4.819   8.341  0.00  0.00    +0.000 NA
ATOM     23  C   UNL     1      46.298   3.995   7.596  0.00  0.00    +0.000 A 
ATOM     24  H   UNL     1      44.078   6.128   9.760  0.00  0.00    +0.000 HD
BRANCH  17  26
ATOM     25  N   UNL     1      47.919   1.168   6.303  0.00  0.00    +0.000 NA
ATOM     26  C   UNL     1      47.231   1.819   6.975  0.00  0.00    +0.000 C 
ENDBRANCH  17  26
ENDBRANCH  16  21
ENDBRANCH   1  16
TORSDOF 6
ENDMDL
MODEL 5
REMARK VINA RESULT:    -6.939      3.163      7.367
REMARK INTER + INTRA:         -10.317
REMARK INTER:                  -9.562
REMARK INTRA:                  -0.755
REMARK UNBOUND:                -0.944
REMARK  Name = 
REMARK  6 active torsions:
REMARK  status: ('A' for Active; 'I' for Inactive)
REMARK    1  A    between atoms: C_2  and  C_3
REMARK    2  A    between atoms: N_7  and  C_8
REMARK    3  A    between atoms: C_8  and  C_9
REMARK    4  A    between atoms: C_9  and  C_12
REMARK    5  A    between atoms: C_16  and  O_17
REMARK    6  A    between atoms: O_17  and  C_18
REMARK                            x       y       z     vdW  Elec       q    Type
REMARK                         _______ _______ _______ _____ _____    ______ ____
ROOT
ATOM      1  C   UNL     1      44.053   5.852  11.292  0.00  0.00    +0.000 C 
ATOM      2  F   UNL     1      42.712   6.107  11.315  0.00  0.00    +0.000 F 
ATOM      3  F   UNL     1      44.622   6.961  10.733  0.00  0.00    +0.000 F 
ENDROOT
BRANCH   1   4
ATOM      4  C   UNL     1      44.386   4.587  10.520  0.00  0.00    +0.000 A 
ATOM      5  C   UNL     1      43.849   3.351  10.904  0.00  0.00    +0.000 A 
ATOM      6  C   UNL     1      44.098   2.207  10.145  0.00  0.00    +0.000 A 
ATOM      7  C   UNL     1      44.890   2.276   8.994  0.00  0.00    +0.000 A 
ATOM      8  C   UNL     1      45.440   3.495   8.610  0.00  0.00    +0.000 A 
ATOM      9  C   UNL     1      45.187   4.644   9.367  0.00  0.00    +0.000 A 
BRANCH   8  10
ATOM     10  O   UNL     1      46.196   3.704   7.485  0.00  0.00    +0.000 OA
BRANCH  10  11
ATOM     11  C   UNL     1      46.593   2.577   6.671  0.00  0.00    +0.000 C 
ATOM     12  C   UNL     1      47.937   1.887   6.991  0.00  0.00    +0.000 C 
ATOM     13  N   UNL     1      48.296   1.922   5.559  0.00  0.00    +0.000 NA
ATOM     14  C   UNL     1      47.274   2.963   5.337  0.00  0.00    +0.000 C 
ATOM     15  H   UNL     1      48.109   1.052   5.061  0.00  0.00    +0.000 HD
ENDBRANCH  10  11
ENDBRANCH   8  10
ENDBRANCH   1   4
BRANCH   1  16
ATOM     16  C   UNL     1      44.560   5.715  12.751  0.00  0.00    +0.000 C 
BRANCH  16  21
ATOM     17  C   UNL     1      48.888   8.384  13.515  0.00  0.00    +0.000 A 
ATOM     18  C   UNL     1      47.575   8.796  13.347  0.00  0.00    +0.000 A 
ATOM     19  C   UNL     1      46.580   7.836  13.138  0.00  0.00    +0.000 A 
ATOM     20  C   UNL     1      46.914   6.486  13.099  0.00  0.00    +0.000 A 
ATOM     21  N   UNL     1      45.997   5.494  12.877  0.00  0.00    +0.000 N 
ATOM     22  N   UNL     1      48.186   6.081  13.270  0.00  0.00    +0.000 NA
ATOM     23  C   UNL     1      49.143   7.024  13.473  0.00  0.00    +0.000 A 
ATOM     24  H   UNL     1      46.368   4.549  12.892  0.00  0.00    +0.000 HD
BRANCH  17  26
ATOM     25  N   UNL     1      50.806  10.079  13.896  0.00  0.00    +0.000 NA
ATOM     26  C   UNL     1      49.941   9.324  13.724  0.00  0.00    +0.000 C 
ENDBRANCH  17  26
ENDBRANCH  16  21
ENDBRANCH   1  16
TORSDOF 6
ENDMDL
MODEL 6
REMARK VINA RESULT:    -6.705      3.638      7.612
REMARK INTER + INTRA:         -10.001
REMARK INTER:                  -9.374
REMARK INTRA:                  -0.627
REMARK UNBOUND:                -0.944
REMARK  Name = 
REMARK  6 active torsions:
REMARK  status: ('A' for Active; 'I' for Inactive)
REMARK    1  A    between atoms: C_2  and  C_3
REMARK    2  A    between atoms: N_7  and  C_8
REMARK    3  A    between atoms: C_8  and  C_9
REMARK    4  A    between atoms: C_9  and  C_12
REMARK    5  A    between atoms: C_16  and  O_17
REMARK    6  A    between atoms: O_17  and  C_18
REMARK                            x       y       z     vdW  Elec       q    Type
REMARK                         _______ _______ _______ _____ _____    ______ ____
ROOT
ATOM      1  C   UNL     1      45.089   5.939  11.263  0.00  0.00    +0.000 C 
ATOM      2  F   UNL     1      43.879   6.525  11.501  0.00  0.00    +0.000 F 
ATOM      3  F   UNL     1      45.806   6.864  10.558  0.00  0.00    +0.000 F 
ENDROOT
BRANCH   1   4
ATOM      4  C   UNL     1      44.956   4.626  10.511  0.00  0.00    +0.000 A 
ATOM      5  C   UNL     1      44.352   3.514  11.114  0.00  0.00    +0.000 A 
ATOM      6  C   UNL     1      44.164   2.335  10.392  0.00  0.00    +0.000 A 
ATOM      7  C   UNL     1      44.580   2.244   9.059  0.00  0.00    +0.000 A 
ATOM      8  C   UNL     1      45.193   3.337   8.455  0.00  0.00    +0.000 A 
ATOM      9  C   UNL     1      45.376   4.521   9.176  0.00  0.00    +0.000 A 
BRANCH   8  10
ATOM     10  O   UNL     1      45.605   3.390   7.147  0.00  0.00    +0.000 OA
BRANCH  10  11
ATOM     11  C   UNL     1      47.001   3.188   6.829  0.00  0.00    +0.000 C 
ATOM     12  C   UNL     1      47.374   2.870   5.365  0.00  0.00    +0.000 C 
ATOM     13  N   UNL     1      48.227   1.756   5.825  0.00  0.00    +0.000 NA
ATOM     14  C   UNL     1      47.522   1.762   7.121  0.00  0.00    +0.000 C 
ATOM     15  H   UNL     1      49.217   1.991   5.896  0.00  0.00    +0.000 HD
ENDBRANCH  10  11
ENDBRANCH   8  10
ENDBRANCH   1   4
BRANCH   1  16
ATOM     16  C   UNL     1      45.798   5.689  12.619  0.00  0.00    +0.000 C 
BRANCH  16  21
ATOM     17  C   UNL     1      49.849   8.800  13.216  0.00  0.00    +0.000 A 
ATOM     18  C   UNL     1      49.701   7.612  12.516  0.00  0.00    +0.000 A 
ATOM     19  C   UNL     1      48.465   6.957  12.537  0.00  0.00    +0.000 A 
ATOM     20  C   UNL     1      47.404   7.497  13.257  0.00  0.00    +0.000 A 
ATOM     21  N   UNL     1      46.175   6.900  13.341  0.00  0.00    +0.000 N 
ATOM     22  N   UNL     1      47.541   8.654  13.931  0.00  0.00    +0.000 NA
ATOM     23  C   UNL     1      48.747   9.281  13.901  0.00  0.00    +0.000 A 
ATOM     24  H   UNL     1      45.483   7.408  13.883  0.00  0.00    +0.000 HD
BRANCH  17  26
ATOM     25  N   UNL     1      52.100  10.078  13.232  0.00  0.00    +0.000 NA
ATOM     26  C   UNL     1      51.091   9.503  13.232  0.00  0.00    +0.000 C 
ENDBRANCH  17  26
ENDBRANCH  16  21
ENDBRANCH   1  16
TORSDOF 6
ENDMDL
MODEL 7
REMARK VINA RESULT:    -6.259      2.524      7.868
REMARK INTER + INTRA:          -9.399
REMARK INTER:                  -9.239
REMARK INTRA:                  -0.160
REMARK UNBOUND:                -0.944
REMARK  Name = 
REMARK  6 active torsions:
REMARK  status: ('A' for Active; 'I' for Inactive)
REMARK    1  A    between atoms: C_2  and  C_3
REMARK    2  A    between atoms: N_7  and  C_8
REMARK    3  A    between atoms: C_8  and  C_9
REMARK    4  A    between atoms: C_9  and  C_12
REMARK    5  A    between atoms: C_16  and  O_17
REMARK    6  A    between atoms: O_17  and  C_18
REMARK                            x       y       z     vdW  Elec       q    Type
REMARK                         _______ _______ _______ _____ _____    ______ ____
ROOT
ATOM      1  C   UNL     1      46.468   6.667  12.383  0.00  0.00    +0.000 C 
ATOM      2  F   UNL     1      45.823   7.434  13.308  0.00  0.00    +0.000 F 
ATOM      3  F   UNL     1      46.997   7.551  11.485  0.00  0.00    +0.000 F 
ENDROOT
BRANCH   1   4
ATOM      4  C   UNL     1      45.542   5.663  11.718  0.00  0.00    +0.000 A 
ATOM      5  C   UNL     1      44.554   5.002  12.459  0.00  0.00    +0.000 A 
ATOM      6  C   UNL     1      43.657   4.138  11.828  0.00  0.00    +0.000 A 
ATOM      7  C   UNL     1      43.735   3.919  10.448  0.00  0.00    +0.000 A 
ATOM      8  C   UNL     1      44.720   4.560   9.704  0.00  0.00    +0.000 A 
ATOM      9  C   UNL     1      45.616   5.429  10.336  0.00  0.00    +0.000 A 
BRANCH   8  10
ATOM     10  O   UNL     1      44.875   4.462   8.345  0.00  0.00    +0.000 OA
BRANCH  10  11
ATOM     11  C   UNL     1      45.186   3.182   7.750  0.00  0.00    +0.000 C 
ATOM     12  C   UNL     1      45.723   2.063   8.670  0.00  0.00    +0.000 C 
ATOM     13  N   UNL     1      46.802   1.784   7.701  0.00  0.00    +0.000 NA
ATOM     14  C   UNL     1      46.582   3.108   7.088  0.00  0.00    +0.000 C 
ATOM     15  H   UNL     1      46.608   1.005   7.074  0.00  0.00    +0.000 HD
ENDBRANCH  10  11
ENDBRANCH   8  10
ENDBRANCH   1   4
BRANCH   1  16
ATOM     16  C   UNL     1      47.630   5.914  13.081  0.00  0.00    +0.000 C 
BRANCH  16  21
ATOM     17  C   UNL     1      48.149   4.665  18.042  0.00  0.00    +0.000 A 
ATOM     18  C   UNL     1      48.707   5.689  17.291  0.00  0.00    +0.000 A 
ATOM     19  C   UNL     1      48.396   5.785  15.931  0.00  0.00    +0.000 A 
ATOM     20  C   UNL     1      47.538   4.859  15.347  0.00  0.00    +0.000 A 
ATOM     21  N   UNL     1      47.208   4.878  14.018  0.00  0.00    +0.000 N 
ATOM     22  N   UNL     1      46.989   3.868  16.073  0.00  0.00    +0.000 NA
ATOM     23  C   UNL     1      47.298   3.787  17.394  0.00  0.00    +0.000 A 
ATOM     24  H   UNL     1      46.558   4.156  13.723  0.00  0.00    +0.000 HD
BRANCH  17  26
ATOM     25  N   UNL     1      48.670   4.388  20.562  0.00  0.00    +0.000 NA
ATOM     26  C   UNL     1      48.440   4.519  19.432  0.00  0.00    +0.000 C 
ENDBRANCH  17  26
ENDBRANCH  16  21
ENDBRANCH   1  16
TORSDOF 6
ENDMDL
MODEL 8
REMARK VINA RESULT:    -6.188      2.894      4.329
REMARK INTER + INTRA:          -9.303
REMARK INTER:                  -8.651
REMARK INTRA:                  -0.651
REMARK UNBOUND:                -0.944
REMARK  Name = 
REMARK  6 active torsions:
REMARK  status: ('A' for Active; 'I' for Inactive)
REMARK    1  A    between atoms: C_2  and  C_3
REMARK    2  A    between atoms: N_7  and  C_8
REMARK    3  A    between atoms: C_8  and  C_9
REMARK    4  A    between atoms: C_9  and  C_12
REMARK    5  A    between atoms: C_16  and  O_17
REMARK    6  A    between atoms: O_17  and  C_18
REMARK                            x       y       z     vdW  Elec       q    Type
REMARK                         _______ _______ _______ _____ _____    ______ ____
ROOT
ATOM      1  C   UNL     1      47.756   8.335  13.032  0.00  0.00    +0.000 C 
ATOM      2  F   UNL     1      48.350   7.531  12.103  0.00  0.00    +0.000 F 
ATOM      3  F   UNL     1      48.081   9.611  12.666  0.00  0.00    +0.000 F 
ENDROOT
BRANCH   1   4
ATOM      4  C   UNL     1      48.208   8.014  14.446  0.00  0.00    +0.000 A 
ATOM      5  C   UNL     1      48.180   8.995  15.447  0.00  0.00    +0.000 A 
ATOM      6  C   UNL     1      48.524   8.673  16.761  0.00  0.00    +0.000 A 
ATOM      7  C   UNL     1      48.905   7.370  17.096  0.00  0.00    +0.000 A 
ATOM      8  C   UNL     1      48.950   6.391  16.108  0.00  0.00    +0.000 A 
ATOM      9  C   UNL     1      48.601   6.711  14.792  0.00  0.00    +0.000 A 
BRANCH   8  10
ATOM     10  O   UNL     1      49.265   5.072  16.315  0.00  0.00    +0.000 OA
BRANCH  10  11
ATOM     11  C   UNL     1      48.587   4.328  17.352  0.00  0.00    +0.000 C 
ATOM     12  C   UNL     1      48.260   2.842  17.087  0.00  0.00    +0.000 C 
ATOM     13  N   UNL     1      46.880   3.061  17.565  0.00  0.00    +0.000 NA
ATOM     14  C   UNL     1      47.052   4.513  17.370  0.00  0.00    +0.000 C 
ATOM     15  H   UNL     1      46.728   2.794  18.536  0.00  0.00    +0.000 HD
ENDBRANCH  10  11
ENDBRANCH   8  10
ENDBRANCH   1   4
BRANCH   1  16
ATOM     16  C   UNL     1      46.219   8.165  12.930  0.00  0.00    +0.000 C 
BRANCH  16  21
ATOM     17  C   UNL     1      44.982   3.746  10.610  0.00  0.00    +0.000 A 
ATOM     18  C   UNL     1      45.374   4.973  10.096  0.00  0.00    +0.000 A 
ATOM     19  C   UNL     1      45.640   6.028  10.975  0.00  0.00    +0.000 A 
ATOM     20  C   UNL     1      45.508   5.839  12.347  0.00  0.00    +0.000 A 
ATOM     21  N   UNL     1      45.730   6.832  13.264  0.00  0.00    +0.000 N 
ATOM     22  N   UNL     1      45.136   4.648  12.851  0.00  0.00    +0.000 NA
ATOM     23  C   UNL     1      44.881   3.631  11.986  0.00  0.00    +0.000 A 
ATOM     24  H   UNL     1      45.617   6.557  14.235  0.00  0.00    +0.000 HD
BRANCH  17  26
ATOM     25  N   UNL     1      44.453   1.733   9.071  0.00  0.00    +0.000 NA
ATOM     26  C   UNL     1      44.692   2.640   9.756  0.00  0.00    +0.000 C 
ENDBRANCH  17  26
ENDBRANCH  16  21
ENDBRANCH   1  16
TORSDOF 6
ENDMDL
MODEL 9
REMARK VINA RESULT:    -5.899      1.805      2.000
REMARK INTER + INTRA:          -8.912
REMARK INTER:                  -8.109
REMARK INTRA:                  -0.803
REMARK UNBOUND:                -0.944
REMARK  Name = 
REMARK  6 active torsions:
REMARK  status: ('A' for Active; 'I' for Inactive)
REMARK    1  A    between atoms: C_2  and  C_3
REMARK    2  A    between atoms: N_7  and  C_8
REMARK    3  A    between atoms: C_8  and  C_9
REMARK    4  A    between atoms: C_9  and  C_12
REMARK    5  A    between atoms: C_16  and  O_17
REMARK    6  A    between atoms: O_17  and  C_18
REMARK                            x       y       z     vdW  Elec       q    Type
REMARK                         _______ _______ _______ _____ _____    ______ ____
ROOT
ATOM      1  C   UNL     1      45.553   4.738  13.006  0.00  0.00    +0.000 C 
ATOM      2  F   UNL     1      44.923   4.761  14.216  0.00  0.00    +0.000 F 
ATOM      3  F   UNL     1      46.012   3.459  12.861  0.00  0.00    +0.000 F 
ENDROOT
BRANCH   1   4
ATOM      4  C   UNL     1      46.674   5.760  12.919  0.00  0.00    +0.000 A 
ATOM      5  C   UNL     1      46.815   6.573  11.787  0.00  0.00    +0.000 A 
ATOM      6  C   UNL     1      47.800   7.561  11.746  0.00  0.00    +0.000 A 
ATOM      7  C   UNL     1      48.661   7.751  12.832  0.00  0.00    +0.000 A 
ATOM      8  C   UNL     1      48.539   6.940  13.956  0.00  0.00    +0.000 A 
ATOM      9  C   UNL     1      47.550   5.953  14.000  0.00  0.00    +0.000 A 
BRANCH   8  10
ATOM     10  O   UNL     1      49.291   7.052  15.098  0.00  0.00    +0.000 OA
BRANCH  10  11
ATOM     11  C   UNL     1      48.986   6.219  16.239  0.00  0.00    +0.000 C 
ATOM     12  C   UNL     1      48.657   6.913  17.579  0.00  0.00    +0.000 C 
ATOM     13  N   UNL     1      49.590   6.006  18.278  0.00  0.00    +0.000 NA
ATOM     14  C   UNL     1      50.229   5.684  16.988  0.00  0.00    +0.000 C 
ATOM     15  H   UNL     1      49.140   5.207  18.723  0.00  0.00    +0.000 HD
ENDBRANCH  10  11
ENDBRANCH   8  10
ENDBRANCH   1   4
BRANCH   1  16
ATOM     16  C   UNL     1      44.510   5.020  11.894  0.00  0.00    +0.000 C 
BRANCH  16  21
ATOM     17  C   UNL     1      46.029   3.308   7.289  0.00  0.00    +0.000 A 
ATOM     18  C   UNL     1      46.328   4.474   7.978  0.00  0.00    +0.000 A 
ATOM     19  C   UNL     1      45.751   4.692   9.233  0.00  0.00    +0.000 A 
ATOM     20  C   UNL     1      44.887   3.745   9.775  0.00  0.00    +0.000 A 
ATOM     21  N   UNL     1      44.270   3.902  10.987  0.00  0.00    +0.000 N 
ATOM     22  N   UNL     1      44.601   2.609   9.114  0.00  0.00    +0.000 NA
ATOM     23  C   UNL     1      45.169   2.409   7.895  0.00  0.00    +0.000 A 
ATOM     24  H   UNL     1      43.678   3.128  11.275  0.00  0.00    +0.000 HD
BRANCH  17  26
ATOM     25  N   UNL     1      47.040   2.812   4.959  0.00  0.00    +0.000 NA
ATOM     26  C   UNL     1      46.586   3.042   6.002  0.00  0.00    +0.000 C 
ENDBRANCH  17  26
ENDBRANCH  16  21
ENDBRANCH   1  16
TORSDOF 6
ENDMDL
