MODEL 1
REMARK VINA RESULT:    -8.393      0.000      0.000
REMARK INTER + INTRA:         -12.847
REMARK INTER:                 -11.827
REMARK INTRA:                  -1.020
REMARK UNBOUND:                -1.020
REMARK  Name = 
REMARK  8 active torsions:
REMARK  status: ('A' for Active; 'I' for Inactive)
REMARK    1  A    between atoms: C_1  and  O_2
REMARK    2  A    between atoms: O_2  and  C_3
REMARK    3  A    between atoms: C_7  and  N_8
REMARK    4  A    between atoms: N_8  and  C_9
REMARK    5  A    between atoms: C_9  and  C_10
REMARK    6  A    between atoms: C_13  and  C_14
REMARK    7  A    between atoms: C_14  and  N_15
REMARK    8  A    between atoms: C_16  and  C_18
REMARK                            x       y       z     vdW  Elec       q    Type
REMARK                         _______ _______ _______ _____ _____    ______ ____
ROOT
ATOM      1  C   UNL     1      44.149   5.446  12.000  0.00  0.00    +0.000 C 
ATOM      2  C   UNL     1      44.379   3.992  12.445  0.00  0.00    +0.000 C 
ATOM      3  C   UNL     1      45.862   3.625  12.490  0.00  0.00    +0.000 C 
ATOM      4  C   UNL     1      46.671   4.570  13.396  0.00  0.00    +0.000 C 
ATOM      5  C   UNL     1      46.442   6.035  12.985  0.00  0.00    +0.000 C 
ATOM      6  C   UNL     1      44.958   6.409  12.886  0.00  0.00    +0.000 C 
ENDROOT
BRANCH   1   7
ATOM      7  C   UNL     1      44.494   5.675  10.515  0.00  0.00    +0.000 C 
BRANCH   7   8
ATOM      8  N   UNL     1      44.001   4.574   9.691  0.00  0.00    +0.000 N 
ATOM      9  H   UNL     1      43.160   4.822   9.174  0.00  0.00    +0.000 HD
BRANCH   8  14
ATOM     10  C   UNL     1      45.941   1.791   8.189  0.00  0.00    +0.000 A 
ATOM     11  C   UNL     1      46.817   2.476   7.349  0.00  0.00    +0.000 A 
ATOM     12  C   UNL     1      46.774   3.866   7.292  0.00  0.00    +0.000 A 
ATOM     13  C   UNL     1      45.845   4.574   8.056  0.00  0.00    +0.000 A 
ATOM     14  C   UNL     1      44.924   3.908   8.871  0.00  0.00    +0.000 A 
ATOM     15  C   UNL     1      45.022   2.513   8.959  0.00  0.00    +0.000 A 
BRANCH  10  17
ATOM     16  C   UNL     1      46.787  -0.341   7.571  0.00  0.00    +0.000 C 
ATOM     17  O   UNL     1      45.878   0.433   8.346  0.00  0.00    +0.000 OA
ENDBRANCH  10  17
ENDBRANCH   8  14
ENDBRANCH   7   8
ENDBRANCH   1   7
BRANCH   4  18
ATOM     18  C   UNL     1      46.348   4.375  14.888  0.00  0.00    +0.000 C 
BRANCH  18  19
ATOM     19  N   UNL     1      47.519   4.509  15.728  0.00  0.00    +0.000 N 
ATOM     20  C   UNL     1      47.603   3.878  16.944  0.00  0.00    +0.000 C 
ATOM     21  O   UNL     1      46.714   3.137  17.359  0.00  0.00    +0.000 OA
ATOM     22  H   UNL     1      48.180   5.248  15.503  0.00  0.00    +0.000 HD
BRANCH  20  23
ATOM     23  C   UNL     1      48.831   4.081  17.718  0.00  0.00    +0.000 A 
ATOM     24  C   UNL     1      48.908   5.157  18.591  0.00  0.00    +0.000 A 
ATOM     25  S   UNL     1      50.402   5.281  19.399  0.00  0.00    +0.000 S 
ATOM     26  C   UNL     1      51.015   3.921  18.581  0.00  0.00    +0.000 A 
ATOM     27  N   UNL     1      52.295   3.508  18.781  0.00  0.00    +0.000 NA
ATOM     28  C   UNL     1      52.641   2.486  18.074  0.00  0.00    +0.000 A 
ATOM     29  N   UNL     1      51.817   1.826  17.198  0.00  0.00    +0.000 N 
ATOM     30  C   UNL     1      50.499   2.172  17.007  0.00  0.00    +0.000 A 
ATOM     31  O   UNL     1      49.761   1.503  16.291  0.00  0.00    +0.000 OA
ATOM     32  C   UNL     1      50.076   3.351  17.739  0.00  0.00    +0.000 A 
ATOM     33  H   UNL     1      52.143   1.012  16.699  0.00  0.00    +0.000 HD
ENDBRANCH  20  23
ENDBRANCH  18  19
ENDBRANCH   4  18
TORSDOF 7
ENDMDL
MODEL 2
REMARK VINA RESULT:    -7.505      1.995      2.684
REMARK INTER + INTRA:         -11.596
REMARK INTER:                 -10.802
REMARK INTRA:                  -0.795
REMARK UNBOUND:                -1.020
REMARK  Name = 
REMARK  8 active torsions:
REMARK  status: ('A' for Active; 'I' for Inactive)
REMARK    1  A    between atoms: C_1  and  O_2
REMARK    2  A    between atoms: O_2  and  C_3
REMARK    3  A    between atoms: C_7  and  N_8
REMARK    4  A    between atoms: N_8  and  C_9
REMARK    5  A    between atoms: C_9  and  C_10
REMARK    6  A    between atoms: C_13  and  C_14
REMARK    7  A    between atoms: C_14  and  N_15
REMARK    8  A    between atoms: C_16  and  C_18
REMARK                            x       y       z     vdW  Elec       q    Type
REMARK                         _______ _______ _______ _____ _____    ______ ____
ROOT
ATOM      1  C   UNL     1      45.480   4.860  10.817  0.00  0.00    +0.000 C 
ATOM      2  C   UNL     1      46.049   6.250  10.484  0.00  0.00    +0.000 C 
ATOM      3  C   UNL     1      45.510   7.337  11.415  0.00  0.00    +0.000 C 
ATOM      4  C   UNL     1      45.773   7.020  12.898  0.00  0.00    +0.000 C 
ATOM      5  C   UNL     1      45.232   5.624  13.253  0.00  0.00    +0.000 C 
ATOM      6  C   UNL     1      45.722   4.526  12.300  0.00  0.00    +0.000 C 
ENDROOT
BRANCH   1   7
ATOM      7  C   UNL     1      43.981   4.735  10.483  0.00  0.00    +0.000 C 
BRANCH   7   8
ATOM      8  N   UNL     1      43.789   4.358   9.085  0.00  0.00    +0.000 N 
ATOM      9  H   UNL     1      43.445   5.130   8.518  0.00  0.00    +0.000 HD
BRANCH   8  14
ATOM     10  C   UNL     1      46.047   1.584   8.099  0.00  0.00    +0.000 A 
ATOM     11  C   UNL     1      46.969   2.242   7.288  0.00  0.00    +0.000 A 
ATOM     12  C   UNL     1      46.850   3.613   7.079  0.00  0.00    +0.000 A 
ATOM     13  C   UNL     1      45.801   4.326   7.662  0.00  0.00    +0.000 A 
ATOM     14  C   UNL     1      44.836   3.681   8.442  0.00  0.00    +0.000 A 
ATOM     15  C   UNL     1      45.006   2.312   8.688  0.00  0.00    +0.000 A 
BRANCH  10  17
ATOM     16  C   UNL     1      46.727  -0.606   7.477  0.00  0.00    +0.000 C 
ATOM     17  O   UNL     1      46.047   0.247   8.392  0.00  0.00    +0.000 OA
ENDBRANCH  10  17
ENDBRANCH   8  14
ENDBRANCH   7   8
ENDBRANCH   1   7
BRANCH   4  18
ATOM     18  C   UNL     1      47.263   7.127  13.268  0.00  0.00    +0.000 C 
BRANCH  18  19
ATOM     19  N   UNL     1      47.526   6.700  14.625  0.00  0.00    +0.000 N 
ATOM     20  C   UNL     1      48.804   6.652  15.126  0.00  0.00    +0.000 C 
ATOM     21  O   UNL     1      49.778   7.008  14.467  0.00  0.00    +0.000 OA
ATOM     22  H   UNL     1      46.776   6.230  15.126  0.00  0.00    +0.000 HD
BRANCH  20  23
ATOM     23  C   UNL     1      48.961   6.201  16.512  0.00  0.00    +0.000 A 
ATOM     24  C   UNL     1      49.745   6.949  17.379  0.00  0.00    +0.000 A 
ATOM     25  S   UNL     1      49.856   6.290  18.945  0.00  0.00    +0.000 S 
ATOM     26  C   UNL     1      48.890   4.959  18.510  0.00  0.00    +0.000 A 
ATOM     27  N   UNL     1      48.633   3.965  19.401  0.00  0.00    +0.000 NA
ATOM     28  C   UNL     1      47.915   3.002  18.931  0.00  0.00    +0.000 A 
ATOM     29  N   UNL     1      47.414   2.950  17.655  0.00  0.00    +0.000 N 
ATOM     30  C   UNL     1      47.600   3.959  16.738  0.00  0.00    +0.000 A 
ATOM     31  O   UNL     1      47.059   3.928  15.638  0.00  0.00    +0.000 OA
ATOM     32  C   UNL     1      48.448   5.041  17.200  0.00  0.00    +0.000 A 
ATOM     33  H   UNL     1      46.833   2.180  17.361  0.00  0.00    +0.000 HD
ENDBRANCH  20  23
ENDBRANCH  18  19
ENDBRANCH   4  18
TORSDOF 7
ENDMDL
MODEL 3
REMARK VINA RESULT:    -7.492      1.982      2.359
REMARK INTER + INTRA:         -11.578
REMARK INTER:                 -10.255
REMARK INTRA:                  -1.324
REMARK UNBOUND:                -1.020
REMARK  Name = 
REMARK  8 active torsions:
REMARK  status: ('A' for Active; 'I' for Inactive)
REMARK    1  A    between atoms: C_1  and  O_2
REMARK    2  A    between atoms: O_2  and  C_3
REMARK    3  A    between atoms: C_7  and  N_8
REMARK    4  A    between atoms: N_8  and  C_9
REMARK    5  A    between atoms: C_9  and  C_10
REMARK    6  A    between atoms: C_13  and  C_14
REMARK    7  A    between atoms: C_14  and  N_15
REMARK    8  A    between atoms: C_16  and  C_18
REMARK                            x       y       z     vdW  Elec       q    Type
REMARK                         _______ _______ _______ _____ _____    ______ ____
ROOT
ATOM      1  C   UNL     1      44.699   5.623  12.260  0.00  0.00    +0.000 C 
ATOM      2  C   UNL     1      44.622   4.152  12.705  0.00  0.00    +0.000 C 
ATOM      3  C   UNL     1      46.002   3.499  12.794  0.00  0.00    +0.000 C 
ATOM      4  C   UNL     1      46.953   4.266  13.730  0.00  0.00    +0.000 C 
ATOM      5  C   UNL     1      47.031   5.747  13.320  0.00  0.00    +0.000 C 
ATOM      6  C   UNL     1      45.654   6.408  13.177  0.00  0.00    +0.000 C 
ENDROOT
BRANCH   1   7
ATOM      7  C   UNL     1      45.129   5.778  10.789  0.00  0.00    +0.000 C 
BRANCH   7   8
ATOM      8  N   UNL     1      44.428   4.819   9.938  0.00  0.00    +0.000 N 
ATOM      9  H   UNL     1      43.599   5.218   9.504  0.00  0.00    +0.000 HD
BRANCH   8  14
ATOM     10  C   UNL     1      45.974   1.913   8.226  0.00  0.00    +0.000 A 
ATOM     11  C   UNL     1      46.766   2.537   7.264  0.00  0.00    +0.000 A 
ATOM     12  C   UNL     1      46.799   3.927   7.193  0.00  0.00    +0.000 A 
ATOM     13  C   UNL     1      46.027   4.695   8.066  0.00  0.00    +0.000 A 
ATOM     14  C   UNL     1      45.188   4.092   9.010  0.00  0.00    +0.000 A 
ATOM     15  C   UNL     1      45.214   2.695   9.104  0.00  0.00    +0.000 A 
BRANCH  10  17
ATOM     16  C   UNL     1      46.696  -0.268   7.621  0.00  0.00    +0.000 C 
ATOM     17  O   UNL     1      45.851   0.562   8.410  0.00  0.00    +0.000 OA
ENDBRANCH  10  17
ENDBRANCH   8  14
ENDBRANCH   7   8
ENDBRANCH   1   7
BRANCH   4  18
ATOM     18  C   UNL     1      46.550   4.141  15.210  0.00  0.00    +0.000 C 
BRANCH  18  19
ATOM     19  N   UNL     1      47.495   4.788  16.095  0.00  0.00    +0.000 N 
ATOM     20  C   UNL     1      48.508   4.084  16.699  0.00  0.00    +0.000 C 
ATOM     21  O   UNL     1      48.689   2.887  16.486  0.00  0.00    +0.000 OA
ATOM     22  H   UNL     1      47.265   5.720  16.432  0.00  0.00    +0.000 HD
BRANCH  20  23
ATOM     23  C   UNL     1      49.408   4.834  17.579  0.00  0.00    +0.000 A 
ATOM     24  C   UNL     1      49.593   4.399  18.884  0.00  0.00    +0.000 A 
ATOM     25  S   UNL     1      50.643   5.383  19.794  0.00  0.00    +0.000 S 
ATOM     26  C   UNL     1      50.861   6.449  18.486  0.00  0.00    +0.000 A 
ATOM     27  N   UNL     1      51.627   7.565  18.618  0.00  0.00    +0.000 NA
ATOM     28  C   UNL     1      51.680   8.302  17.561  0.00  0.00    +0.000 A 
ATOM     29  N   UNL     1      51.053   8.015  16.375  0.00  0.00    +0.000 N 
ATOM     30  C   UNL     1      50.316   6.870  16.177  0.00  0.00    +0.000 A 
ATOM     31  O   UNL     1      49.848   6.593  15.077  0.00  0.00    +0.000 OA
ATOM     32  C   UNL     1      50.179   6.034  17.354  0.00  0.00    +0.000 A 
ATOM     33  H   UNL     1      51.162   8.620  15.575  0.00  0.00    +0.000 HD
ENDBRANCH  20  23
ENDBRANCH  18  19
ENDBRANCH   4  18
TORSDOF 7
ENDMDL
MODEL 4
REMARK VINA RESULT:    -7.218      1.438      2.048
REMARK INTER + INTRA:         -11.192
REMARK INTER:                 -10.542
REMARK INTRA:                  -0.650
REMARK UNBOUND:                -1.020
REMARK  Name = 
REMARK  8 active torsions:
REMARK  status: ('A' for Active; 'I' for Inactive)
REMARK    1  A    between atoms: C_1  and  O_2
REMARK    2  A    between atoms: O_2  and  C_3
REMARK    3  A    between atoms: C_7  and  N_8
REMARK    4  A    between atoms: N_8  and  C_9
REMARK    5  A    between atoms: C_9  and  C_10
REMARK    6  A    between atoms: C_13  and  C_14
REMARK    7  A    between atoms: C_14  and  N_15
REMARK    8  A    between atoms: C_16  and  C_18
REMARK                            x       y       z     vdW  Elec       q    Type
REMARK                         _______ _______ _______ _____ _____    ______ ____
ROOT
ATOM      1  C   UNL     1      45.585   4.773  11.142  0.00  0.00    +0.000 C 
ATOM      2  C   UNL     1      46.411   6.012  11.527  0.00  0.00    +0.000 C 
ATOM      3  C   UNL     1      45.976   6.608  12.866  0.00  0.00    +0.000 C 
ATOM      4  C   UNL     1      46.035   5.580  14.010  0.00  0.00    +0.000 C 
ATOM      5  C   UNL     1      45.233   4.320  13.641  0.00  0.00    +0.000 C 
ATOM      6  C   UNL     1      45.621   3.735  12.278  0.00  0.00    +0.000 C 
ENDROOT
BRANCH   1   7
ATOM      7  C   UNL     1      44.127   5.118  10.784  0.00  0.00    +0.000 C 
BRANCH   7   8
ATOM      8  N   UNL     1      43.783   4.613   9.457  0.00  0.00    +0.000 N 
ATOM      9  H   UNL     1      43.316   5.312   8.884  0.00  0.00    +0.000 HD
BRANCH   8  14
ATOM     10  C   UNL     1      45.900   1.839   8.197  0.00  0.00    +0.000 A 
ATOM     11  C   UNL     1      46.824   2.521   7.408  0.00  0.00    +0.000 A 
ATOM     12  C   UNL     1      46.753   3.907   7.306  0.00  0.00    +0.000 A 
ATOM     13  C   UNL     1      45.751   4.613   7.973  0.00  0.00    +0.000 A 
ATOM     14  C   UNL     1      44.783   3.947   8.733  0.00  0.00    +0.000 A 
ATOM     15  C   UNL     1      44.906   2.558   8.871  0.00  0.00    +0.000 A 
BRANCH  10  17
ATOM     16  C   UNL     1      46.741  -0.302   7.599  0.00  0.00    +0.000 C 
ATOM     17  O   UNL     1      45.855   0.484   8.389  0.00  0.00    +0.000 OA
ENDBRANCH  10  17
ENDBRANCH   8  14
ENDBRANCH   7   8
ENDBRANCH   1   7
BRANCH   4  18
ATOM     18  C   UNL     1      47.478   5.205  14.391  0.00  0.00    +0.000 C 
BRANCH  18  19
ATOM     19  N   UNL     1      47.777   5.500  15.776  0.00  0.00    +0.000 N 
ATOM     20  C   UNL     1      47.546   4.580  16.769  0.00  0.00    +0.000 C 
ATOM     21  O   UNL     1      47.119   3.452  16.530  0.00  0.00    +0.000 OA
ATOM     22  H   UNL     1      47.953   6.469  16.025  0.00  0.00    +0.000 HD
BRANCH  20  23
ATOM     23  C   UNL     1      47.881   4.979  18.139  0.00  0.00    +0.000 A 
ATOM     24  C   UNL     1      46.939   5.670  18.889  0.00  0.00    +0.000 A 
ATOM     25  S   UNL     1      47.478   6.090  20.449  0.00  0.00    +0.000 S 
ATOM     26  C   UNL     1      49.005   5.397  20.164  0.00  0.00    +0.000 A 
ATOM     27  N   UNL     1      49.984   5.461  21.106  0.00  0.00    +0.000 NA
ATOM     28  C   UNL     1      51.102   4.925  20.748  0.00  0.00    +0.000 A 
ATOM     29  N   UNL     1      51.325   4.313  19.541  0.00  0.00    +0.000 N 
ATOM     30  C   UNL     1      50.348   4.174  18.582  0.00  0.00    +0.000 A 
ATOM     31  O   UNL     1      50.550   3.537  17.553  0.00  0.00    +0.000 OA
ATOM     32  C   UNL     1      49.087   4.809  18.913  0.00  0.00    +0.000 A 
ATOM     33  H   UNL     1      52.216   3.886  19.337  0.00  0.00    +0.000 HD
ENDBRANCH  20  23
ENDBRANCH  18  19
ENDBRANCH   4  18
TORSDOF 7
ENDMDL
MODEL 5
REMARK VINA RESULT:    -7.206      2.174      2.965
REMARK INTER + INTRA:         -11.174
REMARK INTER:                 -10.087
REMARK INTRA:                  -1.087
REMARK UNBOUND:                -1.020
REMARK  Name = 
REMARK  8 active torsions:
REMARK  status: ('A' for Active; 'I' for Inactive)
REMARK    1  A    between atoms: C_1  and  O_2
REMARK    2  A    between atoms: O_2  and  C_3
REMARK    3  A    between atoms: C_7  and  N_8
REMARK    4  A    between atoms: N_8  and  C_9
REMARK    5  A    between atoms: C_9  and  C_10
REMARK    6  A    between atoms: C_13  and  C_14
REMARK    7  A    between atoms: C_14  and  N_15
REMARK    8  A    between atoms: C_16  and  C_18
REMARK                            x       y       z     vdW  Elec       q    Type
REMARK                         _______ _______ _______ _____ _____    ______ ____
ROOT
ATOM      1  C   UNL     1      45.304   6.698  12.453  0.00  0.00    +0.000 C 
ATOM      2  C   UNL     1      46.580   6.016  12.976  0.00  0.00    +0.000 C 
ATOM      3  C   UNL     1      47.850   6.745  12.538  0.00  0.00    +0.000 C 
ATOM      4  C   UNL     1      47.852   8.224  12.964  0.00  0.00    +0.000 C 
ATOM      5  C   UNL     1      46.574   8.926  12.471  0.00  0.00    +0.000 C 
ATOM      6  C   UNL     1      45.290   8.183  12.858  0.00  0.00    +0.000 C 
ENDROOT
BRANCH   1   7
ATOM      7  C   UNL     1      45.140   6.563  10.927  0.00  0.00    +0.000 C 
BRANCH   7   8
ATOM      8  N   UNL     1      44.172   5.520  10.598  0.00  0.00    +0.000 N 
ATOM      9  H   UNL     1      43.314   5.897  10.203  0.00  0.00    +0.000 HD
BRANCH   8  14
ATOM     10  C   UNL     1      45.853   3.582   7.917  0.00  0.00    +0.000 A 
ATOM     11  C   UNL     1      45.506   2.274   8.251  0.00  0.00    +0.000 A 
ATOM     12  C   UNL     1      44.701   2.036   9.360  0.00  0.00    +0.000 A 
ATOM     13  C   UNL     1      44.256   3.097  10.150  0.00  0.00    +0.000 A 
ATOM     14  C   UNL     1      44.628   4.415   9.863  0.00  0.00    +0.000 A 
ATOM     15  C   UNL     1      45.391   4.639   8.709  0.00  0.00    +0.000 A 
BRANCH  10  17
ATOM     16  C   UNL     1      46.760   3.020   5.794  0.00  0.00    +0.000 C 
ATOM     17  O   UNL     1      46.630   3.960   6.856  0.00  0.00    +0.000 OA
ENDBRANCH  10  17
ENDBRANCH   8  14
ENDBRANCH   7   8
ENDBRANCH   1   7
BRANCH   4  18
ATOM     18  C   UNL     1      48.007   8.399  14.485  0.00  0.00    +0.000 C 
BRANCH  18  19
ATOM     19  N   UNL     1      48.789   7.339  15.085  0.00  0.00    +0.000 N 
ATOM     20  C   UNL     1      49.101   7.349  16.422  0.00  0.00    +0.000 C 
ATOM     21  O   UNL     1      48.697   8.228  17.181  0.00  0.00    +0.000 OA
ATOM     22  H   UNL     1      49.286   6.708  14.462  0.00  0.00    +0.000 HD
BRANCH  20  23
ATOM     23  C   UNL     1      49.901   6.230  16.929  0.00  0.00    +0.000 A 
ATOM     24  C   UNL     1      51.179   6.479  17.410  0.00  0.00    +0.000 A 
ATOM     25  S   UNL     1      51.997   5.082  17.939  0.00  0.00    +0.000 S 
ATOM     26  C   UNL     1      50.685   4.088  17.508  0.00  0.00    +0.000 A 
ATOM     27  N   UNL     1      50.757   2.738  17.657  0.00  0.00    +0.000 NA
ATOM     28  C   UNL     1      49.706   2.103  17.261  0.00  0.00    +0.000 A 
ATOM     29  N   UNL     1      48.581   2.696  16.747  0.00  0.00    +0.000 N 
ATOM     30  C   UNL     1      48.441   4.060  16.631  0.00  0.00    +0.000 A 
ATOM     31  O   UNL     1      47.387   4.564  16.259  0.00  0.00    +0.000 OA
ATOM     32  C   UNL     1      49.618   4.817  17.012  0.00  0.00    +0.000 A 
ATOM     33  H   UNL     1      47.781   2.140  16.485  0.00  0.00    +0.000 HD
ENDBRANCH  20  23
ENDBRANCH  18  19
ENDBRANCH   4  18
TORSDOF 7
ENDMDL
MODEL 6
REMARK VINA RESULT:    -6.731      3.534      9.042
REMARK INTER + INTRA:         -10.505
REMARK INTER:                  -9.382
REMARK INTRA:                  -1.123
REMARK UNBOUND:                -1.020
REMARK  Name = 
REMARK  8 active torsions:
REMARK  status: ('A' for Active; 'I' for Inactive)
REMARK    1  A    between atoms: C_1  and  O_2
REMARK    2  A    between atoms: O_2  and  C_3
REMARK    3  A    between atoms: C_7  and  N_8
REMARK    4  A    between atoms: N_8  and  C_9
REMARK    5  A    between atoms: C_9  and  C_10
REMARK    6  A    between atoms: C_13  and  C_14
REMARK    7  A    between atoms: C_14  and  N_15
REMARK    8  A    between atoms: C_16  and  C_18
REMARK                            x       y       z     vdW  Elec       q    Type
REMARK                         _______ _______ _______ _____ _____    ______ ____
ROOT
ATOM      1  C   UNL     1      48.909   8.033  15.133  0.00  0.00    +0.000 C 
ATOM      2  C   UNL     1      48.620   9.279  14.279  0.00  0.00    +0.000 C 
ATOM      3  C   UNL     1      49.190   9.161  12.866  0.00  0.00    +0.000 C 
ATOM      4  C   UNL     1      48.677   7.910  12.131  0.00  0.00    +0.000 C 
ATOM      5  C   UNL     1      48.935   6.649  12.974  0.00  0.00    +0.000 C 
ATOM      6  C   UNL     1      48.414   6.766  14.411  0.00  0.00    +0.000 C 
ENDROOT
BRANCH   1   7
ATOM      7  C   UNL     1      50.401   7.890  15.491  0.00  0.00    +0.000 C 
BRANCH   7   8
ATOM      8  N   UNL     1      50.565   7.482  16.884  0.00  0.00    +0.000 N 
ATOM      9  H   UNL     1      49.823   7.837  17.483  0.00  0.00    +0.000 HD
BRANCH   8  14
ATOM     10  C   UNL     1      49.937   3.925  17.733  0.00  0.00    +0.000 A 
ATOM     11  C   UNL     1      51.231   3.410  17.779  0.00  0.00    +0.000 A 
ATOM     12  C   UNL     1      52.316   4.249  17.541  0.00  0.00    +0.000 A 
ATOM     13  C   UNL     1      52.112   5.596  17.239  0.00  0.00    +0.000 A 
ATOM     14  C   UNL     1      50.822   6.127  17.141  0.00  0.00    +0.000 A 
ATOM     15  C   UNL     1      49.746   5.281  17.441  0.00  0.00    +0.000 A 
BRANCH  10  17
ATOM     16  C   UNL     1      47.797   3.281  16.927  0.00  0.00    +0.000 C 
ATOM     17  O   UNL     1      48.785   3.219  17.950  0.00  0.00    +0.000 OA
ENDBRANCH  10  17
ENDBRANCH   8  14
ENDBRANCH   7   8
ENDBRANCH   1   7
BRANCH   4  18
ATOM     18  C   UNL     1      47.186   8.013  11.763  0.00  0.00    +0.000 C 
BRANCH  18  19
ATOM     19  N   UNL     1      46.583   6.716  11.542  0.00  0.00    +0.000 N 
ATOM     20  C   UNL     1      45.224   6.573  11.399  0.00  0.00    +0.000 C 
ATOM     21  O   UNL     1      44.462   7.537  11.407  0.00  0.00    +0.000 OA
ATOM     22  H   UNL     1      47.155   5.893  11.713  0.00  0.00    +0.000 HD
BRANCH  20  23
ATOM     23  C   UNL     1      44.715   5.216  11.183  0.00  0.00    +0.000 A 
ATOM     24  C   UNL     1      43.906   4.637  12.151  0.00  0.00    +0.000 A 
ATOM     25  S   UNL     1      43.414   3.051  11.775  0.00  0.00    +0.000 S 
ATOM     26  C   UNL     1      44.296   3.067  10.321  0.00  0.00    +0.000 A 
ATOM     27  N   UNL     1      44.341   1.966   9.523  0.00  0.00    +0.000 NA
ATOM     28  C   UNL     1      45.071   2.103   8.469  0.00  0.00    +0.000 A 
ATOM     29  N   UNL     1      45.747   3.248   8.128  0.00  0.00    +0.000 N 
ATOM     30  C   UNL     1      45.685   4.402   8.875  0.00  0.00    +0.000 A 
ATOM     31  O   UNL     1      46.220   5.438   8.494  0.00  0.00    +0.000 OA
ATOM     32  C   UNL     1      44.919   4.283  10.101  0.00  0.00    +0.000 A 
ATOM     33  H   UNL     1      46.277   3.297   7.271  0.00  0.00    +0.000 HD
ENDBRANCH  20  23
ENDBRANCH  18  19
ENDBRANCH   4  18
TORSDOF 7
ENDMDL
MODEL 7
REMARK VINA RESULT:    -6.668      3.497      8.838
REMARK INTER + INTRA:         -10.417
REMARK INTER:                  -9.854
REMARK INTRA:                  -0.564
REMARK UNBOUND:                -1.020
REMARK  Name = 
REMARK  8 active torsions:
REMARK  status: ('A' for Active; 'I' for Inactive)
REMARK    1  A    between atoms: C_1  and  O_2
REMARK    2  A    between atoms: O_2  and  C_3
REMARK    3  A    between atoms: C_7  and  N_8
REMARK    4  A    between atoms: N_8  and  C_9
REMARK    5  A    between atoms: C_9  and  C_10
REMARK    6  A    between atoms: C_13  and  C_14
REMARK    7  A    between atoms: C_14  and  N_15
REMARK    8  A    between atoms: C_16  and  C_18
REMARK                            x       y       z     vdW  Elec       q    Type
REMARK                         _______ _______ _______ _____ _____    ______ ____
ROOT
ATOM      1  C   UNL     1      49.161   6.542  19.124  0.00  0.00    +0.000 C 
ATOM      2  C   UNL     1      50.175   7.461  18.422  0.00  0.00    +0.000 C 
ATOM      3  C   UNL     1      50.743   6.834  17.148  0.00  0.00    +0.000 C 
ATOM      4  C   UNL     1      49.641   6.435  16.151  0.00  0.00    +0.000 C 
ATOM      5  C   UNL     1      48.599   5.532  16.835  0.00  0.00    +0.000 C 
ATOM      6  C   UNL     1      48.053   6.121  18.141  0.00  0.00    +0.000 C 
ENDROOT
BRANCH   1   7
ATOM      7  C   UNL     1      49.819   5.295  19.747  0.00  0.00    +0.000 C 
BRANCH   7   8
ATOM      8  N   UNL     1      51.238   5.232  19.407  0.00  0.00    +0.000 N 
ATOM      9  H   UNL     1      51.836   5.532  20.174  0.00  0.00    +0.000 HD
BRANCH   8  14
ATOM     10  C   UNL     1      51.269   2.114  17.397  0.00  0.00    +0.000 A 
ATOM     11  C   UNL     1      52.537   1.607  17.676  0.00  0.00    +0.000 A 
ATOM     12  C   UNL     1      53.379   2.295  18.546  0.00  0.00    +0.000 A 
ATOM     13  C   UNL     1      52.966   3.497  19.122  0.00  0.00    +0.000 A 
ATOM     14  C   UNL     1      51.717   4.051  18.821  0.00  0.00    +0.000 A 
ATOM     15  C   UNL     1      50.862   3.314  17.990  0.00  0.00    +0.000 A 
BRANCH  10  17
ATOM     16  C   UNL     1      49.059   2.157  16.526  0.00  0.00    +0.000 C 
ATOM     17  O   UNL     1      50.342   1.542  16.568  0.00  0.00    +0.000 OA
ENDBRANCH  10  17
ENDBRANCH   8  14
ENDBRANCH   7   8
ENDBRANCH   1   7
BRANCH   4  18
ATOM     18  C   UNL     1      48.954   7.656  15.513  0.00  0.00    +0.000 C 
BRANCH  18  19
ATOM     19  N   UNL     1      47.789   7.289  14.736  0.00  0.00    +0.000 N 
ATOM     20  C   UNL     1      47.909   6.726  13.489  0.00  0.00    +0.000 C 
ATOM     21  O   UNL     1      49.003   6.466  12.992  0.00  0.00    +0.000 OA
ATOM     22  H   UNL     1      46.888   7.655  15.033  0.00  0.00    +0.000 HD
BRANCH  20  23
ATOM     23  C   UNL     1      46.667   6.395  12.785  0.00  0.00    +0.000 A 
ATOM     24  C   UNL     1      45.949   7.410  12.170  0.00  0.00    +0.000 A 
ATOM     25  S   UNL     1      44.517   6.880  11.416  0.00  0.00    +0.000 S 
ATOM     26  C   UNL     1      44.787   5.276  11.917  0.00  0.00    +0.000 A 
ATOM     27  N   UNL     1      43.884   4.299  11.636  0.00  0.00    +0.000 NA
ATOM     28  C   UNL     1      44.196   3.137  12.102  0.00  0.00    +0.000 A 
ATOM     29  N   UNL     1      45.339   2.858  12.807  0.00  0.00    +0.000 N 
ATOM     30  C   UNL     1      46.307   3.801  13.064  0.00  0.00    +0.000 A 
ATOM     31  O   UNL     1      47.363   3.500  13.612  0.00  0.00    +0.000 OA
ATOM     32  C   UNL     1      45.978   5.138  12.609  0.00  0.00    +0.000 A 
ATOM     33  H   UNL     1      45.537   1.918  13.116  0.00  0.00    +0.000 HD
ENDBRANCH  20  23
ENDBRANCH  18  19
ENDBRANCH   4  18
TORSDOF 7
ENDMDL
MODEL 8
REMARK VINA RESULT:    -6.593      2.463      3.956
REMARK INTER + INTRA:         -10.312
REMARK INTER:                  -9.101
REMARK INTRA:                  -1.211
REMARK UNBOUND:                -1.020
REMARK  Name = 
REMARK  8 active torsions:
REMARK  status: ('A' for Active; 'I' for Inactive)
REMARK    1  A    between atoms: C_1  and  O_2
REMARK    2  A    between atoms: O_2  and  C_3
REMARK    3  A    between atoms: C_7  and  N_8
REMARK    4  A    between atoms: N_8  and  C_9
REMARK    5  A    between atoms: C_9  and  C_10
REMARK    6  A    between atoms: C_13  and  C_14
REMARK    7  A    between atoms: C_14  and  N_15
REMARK    8  A    between atoms: C_16  and  C_18
REMARK                            x       y       z     vdW  Elec       q    Type
REMARK                         _______ _______ _______ _____ _____    ______ ____
ROOT
ATOM      1  C   UNL     1      45.988   8.497  12.392  0.00  0.00    +0.000 C 
ATOM      2  C   UNL     1      46.418   7.397  13.378  0.00  0.00    +0.000 C 
ATOM      3  C   UNL     1      47.563   6.543  12.835  0.00  0.00    +0.000 C 
ATOM      4  C   UNL     1      48.790   7.387  12.447  0.00  0.00    +0.000 C 
ATOM      5  C   UNL     1      48.384   8.509  11.475  0.00  0.00    +0.000 C 
ATOM      6  C   UNL     1      47.204   9.348  11.981  0.00  0.00    +0.000 C 
ENDROOT
BRANCH   1   7
ATOM      7  C   UNL     1      45.289   7.932  11.140  0.00  0.00    +0.000 C 
BRANCH   7   8
ATOM      8  N   UNL     1      43.988   7.365  11.483  0.00  0.00    +0.000 N 
ATOM      9  H   UNL     1      43.247   7.690  10.866  0.00  0.00    +0.000 HD
BRANCH   8  14
ATOM     10  C   UNL     1      44.130   3.733  10.735  0.00  0.00    +0.000 A 
ATOM     11  C   UNL     1      43.691   3.178  11.934  0.00  0.00    +0.000 A 
ATOM     12  C   UNL     1      43.332   4.011  12.990  0.00  0.00    +0.000 A 
ATOM     13  C   UNL     1      43.429   5.397  12.859  0.00  0.00    +0.000 A 
ATOM     14  C   UNL     1      43.912   5.978  11.681  0.00  0.00    +0.000 A 
ATOM     15  C   UNL     1      44.213   5.125  10.611  0.00  0.00    +0.000 A 
BRANCH  10  17
ATOM     16  C   UNL     1      44.761   3.800   8.445  0.00  0.00    +0.000 C 
ATOM     17  O   UNL     1      44.509   3.036   9.620  0.00  0.00    +0.000 OA
ENDBRANCH  10  17
ENDBRANCH   8  14
ENDBRANCH   7   8
ENDBRANCH   1   7
BRANCH   4  18
ATOM     18  C   UNL     1      49.512   7.975  13.673  0.00  0.00    +0.000 C 
BRANCH  18  19
ATOM     19  N   UNL     1      49.526   7.060  14.795  0.00  0.00    +0.000 N 
ATOM     20  C   UNL     1      49.026   7.424  16.021  0.00  0.00    +0.000 C 
ATOM     21  O   UNL     1      48.505   8.521  16.215  0.00  0.00    +0.000 OA
ATOM     22  H   UNL     1      50.106   6.229  14.720  0.00  0.00    +0.000 HD
BRANCH  20  23
ATOM     23  C   UNL     1      49.091   6.425  17.091  0.00  0.00    +0.000 A 
ATOM     24  C   UNL     1      49.850   6.695  18.221  0.00  0.00    +0.000 A 
ATOM     25  S   UNL     1      49.853   5.434  19.364  0.00  0.00    +0.000 S 
ATOM     26  C   UNL     1      48.868   4.464  18.373  0.00  0.00    +0.000 A 
ATOM     27  N   UNL     1      48.529   3.202  18.751  0.00  0.00    +0.000 NA
ATOM     28  C   UNL     1      47.807   2.566  17.891  0.00  0.00    +0.000 A 
ATOM     29  N   UNL     1      47.376   3.083  16.696  0.00  0.00    +0.000 N 
ATOM     30  C   UNL     1      47.646   4.372  16.299  0.00  0.00    +0.000 A 
ATOM     31  O   UNL     1      47.165   4.837  15.270  0.00  0.00    +0.000 OA
ATOM     32  C   UNL     1      48.502   5.112  17.206  0.00  0.00    +0.000 A 
ATOM     33  H   UNL     1      46.786   2.540  16.083  0.00  0.00    +0.000 HD
ENDBRANCH  20  23
ENDBRANCH  18  19
ENDBRANCH   4  18
TORSDOF 7
ENDMDL
MODEL 9
REMARK VINA RESULT:    -6.383      5.480      8.403
REMARK INTER + INTRA:         -10.014
REMARK INTER:                  -8.881
REMARK INTRA:                  -1.133
REMARK UNBOUND:                -1.020
REMARK  Name = 
REMARK  8 active torsions:
REMARK  status: ('A' for Active; 'I' for Inactive)
REMARK    1  A    between atoms: C_1  and  O_2
REMARK    2  A    between atoms: O_2  and  C_3
REMARK    3  A    between atoms: C_7  and  N_8
REMARK    4  A    between atoms: N_8  and  C_9
REMARK    5  A    between atoms: C_9  and  C_10
REMARK    6  A    between atoms: C_13  and  C_14
REMARK    7  A    between atoms: C_14  and  N_15
REMARK    8  A    between atoms: C_16  and  C_18
REMARK                            x       y       z     vdW  Elec       q    Type
REMARK                         _______ _______ _______ _____ _____    ______ ____
ROOT
ATOM      1  C   UNL     1      50.239   8.299  13.246  0.00  0.00    +0.000 C 
ATOM      2  C   UNL     1      49.231   9.360  13.720  0.00  0.00    +0.000 C 
ATOM      3  C   UNL     1      48.264   9.778  12.613  0.00  0.00    +0.000 C 
ATOM      4  C   UNL     1      47.502   8.580  12.018  0.00  0.00    +0.000 C 
ATOM      5  C   UNL     1      48.488   7.493  11.555  0.00  0.00    +0.000 C 
ATOM      6  C   UNL     1      49.499   7.095  12.637  0.00  0.00    +0.000 C 
ENDROOT
BRANCH   1   7
ATOM      7  C   UNL     1      51.262   8.859  12.238  0.00  0.00    +0.000 C 
BRANCH   7   8
ATOM      8  N   UNL     1      52.028   7.779  11.622  0.00  0.00    +0.000 N 
ATOM      9  H   UNL     1      51.578   6.873  11.727  0.00  0.00    +0.000 HD
BRANCH   8  14
ATOM     10  C   UNL     1      53.617   7.039   8.352  0.00  0.00    +0.000 A 
ATOM     11  C   UNL     1      53.539   8.274   7.710  0.00  0.00    +0.000 A 
ATOM     12  C   UNL     1      52.969   9.359   8.371  0.00  0.00    +0.000 A 
ATOM     13  C   UNL     1      52.461   9.211   9.662  0.00  0.00    +0.000 A 
ATOM     14  C   UNL     1      52.486   7.971  10.310  0.00  0.00    +0.000 A 
ATOM     15  C   UNL     1      53.115   6.906   9.651  0.00  0.00    +0.000 A 
BRANCH  10  17
ATOM     16  C   UNL     1      53.262   5.044   7.111  0.00  0.00    +0.000 C 
ATOM     17  O   UNL     1      54.153   5.895   7.825  0.00  0.00    +0.000 OA
ENDBRANCH  10  17
ENDBRANCH   8  14
ENDBRANCH   7   8
ENDBRANCH   1   7
BRANCH   4  18
ATOM     18  C   UNL     1      46.475   7.989  13.000  0.00  0.00    +0.000 C 
BRANCH  18  19
ATOM     19  N   UNL     1      46.023   6.674  12.598  0.00  0.00    +0.000 N 
ATOM     20  C   UNL     1      44.886   6.507  11.845  0.00  0.00    +0.000 C 
ATOM     21  O   UNL     1      44.225   7.461  11.440  0.00  0.00    +0.000 OA
ATOM     22  H   UNL     1      46.434   5.870  13.064  0.00  0.00    +0.000 HD
BRANCH  20  23
ATOM     23  C   UNL     1      44.514   5.134  11.495  0.00  0.00    +0.000 A 
ATOM     24  C   UNL     1      43.736   4.399  12.379  0.00  0.00    +0.000 A 
ATOM     25  S   UNL     1      43.406   2.815  11.850  0.00  0.00    +0.000 S 
ATOM     26  C   UNL     1      44.324   3.041  10.435  0.00  0.00    +0.000 A 
ATOM     27  N   UNL     1      44.496   2.025   9.548  0.00  0.00    +0.000 NA
ATOM     28  C   UNL     1      45.240   2.322   8.537  0.00  0.00    +0.000 A 
ATOM     29  N   UNL     1      45.814   3.549   8.322  0.00  0.00    +0.000 N 
ATOM     30  C   UNL     1      45.621   4.622   9.162  0.00  0.00    +0.000 A 
ATOM     31  O   UNL     1      46.068   5.732   8.891  0.00  0.00    +0.000 OA
ATOM     32  C   UNL     1      44.836   4.324  10.344  0.00  0.00    +0.000 A 
ATOM     33  H   UNL     1      46.361   3.723   7.492  0.00  0.00    +0.000 HD
ENDBRANCH  20  23
ENDBRANCH  18  19
ENDBRANCH   4  18
TORSDOF 7
ENDMDL
