MODEL 1
REMARK VINA RESULT:    -7.660      0.000      0.000
REMARK INTER + INTRA:          -9.968
REMARK INTER:                  -9.451
REMARK INTRA:                  -0.517
REMARK UNBOUND:                -0.517
REMARK  Name = 
REMARK  4 active torsions:
REMARK  status: ('A' for Active; 'I' for Inactive)
REMARK    1  A    between atoms: C_2  and  C_4
REMARK    2  A    between atoms: C_7  and  N_8
REMARK    3  A    between atoms: N_8  and  C_9
REMARK    4  A    between atoms: C_9  and  C_10
REMARK                            x       y       z     vdW  Elec       q    Type
REMARK                         _______ _______ _______ _____ _____    ______ ____
ROOT
ATOM      1  C   UNL     1      46.213   2.086   7.991  0.00  0.00    +0.000 A 
ATOM      2  C   UNL     1      46.372   3.417   7.639  0.00  0.00    +0.000 A 
ATOM      3  C   UNL     1      45.552   4.361   8.252  0.00  0.00    +0.000 A 
ATOM      4  C   UNL     1      44.577   3.966   9.173  0.00  0.00    +0.000 A 
ATOM      5  C   UNL     1      44.520   2.604   9.466  0.00  0.00    +0.000 A 
ATOM      6  N   UNL     1      45.301   1.649   8.903  0.00  0.00    +0.000 NA
ENDROOT
BRANCH   1   8
ATOM      7  N   UNL     1      46.756  -0.253   7.673  0.00  0.00    +0.000 N 
ATOM      8  C   UNL     1      47.076   1.039   7.358  0.00  0.00    +0.000 C 
ATOM      9  O   UNL     1      48.005   1.310   6.608  0.00  0.00    +0.000 OA
ATOM     10  H   UNL     1      47.297  -1.012   7.286  0.00  0.00    +0.000 HD
ATOM     11  H   UNL     1      45.971  -0.436   8.288  0.00  0.00    +0.000 HD
ENDBRANCH   1   8
BRANCH   4  12
ATOM     12  N   UNL     1      43.785   4.954   9.763  0.00  0.00    +0.000 N 
ATOM     13  H   UNL     1      44.025   5.876   9.400  0.00  0.00    +0.000 HD
BRANCH  12  14
ATOM     14  C   UNL     1      43.654   4.971  11.215  0.00  0.00    +0.000 C 
BRANCH  14  15
ATOM     15  C   UNL     1      44.962   5.388  11.846  0.00  0.00    +0.000 A 
ATOM     16  C   UNL     1      45.494   4.651  12.918  0.00  0.00    +0.000 A 
ATOM     17  C   UNL     1      46.735   4.980  13.463  0.00  0.00    +0.000 A 
ATOM     18  C   UNL     1      47.462   6.048  12.943  0.00  0.00    +0.000 A 
ATOM     19  C   UNL     1      46.944   6.791  11.883  0.00  0.00    +0.000 A 
ATOM     20  C   UNL     1      45.703   6.462  11.334  0.00  0.00    +0.000 A 
ENDBRANCH  14  15
ENDBRANCH  12  14
ENDBRANCH   4  12
TORSDOF 4
ENDMDL
MODEL 2
REMARK VINA RESULT:    -7.577      3.099      5.818
REMARK INTER + INTRA:          -9.866
REMARK INTER:                  -9.456
REMARK INTRA:                  -0.409
REMARK UNBOUND:                -0.517
REMARK  Name = 
REMARK  4 active torsions:
REMARK  status: ('A' for Active; 'I' for Inactive)
REMARK    1  A    between atoms: C_2  and  C_4
REMARK    2  A    between atoms: C_7  and  N_8
REMARK    3  A    between atoms: N_8  and  C_9
REMARK    4  A    between atoms: C_9  and  C_10
REMARK                            x       y       z     vdW  Elec       q    Type
REMARK                         _______ _______ _______ _____ _____    ______ ____
ROOT
ATOM      1  C   UNL     1      46.558   4.599  13.691  0.00  0.00    +0.000 A 
ATOM      2  C   UNL     1      46.804   5.760  12.974  0.00  0.00    +0.000 A 
ATOM      3  C   UNL     1      46.161   5.925  11.749  0.00  0.00    +0.000 A 
ATOM      4  C   UNL     1      45.317   4.929  11.249  0.00  0.00    +0.000 A 
ATOM      5  C   UNL     1      45.127   3.813  12.065  0.00  0.00    +0.000 A 
ATOM      6  N   UNL     1      45.722   3.611  13.266  0.00  0.00    +0.000 NA
ENDROOT
BRANCH   1   8
ATOM      7  N   UNL     1      47.540   5.525  15.702  0.00  0.00    +0.000 N 
ATOM      8  C   UNL     1      47.226   4.385  15.013  0.00  0.00    +0.000 C 
ATOM      9  O   UNL     1      47.478   3.272  15.457  0.00  0.00    +0.000 OA
ATOM     10  H   UNL     1      47.997   5.458  16.600  0.00  0.00    +0.000 HD
ATOM     11  H   UNL     1      47.304   6.427  15.306  0.00  0.00    +0.000 HD
ENDBRANCH   1   8
BRANCH   4  12
ATOM     12  N   UNL     1      44.693   5.147  10.020  0.00  0.00    +0.000 N 
ATOM     13  H   UNL     1      44.019   5.909  10.085  0.00  0.00    +0.000 HD
BRANCH  12  14
ATOM     14  C   UNL     1      44.136   4.003   9.305  0.00  0.00    +0.000 C 
BRANCH  14  15
ATOM     15  C   UNL     1      45.234   3.268   8.573  0.00  0.00    +0.000 A 
ATOM     16  C   UNL     1      45.415   1.889   8.774  0.00  0.00    +0.000 A 
ATOM     17  C   UNL     1      46.376   1.183   8.051  0.00  0.00    +0.000 A 
ATOM     18  C   UNL     1      47.168   1.845   7.115  0.00  0.00    +0.000 A 
ATOM     19  C   UNL     1      47.004   3.214   6.909  0.00  0.00    +0.000 A 
ATOM     20  C   UNL     1      46.040   3.922   7.631  0.00  0.00    +0.000 A 
ENDBRANCH  14  15
ENDBRANCH  12  14
ENDBRANCH   4  12
TORSDOF 4
ENDMDL
MODEL 3
REMARK VINA RESULT:    -7.527      3.182      6.033
REMARK INTER + INTRA:          -9.804
REMARK INTER:                  -9.401
REMARK INTRA:                  -0.403
REMARK UNBOUND:                -0.517
REMARK  Name = 
REMARK  4 active torsions:
REMARK  status: ('A' for Active; 'I' for Inactive)
REMARK    1  A    between atoms: C_2  and  C_4
REMARK    2  A    between atoms: C_7  and  N_8
REMARK    3  A    between atoms: N_8  and  C_9
REMARK    4  A    between atoms: C_9  and  C_10
REMARK                            x       y       z     vdW  Elec       q    Type
REMARK                         _______ _______ _______ _____ _____    ______ ____
ROOT
ATOM      1  C   UNL     1      46.508   4.671  13.757  0.00  0.00    +0.000 A 
ATOM      2  C   UNL     1      46.671   5.861  13.067  0.00  0.00    +0.000 A 
ATOM      3  C   UNL     1      46.113   5.964  11.794  0.00  0.00    +0.000 A 
ATOM      4  C   UNL     1      45.435   4.882  11.225  0.00  0.00    +0.000 A 
ATOM      5  C   UNL     1      45.315   3.742  12.019  0.00  0.00    +0.000 A 
ATOM      6  N   UNL     1      45.832   3.596  13.264  0.00  0.00    +0.000 NA
ENDROOT
BRANCH   1   8
ATOM      7  N   UNL     1      47.706   5.635  15.629  0.00  0.00    +0.000 N 
ATOM      8  C   UNL     1      47.090   4.520  15.129  0.00  0.00    +0.000 C 
ATOM      9  O   UNL     1      47.024   3.478  15.767  0.00  0.00    +0.000 OA
ATOM     10  H   UNL     1      48.125   5.607  16.547  0.00  0.00    +0.000 HD
ATOM     11  H   UNL     1      47.729   6.483  15.074  0.00  0.00    +0.000 HD
ENDBRANCH   1   8
BRANCH   4  12
ATOM     12  N   UNL     1      44.890   5.040   9.950  0.00  0.00    +0.000 N 
ATOM     13  H   UNL     1      44.279   5.856   9.914  0.00  0.00    +0.000 HD
BRANCH  12  14
ATOM     14  C   UNL     1      44.274   3.886   9.304  0.00  0.00    +0.000 C 
BRANCH  14  15
ATOM     15  C   UNL     1      45.302   3.147   8.479  0.00  0.00    +0.000 A 
ATOM     16  C   UNL     1      46.096   3.845   7.554  0.00  0.00    +0.000 A 
ATOM     17  C   UNL     1      47.099   3.190   6.838  0.00  0.00    +0.000 A 
ATOM     18  C   UNL     1      47.322   1.830   7.039  0.00  0.00    +0.000 A 
ATOM     19  C   UNL     1      46.538   1.124   7.950  0.00  0.00    +0.000 A 
ATOM     20  C   UNL     1      45.535   1.779   8.670  0.00  0.00    +0.000 A 
ENDBRANCH  14  15
ENDBRANCH  12  14
ENDBRANCH   4  12
TORSDOF 4
ENDMDL
MODEL 4
REMARK VINA RESULT:    -6.709      3.575      6.201
REMARK INTER + INTRA:          -8.794
REMARK INTER:                  -8.375
REMARK INTRA:                  -0.419
REMARK UNBOUND:                -0.517
REMARK  Name = 
REMARK  4 active torsions:
REMARK  status: ('A' for Active; 'I' for Inactive)
REMARK    1  A    between atoms: C_2  and  C_4
REMARK    2  A    between atoms: C_7  and  N_8
REMARK    3  A    between atoms: N_8  and  C_9
REMARK    4  A    between atoms: C_9  and  C_10
REMARK                            x       y       z     vdW  Elec       q    Type
REMARK                         _______ _______ _______ _____ _____    ______ ____
ROOT
ATOM      1  C   UNL     1      47.000   4.855  14.574  0.00  0.00    +0.000 A 
ATOM      2  C   UNL     1      47.501   5.913  13.832  0.00  0.00    +0.000 A 
ATOM      3  C   UNL     1      46.924   6.175  12.591  0.00  0.00    +0.000 A 
ATOM      4  C   UNL     1      45.890   5.372  12.103  0.00  0.00    +0.000 A 
ATOM      5  C   UNL     1      45.452   4.350  12.944  0.00  0.00    +0.000 A 
ATOM      6  N   UNL     1      45.975   4.059  14.161  0.00  0.00    +0.000 NA
ENDROOT
BRANCH   1   8
ATOM      7  N   UNL     1      47.309   3.292  16.399  0.00  0.00    +0.000 N 
ATOM      8  C   UNL     1      47.590   4.540  15.914  0.00  0.00    +0.000 C 
ATOM      9  O   UNL     1      48.278   5.336  16.540  0.00  0.00    +0.000 OA
ATOM     10  H   UNL     1      47.669   3.011  17.299  0.00  0.00    +0.000 HD
ATOM     11  H   UNL     1      46.745   2.657  15.845  0.00  0.00    +0.000 HD
ENDBRANCH   1   8
BRANCH   4  12
ATOM     12  N   UNL     1      45.343   5.683  10.856  0.00  0.00    +0.000 N 
ATOM     13  H   UNL     1      44.980   6.636  10.847  0.00  0.00    +0.000 HD
BRANCH  12  14
ATOM     14  C   UNL     1      44.400   4.748  10.253  0.00  0.00    +0.000 C 
BRANCH  14  15
ATOM     15  C   UNL     1      45.115   3.867   9.255  0.00  0.00    +0.000 A 
ATOM     16  C   UNL     1      45.876   4.444   8.224  0.00  0.00    +0.000 A 
ATOM     17  C   UNL     1      46.601   3.645   7.339  0.00  0.00    +0.000 A 
ATOM     18  C   UNL     1      46.576   2.259   7.475  0.00  0.00    +0.000 A 
ATOM     19  C   UNL     1      45.820   1.672   8.489  0.00  0.00    +0.000 A 
ATOM     20  C   UNL     1      45.097   2.472   9.378  0.00  0.00    +0.000 A 
ENDBRANCH  14  15
ENDBRANCH  12  14
ENDBRANCH   4  12
TORSDOF 4
ENDMDL
MODEL 5
REMARK VINA RESULT:    -6.290      3.043      6.313
REMARK INTER + INTRA:          -8.277
REMARK INTER:                  -8.168
REMARK INTRA:                  -0.109
REMARK UNBOUND:                -0.517
REMARK  Name = 
REMARK  4 active torsions:
REMARK  status: ('A' for Active; 'I' for Inactive)
REMARK    1  A    between atoms: C_2  and  C_4
REMARK    2  A    between atoms: C_7  and  N_8
REMARK    3  A    between atoms: N_8  and  C_9
REMARK    4  A    between atoms: C_9  and  C_10
REMARK                            x       y       z     vdW  Elec       q    Type
REMARK                         _______ _______ _______ _____ _____    ______ ____
ROOT
ATOM      1  C   UNL     1      44.825   6.648  11.570  0.00  0.00    +0.000 A 
ATOM      2  C   UNL     1      44.074   5.718  12.272  0.00  0.00    +0.000 A 
ATOM      3  C   UNL     1      44.149   4.383  11.881  0.00  0.00    +0.000 A 
ATOM      4  C   UNL     1      44.939   4.004  10.791  0.00  0.00    +0.000 A 
ATOM      5  C   UNL     1      45.666   5.021  10.173  0.00  0.00    +0.000 A 
ATOM      6  N   UNL     1      45.634   6.331  10.521  0.00  0.00    +0.000 NA
ENDROOT
BRANCH   1   8
ATOM      7  N   UNL     1      45.291   8.384  13.194  0.00  0.00    +0.000 N 
ATOM      8  C   UNL     1      44.775   8.092  11.960  0.00  0.00    +0.000 C 
ATOM      9  O   UNL     1      44.308   8.960  11.234  0.00  0.00    +0.000 OA
ATOM     10  H   UNL     1      45.287   9.337  13.526  0.00  0.00    +0.000 HD
ATOM     11  H   UNL     1      45.679   7.638  13.760  0.00  0.00    +0.000 HD
ENDBRANCH   1   8
BRANCH   4  12
ATOM     12  N   UNL     1      44.983   2.652  10.444  0.00  0.00    +0.000 N 
ATOM     13  H   UNL     1      45.917   2.270  10.593  0.00  0.00    +0.000 HD
BRANCH  12  14
ATOM     14  C   UNL     1      44.439   2.242   9.155  0.00  0.00    +0.000 C 
BRANCH  14  15
ATOM     15  C   UNL     1      45.531   2.243   8.110  0.00  0.00    +0.000 A 
ATOM     16  C   UNL     1      45.684   3.346   7.253  0.00  0.00    +0.000 A 
ATOM     17  C   UNL     1      46.732   3.394   6.333  0.00  0.00    +0.000 A 
ATOM     18  C   UNL     1      47.642   2.341   6.260  0.00  0.00    +0.000 A 
ATOM     19  C   UNL     1      47.498   1.238   7.101  0.00  0.00    +0.000 A 
ATOM     20  C   UNL     1      46.451   1.190   8.024  0.00  0.00    +0.000 A 
ENDBRANCH  14  15
ENDBRANCH  12  14
ENDBRANCH   4  12
TORSDOF 4
ENDMDL
MODEL 6
REMARK VINA RESULT:    -5.709      3.967      5.848
REMARK INTER + INTRA:          -7.561
REMARK INTER:                  -7.159
REMARK INTRA:                  -0.402
REMARK UNBOUND:                -0.517
REMARK  Name = 
REMARK  4 active torsions:
REMARK  status: ('A' for Active; 'I' for Inactive)
REMARK    1  A    between atoms: C_2  and  C_4
REMARK    2  A    between atoms: C_7  and  N_8
REMARK    3  A    between atoms: N_8  and  C_9
REMARK    4  A    between atoms: C_9  and  C_10
REMARK                            x       y       z     vdW  Elec       q    Type
REMARK                         _______ _______ _______ _____ _____    ______ ____
ROOT
ATOM      1  C   UNL     1      45.115   4.211  11.729  0.00  0.00    +0.000 A 
ATOM      2  C   UNL     1      45.691   3.186  12.464  0.00  0.00    +0.000 A 
ATOM      3  C   UNL     1      46.421   3.523  13.601  0.00  0.00    +0.000 A 
ATOM      4  C   UNL     1      46.590   4.862  13.968  0.00  0.00    +0.000 A 
ATOM      5  C   UNL     1      45.949   5.806  13.167  0.00  0.00    +0.000 A 
ATOM      6  N   UNL     1      45.222   5.529  12.057  0.00  0.00    +0.000 NA
ENDROOT
BRANCH   1   8
ATOM      7  N   UNL     1      44.300   4.871   9.546  0.00  0.00    +0.000 N 
ATOM      8  C   UNL     1      44.320   3.892  10.501  0.00  0.00    +0.000 C 
ATOM      9  O   UNL     1      43.727   2.832  10.352  0.00  0.00    +0.000 OA
ATOM     10  H   UNL     1      43.780   4.728   8.693  0.00  0.00    +0.000 HD
ATOM     11  H   UNL     1      44.814   5.731   9.702  0.00  0.00    +0.000 HD
ENDBRANCH   1   8
BRANCH   4  12
ATOM     12  N   UNL     1      47.326   5.144  15.120  0.00  0.00    +0.000 N 
ATOM     13  H   UNL     1      48.312   5.274  14.898  0.00  0.00    +0.000 HD
BRANCH  12  14
ATOM     14  C   UNL     1      47.151   4.290  16.289  0.00  0.00    +0.000 C 
BRANCH  14  15
ATOM     15  C   UNL     1      48.496   3.811  16.784  0.00  0.00    +0.000 A 
ATOM     16  C   UNL     1      48.845   2.455  16.674  0.00  0.00    +0.000 A 
ATOM     17  C   UNL     1      50.110   2.010  17.059  0.00  0.00    +0.000 A 
ATOM     18  C   UNL     1      51.044   2.917  17.557  0.00  0.00    +0.000 A 
ATOM     19  C   UNL     1      50.708   4.265  17.677  0.00  0.00    +0.000 A 
ATOM     20  C   UNL     1      49.443   4.712  17.289  0.00  0.00    +0.000 A 
ENDBRANCH  14  15
ENDBRANCH  12  14
ENDBRANCH   4  12
TORSDOF 4
ENDMDL
MODEL 7
REMARK VINA RESULT:    -5.634      3.193      4.824
REMARK INTER + INTRA:          -7.469
REMARK INTER:                  -7.125
REMARK INTRA:                  -0.344
REMARK UNBOUND:                -0.517
REMARK  Name = 
REMARK  4 active torsions:
REMARK  status: ('A' for Active; 'I' for Inactive)
REMARK    1  A    between atoms: C_2  and  C_4
REMARK    2  A    between atoms: C_7  and  N_8
REMARK    3  A    between atoms: N_8  and  C_9
REMARK    4  A    between atoms: C_9  and  C_10
REMARK                            x       y       z     vdW  Elec       q    Type
REMARK                         _______ _______ _______ _____ _____    ______ ____
ROOT
ATOM      1  C   UNL     1      44.602   3.900  11.668  0.00  0.00    +0.000 A 
ATOM      2  C   UNL     1      44.567   5.133  11.036  0.00  0.00    +0.000 A 
ATOM      3  C   UNL     1      45.221   6.202  11.645  0.00  0.00    +0.000 A 
ATOM      4  C   UNL     1      45.867   6.034  12.874  0.00  0.00    +0.000 A 
ATOM      5  C   UNL     1      45.855   4.745  13.407  0.00  0.00    +0.000 A 
ATOM      6  N   UNL     1      45.240   3.673  12.850  0.00  0.00    +0.000 NA
ENDROOT
BRANCH   1   8
ATOM      7  N   UNL     1      44.480   2.260   9.890  0.00  0.00    +0.000 N 
ATOM      8  C   UNL     1      43.914   2.725  11.046  0.00  0.00    +0.000 C 
ATOM      9  O   UNL     1      42.915   2.208  11.529  0.00  0.00    +0.000 OA
ATOM     10  H   UNL     1      44.068   1.472   9.411  0.00  0.00    +0.000 HD
ATOM     11  H   UNL     1      45.314   2.708   9.528  0.00  0.00    +0.000 HD
ENDBRANCH   1   8
BRANCH   4  12
ATOM     12  N   UNL     1      46.512   7.136  13.438  0.00  0.00    +0.000 N 
ATOM     13  H   UNL     1      46.193   7.295  14.393  0.00  0.00    +0.000 HD
BRANCH  12  14
ATOM     14  C   UNL     1      46.563   8.381  12.679  0.00  0.00    +0.000 C 
BRANCH  14  15
ATOM     15  C   UNL     1      47.955   8.596  12.132  0.00  0.00    +0.000 A 
ATOM     16  C   UNL     1      48.386   9.889  11.792  0.00  0.00    +0.000 A 
ATOM     17  C   UNL     1      49.692  10.113  11.356  0.00  0.00    +0.000 A 
ATOM     18  C   UNL     1      50.585   9.048  11.255  0.00  0.00    +0.000 A 
ATOM     19  C   UNL     1      50.168   7.759  11.584  0.00  0.00    +0.000 A 
ATOM     20  C   UNL     1      48.861   7.533  12.024  0.00  0.00    +0.000 A 
ENDBRANCH  14  15
ENDBRANCH  12  14
ENDBRANCH   4  12
TORSDOF 4
ENDMDL
MODEL 8
REMARK VINA RESULT:    -5.138      5.865      8.341
REMARK INTER + INTRA:          -6.857
REMARK INTER:                  -6.456
REMARK INTRA:                  -0.401
REMARK UNBOUND:                -0.517
REMARK  Name = 
REMARK  4 active torsions:
REMARK  status: ('A' for Active; 'I' for Inactive)
REMARK    1  A    between atoms: C_2  and  C_4
REMARK    2  A    between atoms: C_7  and  N_8
REMARK    3  A    between atoms: N_8  and  C_9
REMARK    4  A    between atoms: C_9  and  C_10
REMARK                            x       y       z     vdW  Elec       q    Type
REMARK                         _______ _______ _______ _____ _____    ______ ____
ROOT
ATOM      1  C   UNL     1      48.566   4.818  18.194  0.00  0.00    +0.000 A 
ATOM      2  C   UNL     1      47.574   3.963  17.740  0.00  0.00    +0.000 A 
ATOM      3  C   UNL     1      47.116   4.125  16.435  0.00  0.00    +0.000 A 
ATOM      4  C   UNL     1      47.625   5.142  15.622  0.00  0.00    +0.000 A 
ATOM      5  C   UNL     1      48.634   5.929  16.177  0.00  0.00    +0.000 A 
ATOM      6  N   UNL     1      49.119   5.806  17.437  0.00  0.00    +0.000 NA
ENDROOT
BRANCH   1   8
ATOM      7  N   UNL     1      48.557   3.643  20.312  0.00  0.00    +0.000 N 
ATOM      8  C   UNL     1      49.089   4.677  19.590  0.00  0.00    +0.000 C 
ATOM      9  O   UNL     1      49.934   5.426  20.062  0.00  0.00    +0.000 OA
ATOM     10  H   UNL     1      48.859   3.489  21.263  0.00  0.00    +0.000 HD
ATOM     11  H   UNL     1      47.868   3.037  19.882  0.00  0.00    +0.000 HD
ENDBRANCH   1   8
BRANCH   4  12
ATOM     12  N   UNL     1      47.135   5.256  14.320  0.00  0.00    +0.000 N 
ATOM     13  H   UNL     1      46.382   5.943  14.273  0.00  0.00    +0.000 HD
BRANCH  12  14
ATOM     14  C   UNL     1      46.791   4.040  13.592  0.00  0.00    +0.000 C 
BRANCH  14  15
ATOM     15  C   UNL     1      45.464   4.215  12.891  0.00  0.00    +0.000 A 
ATOM     16  C   UNL     1      45.006   3.235  11.995  0.00  0.00    +0.000 A 
ATOM     17  C   UNL     1      43.751   3.347  11.396  0.00  0.00    +0.000 A 
ATOM     18  C   UNL     1      42.936   4.438  11.688  0.00  0.00    +0.000 A 
ATOM     19  C   UNL     1      43.380   5.421  12.572  0.00  0.00    +0.000 A 
ATOM     20  C   UNL     1      44.636   5.309  13.174  0.00  0.00    +0.000 A 
ENDBRANCH  14  15
ENDBRANCH  12  14
ENDBRANCH   4  12
TORSDOF 4
ENDMDL
MODEL 9
REMARK VINA RESULT:    -5.110      5.612      7.564
REMARK INTER + INTRA:          -6.822
REMARK INTER:                  -6.467
REMARK INTRA:                  -0.355
REMARK UNBOUND:                -0.517
REMARK  Name = 
REMARK  4 active torsions:
REMARK  status: ('A' for Active; 'I' for Inactive)
REMARK    1  A    between atoms: C_2  and  C_4
REMARK    2  A    between atoms: C_7  and  N_8
REMARK    3  A    between atoms: N_8  and  C_9
REMARK    4  A    between atoms: C_9  and  C_10
REMARK                            x       y       z     vdW  Elec       q    Type
REMARK                         _______ _______ _______ _____ _____    ______ ____
ROOT
ATOM      1  C   UNL     1      50.123   2.652  17.136  0.00  0.00    +0.000 A 
ATOM      2  C   UNL     1      49.804   3.965  17.447  0.00  0.00    +0.000 A 
ATOM      3  C   UNL     1      48.664   4.519  16.868  0.00  0.00    +0.000 A 
ATOM      4  C   UNL     1      47.886   3.776  15.975  0.00  0.00    +0.000 A 
ATOM      5  C   UNL     1      48.291   2.460  15.752  0.00  0.00    +0.000 A 
ATOM      6  N   UNL     1      49.385   1.873  16.297  0.00  0.00    +0.000 NA
ENDROOT
BRANCH   1   8
ATOM      7  N   UNL     1      51.317   0.651  17.794  0.00  0.00    +0.000 N 
ATOM      8  C   UNL     1      51.338   2.018  17.739  0.00  0.00    +0.000 C 
ATOM      9  O   UNL     1      52.288   2.667  18.155  0.00  0.00    +0.000 OA
ATOM     10  H   UNL     1      52.101   0.154  18.193  0.00  0.00    +0.000 HD
ATOM     11  H   UNL     1      50.516   0.149  17.429  0.00  0.00    +0.000 HD
ENDBRANCH   1   8
BRANCH   4  12
ATOM     12  N   UNL     1      46.751   4.377  15.428  0.00  0.00    +0.000 N 
ATOM     13  H   UNL     1      46.092   3.673  15.096  0.00  0.00    +0.000 HD
BRANCH  12  14
ATOM     14  C   UNL     1      46.927   5.445  14.451  0.00  0.00    +0.000 C 
BRANCH  14  15
ATOM     15  C   UNL     1      46.288   5.055  13.139  0.00  0.00    +0.000 A 
ATOM     16  C   UNL     1      45.684   3.794  12.997  0.00  0.00    +0.000 A 
ATOM     17  C   UNL     1      45.025   3.447  11.817  0.00  0.00    +0.000 A 
ATOM     18  C   UNL     1      44.960   4.357  10.764  0.00  0.00    +0.000 A 
ATOM     19  C   UNL     1      45.560   5.610  10.889  0.00  0.00    +0.000 A 
ATOM     20  C   UNL     1      46.217   5.959  12.072  0.00  0.00    +0.000 A 
ENDBRANCH  14  15
ENDBRANCH  12  14
ENDBRANCH   4  12
TORSDOF 4
ENDMDL
