MODEL 1
REMARK VINA RESULT:    -6.994      0.000      0.000
REMARK INTER + INTRA:          -8.721
REMARK INTER:                  -8.220
REMARK INTRA:                  -0.501
REMARK UNBOUND:                -0.501
REMARK  Name = 
REMARK  4 active torsions:
REMARK  status: ('A' for Active; 'I' for Inactive)
REMARK    1  A    between atoms: C_1  and  C_2
REMARK    2  A    between atoms: C_4  and  C_5
REMARK    3  A    between atoms: N_12  and  C_13
REMARK    4  A    between atoms: C_13  and  C_14
REMARK                            x       y       z     vdW  Elec       q    Type
REMARK                         _______ _______ _______ _____ _____    ______ ____
ROOT
ATOM      1  C   UNL     1      46.400   6.265   9.662  0.00  0.00    +0.000 C 
ATOM      2  C   UNL     1      46.114   5.655  11.008  0.00  0.00    +0.000 A 
ATOM      3  C   UNL     1      46.908   6.114  12.089  0.00  0.00    +0.000 A 
ATOM      4  C   UNL     1      46.750   5.667  13.402  0.00  0.00    +0.000 A 
ATOM      5  C   UNL     1      45.764   4.719  13.674  0.00  0.00    +0.000 A 
ATOM      6  C   UNL     1      44.964   4.210  12.625  0.00  0.00    +0.000 A 
ATOM      7  C   UNL     1      43.916   3.252  12.626  0.00  0.00    +0.000 A 
ATOM      8  C   UNL     1      43.498   3.095  11.331  0.00  0.00    +0.000 A 
ATOM      9  N   UNL     1      44.255   3.921  10.526  0.00  0.00    +0.000 N 
ATOM     10  C   UNL     1      45.151   4.655  11.302  0.00  0.00    +0.000 A 
ENDROOT
BRANCH   4  11
ATOM     11  C   UNL     1      47.659   6.239  14.441  0.00  0.00    +0.000 C 
ATOM     12  N   UNL     1      47.801   7.596  14.520  0.00  0.00    +0.000 N 
ATOM     13  O   UNL     1      48.278   5.522  15.219  0.00  0.00    +0.000 OA
ATOM     14  H   UNL     1      47.351   8.267  13.919  0.00  0.00    +0.000 HD
ATOM     15  H   UNL     1      48.428   7.948  15.231  0.00  0.00    +0.000 HD
ENDBRANCH   4  11
BRANCH   9  16
ATOM     16  C   UNL     1      44.150   3.849   9.067  0.00  0.00    +0.000 C 
BRANCH  16  17
ATOM     17  C   UNL     1      45.238   3.077   8.382  0.00  0.00    +0.000 A 
ATOM     18  C   UNL     1      46.048   3.545   7.365  0.00  0.00    +0.000 A 
ATOM     19  N   UNL     1      46.973   2.802   6.730  0.00  0.00    +0.000 NA
ATOM     20  C   UNL     1      47.090   1.533   7.142  0.00  0.00    +0.000 A 
ATOM     21  N   UNL     1      46.393   0.965   8.134  0.00  0.00    +0.000 NA
ATOM     22  C   UNL     1      45.483   1.760   8.733  0.00  0.00    +0.000 A 
ENDBRANCH  16  17
ENDBRANCH   9  16
TORSDOF 3
ENDMDL
MODEL 2
REMARK VINA RESULT:    -6.749      1.747      2.412
REMARK INTER + INTRA:          -8.434
REMARK INTER:                  -7.827
REMARK INTRA:                  -0.607
REMARK UNBOUND:                -0.501
REMARK  Name = 
REMARK  4 active torsions:
REMARK  status: ('A' for Active; 'I' for Inactive)
REMARK    1  A    between atoms: C_1  and  C_2
REMARK    2  A    between atoms: C_4  and  C_5
REMARK    3  A    between atoms: N_12  and  C_13
REMARK    4  A    between atoms: C_13  and  C_14
REMARK                            x       y       z     vdW  Elec       q    Type
REMARK                         _______ _______ _______ _____ _____    ______ ____
ROOT
ATOM      1  C   UNL     1      44.420   7.274  11.234  0.00  0.00    +0.000 C 
ATOM      2  C   UNL     1      45.491   6.799  12.179  0.00  0.00    +0.000 A 
ATOM      3  C   UNL     1      46.292   7.803  12.779  0.00  0.00    +0.000 A 
ATOM      4  C   UNL     1      47.308   7.529  13.696  0.00  0.00    +0.000 A 
ATOM      5  C   UNL     1      47.555   6.202  14.046  0.00  0.00    +0.000 A 
ATOM      6  C   UNL     1      46.801   5.162  13.454  0.00  0.00    +0.000 A 
ATOM      7  C   UNL     1      46.853   3.754  13.625  0.00  0.00    +0.000 A 
ATOM      8  C   UNL     1      45.924   3.201  12.784  0.00  0.00    +0.000 A 
ATOM      9  N   UNL     1      45.299   4.220  12.096  0.00  0.00    +0.000 N 
ATOM     10  C   UNL     1      45.794   5.454  12.514  0.00  0.00    +0.000 A 
ENDROOT
BRANCH   4  11
ATOM     11  C   UNL     1      48.072   8.688  14.247  0.00  0.00    +0.000 C 
ATOM     12  N   UNL     1      47.751   9.162  15.488  0.00  0.00    +0.000 N 
ATOM     13  O   UNL     1      48.976   9.222  13.614  0.00  0.00    +0.000 OA
ATOM     14  H   UNL     1      47.017   8.805  16.079  0.00  0.00    +0.000 HD
ATOM     15  H   UNL     1      48.285   9.951  15.828  0.00  0.00    +0.000 HD
ENDBRANCH   4  11
BRANCH   9  16
ATOM     16  C   UNL     1      44.371   3.928  11.002  0.00  0.00    +0.000 C 
BRANCH  16  17
ATOM     17  C   UNL     1      45.011   3.546   9.700  0.00  0.00    +0.000 A 
ATOM     18  C   UNL     1      45.266   2.258   9.268  0.00  0.00    +0.000 A 
ATOM     19  N   UNL     1      45.900   1.956   8.121  0.00  0.00    +0.000 NA
ATOM     20  C   UNL     1      46.292   2.996   7.374  0.00  0.00    +0.000 A 
ATOM     21  N   UNL     1      46.081   4.287   7.661  0.00  0.00    +0.000 NA
ATOM     22  C   UNL     1      45.439   4.527   8.822  0.00  0.00    +0.000 A 
ENDBRANCH  16  17
ENDBRANCH   9  16
TORSDOF 3
ENDMDL
MODEL 3
REMARK VINA RESULT:    -6.187      1.737      3.043
REMARK INTER + INTRA:          -7.773
REMARK INTER:                  -7.320
REMARK INTRA:                  -0.453
REMARK UNBOUND:                -0.501
REMARK  Name = 
REMARK  4 active torsions:
REMARK  status: ('A' for Active; 'I' for Inactive)
REMARK    1  A    between atoms: C_1  and  C_2
REMARK    2  A    between atoms: C_4  and  C_5
REMARK    3  A    between atoms: N_12  and  C_13
REMARK    4  A    between atoms: C_13  and  C_14
REMARK                            x       y       z     vdW  Elec       q    Type
REMARK                         _______ _______ _______ _____ _____    ______ ____
ROOT
ATOM      1  C   UNL     1      46.237   3.641  13.040  0.00  0.00    +0.000 C 
ATOM      2  C   UNL     1      46.487   5.116  13.201  0.00  0.00    +0.000 A 
ATOM      3  C   UNL     1      47.483   5.489  14.137  0.00  0.00    +0.000 A 
ATOM      4  C   UNL     1      47.850   6.813  14.382  0.00  0.00    +0.000 A 
ATOM      5  C   UNL     1      47.209   7.829  13.674  0.00  0.00    +0.000 A 
ATOM      6  C   UNL     1      46.189   7.510  12.748  0.00  0.00    +0.000 A 
ATOM      7  C   UNL     1      45.387   8.336  11.917  0.00  0.00    +0.000 A 
ATOM      8  C   UNL     1      44.524   7.521  11.234  0.00  0.00    +0.000 A 
ATOM      9  N   UNL     1      44.762   6.217  11.617  0.00  0.00    +0.000 N 
ATOM     10  C   UNL     1      45.815   6.171  12.528  0.00  0.00    +0.000 A 
ENDROOT
BRANCH   4  11
ATOM     11  C   UNL     1      48.918   7.057  15.399  0.00  0.00    +0.000 C 
ATOM     12  N   UNL     1      48.588   7.692  16.564  0.00  0.00    +0.000 N 
ATOM     13  O   UNL     1      50.077   6.704  15.212  0.00  0.00    +0.000 OA
ATOM     14  H   UNL     1      47.672   8.034  16.804  0.00  0.00    +0.000 HD
ATOM     15  H   UNL     1      49.336   7.844  17.227  0.00  0.00    +0.000 HD
ENDBRANCH   4  11
BRANCH   9  16
ATOM     16  C   UNL     1      43.880   5.133  11.178  0.00  0.00    +0.000 C 
BRANCH  16  17
ATOM     17  C   UNL     1      44.433   4.254  10.095  0.00  0.00    +0.000 A 
ATOM     18  C   UNL     1      44.262   2.886   9.995  0.00  0.00    +0.000 A 
ATOM     19  N   UNL     1      44.826   2.121   9.044  0.00  0.00    +0.000 NA
ATOM     20  C   UNL     1      45.593   2.761   8.151  0.00  0.00    +0.000 A 
ATOM     21  N   UNL     1      45.815   4.081   8.117  0.00  0.00    +0.000 NA
ATOM     22  C   UNL     1      45.221   4.796   9.095  0.00  0.00    +0.000 A 
ENDBRANCH  16  17
ENDBRANCH   9  16
TORSDOF 3
ENDMDL
MODEL 4
REMARK VINA RESULT:    -6.046      2.592      5.963
REMARK INTER + INTRA:          -7.607
REMARK INTER:                  -7.321
REMARK INTRA:                  -0.287
REMARK UNBOUND:                -0.501
REMARK  Name = 
REMARK  4 active torsions:
REMARK  status: ('A' for Active; 'I' for Inactive)
REMARK    1  A    between atoms: C_1  and  C_2
REMARK    2  A    between atoms: C_4  and  C_5
REMARK    3  A    between atoms: N_12  and  C_13
REMARK    4  A    between atoms: C_13  and  C_14
REMARK                            x       y       z     vdW  Elec       q    Type
REMARK                         _______ _______ _______ _____ _____    ______ ____
ROOT
ATOM      1  C   UNL     1      46.200   6.186   9.404  0.00  0.00    +0.000 C 
ATOM      2  C   UNL     1      45.799   4.748   9.215  0.00  0.00    +0.000 A 
ATOM      3  C   UNL     1      46.353   4.081   8.093  0.00  0.00    +0.000 A 
ATOM      4  C   UNL     1      46.100   2.741   7.795  0.00  0.00    +0.000 A 
ATOM      5  C   UNL     1      45.262   2.012   8.638  0.00  0.00    +0.000 A 
ATOM      6  C   UNL     1      44.663   2.640   9.755  0.00  0.00    +0.000 A 
ATOM      7  C   UNL     1      43.782   2.140  10.749  0.00  0.00    +0.000 A 
ATOM      8  C   UNL     1      43.474   3.178  11.588  0.00  0.00    +0.000 A 
ATOM      9  N   UNL     1      44.133   4.306  11.145  0.00  0.00    +0.000 N 
ATOM     10  C   UNL     1      44.910   3.999  10.030  0.00  0.00    +0.000 A 
ENDROOT
BRANCH   4  11
ATOM     11  C   UNL     1      46.753   2.170   6.578  0.00  0.00    +0.000 C 
ATOM     12  N   UNL     1      46.970   2.983   5.501  0.00  0.00    +0.000 N 
ATOM     13  O   UNL     1      47.095   0.993   6.524  0.00  0.00    +0.000 OA
ATOM     14  H   UNL     1      46.712   3.954   5.441  0.00  0.00    +0.000 HD
ATOM     15  H   UNL     1      47.409   2.561   4.693  0.00  0.00    +0.000 HD
ENDBRANCH   4  11
BRANCH   9  16
ATOM     16  C   UNL     1      43.868   5.614  11.746  0.00  0.00    +0.000 C 
BRANCH  16  17
ATOM     17  C   UNL     1      45.027   6.238  12.464  0.00  0.00    +0.000 A 
ATOM     18  C   UNL     1      45.282   7.593  12.570  0.00  0.00    +0.000 A 
ATOM     19  N   UNL     1      46.368   8.114  13.169  0.00  0.00    +0.000 NA
ATOM     20  C   UNL     1      47.233   7.233  13.689  0.00  0.00    +0.000 A 
ATOM     21  N   UNL     1      47.090   5.902  13.684  0.00  0.00    +0.000 NA
ATOM     22  C   UNL     1      45.981   5.439  13.070  0.00  0.00    +0.000 A 
ENDBRANCH  16  17
ENDBRANCH   9  16
TORSDOF 3
ENDMDL
MODEL 5
REMARK VINA RESULT:    -5.952      3.014      6.305
REMARK INTER + INTRA:          -7.497
REMARK INTER:                  -6.879
REMARK INTRA:                  -0.618
REMARK UNBOUND:                -0.501
REMARK  Name = 
REMARK  4 active torsions:
REMARK  status: ('A' for Active; 'I' for Inactive)
REMARK    1  A    between atoms: C_1  and  C_2
REMARK    2  A    between atoms: C_4  and  C_5
REMARK    3  A    between atoms: N_12  and  C_13
REMARK    4  A    between atoms: C_13  and  C_14
REMARK                            x       y       z     vdW  Elec       q    Type
REMARK                         _______ _______ _______ _____ _____    ______ ____
ROOT
ATOM      1  C   UNL     1      47.150   4.900  14.190  0.00  0.00    +0.000 C 
ATOM      2  C   UNL     1      46.127   5.177  13.120  0.00  0.00    +0.000 A 
ATOM      3  C   UNL     1      45.513   4.044  12.528  0.00  0.00    +0.000 A 
ATOM      4  C   UNL     1      44.529   4.133  11.542  0.00  0.00    +0.000 A 
ATOM      5  C   UNL     1      44.122   5.395  11.112  0.00  0.00    +0.000 A 
ATOM      6  C   UNL     1      44.724   6.555  11.652  0.00  0.00    +0.000 A 
ATOM      7  C   UNL     1      44.506   7.933  11.389  0.00  0.00    +0.000 A 
ATOM      8  C   UNL     1      45.382   8.645  12.164  0.00  0.00    +0.000 A 
ATOM      9  N   UNL     1      46.139   7.754  12.896  0.00  0.00    +0.000 N 
ATOM     10  C   UNL     1      45.732   6.449  12.630  0.00  0.00    +0.000 A 
ENDROOT
BRANCH   4  11
ATOM     11  C   UNL     1      43.970   2.854  11.008  0.00  0.00    +0.000 C 
ATOM     12  N   UNL     1      44.531   2.304   9.889  0.00  0.00    +0.000 N 
ATOM     13  O   UNL     1      43.025   2.290  11.547  0.00  0.00    +0.000 OA
ATOM     14  H   UNL     1      45.296   2.697   9.366  0.00  0.00    +0.000 HD
ATOM     15  H   UNL     1      44.124   1.441   9.553  0.00  0.00    +0.000 HD
ENDBRANCH   4  11
BRANCH   9  16
ATOM     16  C   UNL     1      47.277   8.215  13.695  0.00  0.00    +0.000 C 
BRANCH  16  17
ATOM     17  C   UNL     1      48.517   8.541  12.917  0.00  0.00    +0.000 A 
ATOM     18  C   UNL     1      49.004   9.809  12.660  0.00  0.00    +0.000 A 
ATOM     19  N   UNL     1      50.087  10.065  11.905  0.00  0.00    +0.000 NA
ATOM     20  C   UNL     1      50.710   8.998  11.389  0.00  0.00    +0.000 A 
ATOM     21  N   UNL     1      50.362   7.720  11.585  0.00  0.00    +0.000 NA
ATOM     22  C   UNL     1      49.270   7.526  12.352  0.00  0.00    +0.000 A 
ENDBRANCH  16  17
ENDBRANCH   9  16
TORSDOF 3
ENDMDL
MODEL 6
REMARK VINA RESULT:    -5.570      3.281      7.765
REMARK INTER + INTRA:          -7.048
REMARK INTER:                  -6.559
REMARK INTRA:                  -0.489
REMARK UNBOUND:                -0.501
REMARK  Name = 
REMARK  4 active torsions:
REMARK  status: ('A' for Active; 'I' for Inactive)
REMARK    1  A    between atoms: C_1  and  C_2
REMARK    2  A    between atoms: C_4  and  C_5
REMARK    3  A    between atoms: N_12  and  C_13
REMARK    4  A    between atoms: C_13  and  C_14
REMARK                            x       y       z     vdW  Elec       q    Type
REMARK                         _______ _______ _______ _____ _____    ______ ____
ROOT
ATOM      1  C   UNL     1      47.210   4.386  15.527  0.00  0.00    +0.000 C 
ATOM      2  C   UNL     1      46.800   4.852  14.155  0.00  0.00    +0.000 A 
ATOM      3  C   UNL     1      45.844   4.053  13.478  0.00  0.00    +0.000 A 
ATOM      4  C   UNL     1      45.344   4.363  12.213  0.00  0.00    +0.000 A 
ATOM      5  C   UNL     1      45.802   5.515  11.573  0.00  0.00    +0.000 A 
ATOM      6  C   UNL     1      46.776   6.329  12.196  0.00  0.00    +0.000 A 
ATOM      7  C   UNL     1      47.405   7.528  11.769  0.00  0.00    +0.000 A 
ATOM      8  C   UNL     1      48.302   7.891  12.739  0.00  0.00    +0.000 A 
ATOM      9  N   UNL     1      48.251   6.956  13.751  0.00  0.00    +0.000 N 
ATOM     10  C   UNL     1      47.287   5.992  13.464  0.00  0.00    +0.000 A 
ENDROOT
BRANCH   4  11
ATOM     11  C   UNL     1      44.340   3.429  11.620  0.00  0.00    +0.000 C 
ATOM     12  N   UNL     1      43.798   2.453  12.408  0.00  0.00    +0.000 N 
ATOM     13  O   UNL     1      43.993   3.517  10.447  0.00  0.00    +0.000 OA
ATOM     14  H   UNL     1      44.027   2.288  13.375  0.00  0.00    +0.000 HD
ATOM     15  H   UNL     1      43.125   1.836  11.973  0.00  0.00    +0.000 HD
ENDBRANCH   4  11
BRANCH   9  16
ATOM     16  C   UNL     1      49.217   6.988  14.852  0.00  0.00    +0.000 C 
BRANCH  16  17
ATOM     17  C   UNL     1      48.765   7.717  16.082  0.00  0.00    +0.000 A 
ATOM     18  C   UNL     1      48.321   9.025  16.132  0.00  0.00    +0.000 A 
ATOM     19  N   UNL     1      47.984   9.667  17.265  0.00  0.00    +0.000 NA
ATOM     20  C   UNL     1      48.094   8.959  18.397  0.00  0.00    +0.000 A 
ATOM     21  N   UNL     1      48.480   7.680  18.484  0.00  0.00    +0.000 NA
ATOM     22  C   UNL     1      48.803   7.089  17.315  0.00  0.00    +0.000 A 
ENDBRANCH  16  17
ENDBRANCH   9  16
TORSDOF 3
ENDMDL
MODEL 7
REMARK VINA RESULT:    -5.245      2.849      6.294
REMARK INTER + INTRA:          -6.666
REMARK INTER:                  -6.146
REMARK INTRA:                  -0.521
REMARK UNBOUND:                -0.501
REMARK  Name = 
REMARK  4 active torsions:
REMARK  status: ('A' for Active; 'I' for Inactive)
REMARK    1  A    between atoms: C_1  and  C_2
REMARK    2  A    between atoms: C_4  and  C_5
REMARK    3  A    between atoms: N_12  and  C_13
REMARK    4  A    between atoms: C_13  and  C_14
REMARK                            x       y       z     vdW  Elec       q    Type
REMARK                         _______ _______ _______ _____ _____    ______ ____
ROOT
ATOM      1  C   UNL     1      45.868   7.313  11.140  0.00  0.00    +0.000 C 
ATOM      2  C   UNL     1      45.843   5.983  11.846  0.00  0.00    +0.000 A 
ATOM      3  C   UNL     1      45.017   4.983  11.275  0.00  0.00    +0.000 A 
ATOM      4  C   UNL     1      44.905   3.692  11.794  0.00  0.00    +0.000 A 
ATOM      5  C   UNL     1      45.639   3.360  12.932  0.00  0.00    +0.000 A 
ATOM      6  C   UNL     1      46.456   4.332  13.555  0.00  0.00    +0.000 A 
ATOM      7  C   UNL     1      47.284   4.261  14.705  0.00  0.00    +0.000 A 
ATOM      8  C   UNL     1      47.834   5.501  14.896  0.00  0.00    +0.000 A 
ATOM      9  N   UNL     1      47.370   6.340  13.903  0.00  0.00    +0.000 N 
ATOM     10  C   UNL     1      46.541   5.637  13.031  0.00  0.00    +0.000 A 
ENDROOT
BRANCH   4  11
ATOM     11  C   UNL     1      43.995   2.740  11.087  0.00  0.00    +0.000 C 
ATOM     12  N   UNL     1      44.423   2.150   9.931  0.00  0.00    +0.000 N 
ATOM     13  O   UNL     1      42.877   2.478  11.519  0.00  0.00    +0.000 OA
ATOM     14  H   UNL     1      45.313   2.311   9.488  0.00  0.00    +0.000 HD
ATOM     15  H   UNL     1      43.779   1.516   9.478  0.00  0.00    +0.000 HD
ENDBRANCH   4  11
BRANCH   9  16
ATOM     16  C   UNL     1      47.655   7.776  13.940  0.00  0.00    +0.000 C 
BRANCH  16  17
ATOM     17  C   UNL     1      48.800   8.226  13.083  0.00  0.00    +0.000 A 
ATOM     18  C   UNL     1      49.611   7.409  12.318  0.00  0.00    +0.000 A 
ATOM     19  N   UNL     1      50.670   7.842  11.610  0.00  0.00    +0.000 NA
ATOM     20  C   UNL     1      50.920   9.156  11.671  0.00  0.00    +0.000 A 
ATOM     21  N   UNL     1      50.197  10.059  12.346  0.00  0.00    +0.000 NA
ATOM     22  C   UNL     1      49.148   9.565  13.035  0.00  0.00    +0.000 A 
ENDBRANCH  16  17
ENDBRANCH   9  16
TORSDOF 3
ENDMDL
MODEL 8
REMARK VINA RESULT:    -5.217      2.958      7.503
REMARK INTER + INTRA:          -6.633
REMARK INTER:                  -6.407
REMARK INTRA:                  -0.226
REMARK UNBOUND:                -0.501
REMARK  Name = 
REMARK  4 active torsions:
REMARK  status: ('A' for Active; 'I' for Inactive)
REMARK    1  A    between atoms: C_1  and  C_2
REMARK    2  A    between atoms: C_4  and  C_5
REMARK    3  A    between atoms: N_12  and  C_13
REMARK    4  A    between atoms: C_13  and  C_14
REMARK                            x       y       z     vdW  Elec       q    Type
REMARK                         _______ _______ _______ _____ _____    ______ ____
ROOT
ATOM      1  C   UNL     1      47.460   7.670  11.739  0.00  0.00    +0.000 C 
ATOM      2  C   UNL     1      46.763   6.426  12.222  0.00  0.00    +0.000 A 
ATOM      3  C   UNL     1      45.739   5.913  11.386  0.00  0.00    +0.000 A 
ATOM      4  C   UNL     1      45.017   4.755  11.679  0.00  0.00    +0.000 A 
ATOM      5  C   UNL     1      45.310   4.060  12.852  0.00  0.00    +0.000 A 
ATOM      6  C   UNL     1      46.304   4.547  13.732  0.00  0.00    +0.000 A 
ATOM      7  C   UNL     1      46.784   4.047  14.971  0.00  0.00    +0.000 A 
ATOM      8  C   UNL     1      47.733   4.921  15.430  0.00  0.00    +0.000 A 
ATOM      9  N   UNL     1      47.855   5.949  14.518  0.00  0.00    +0.000 N 
ATOM     10  C   UNL     1      47.009   5.729  13.433  0.00  0.00    +0.000 A 
ENDROOT
BRANCH   4  11
ATOM     11  C   UNL     1      43.965   4.332  10.706  0.00  0.00    +0.000 C 
ATOM     12  N   UNL     1      44.097   4.689   9.393  0.00  0.00    +0.000 N 
ATOM     13  O   UNL     1      42.990   3.676  11.056  0.00  0.00    +0.000 OA
ATOM     14  H   UNL     1      44.849   5.238   9.009  0.00  0.00    +0.000 HD
ATOM     15  H   UNL     1      43.364   4.390   8.763  0.00  0.00    +0.000 HD
ENDBRANCH   4  11
BRANCH   9  16
ATOM     16  C   UNL     1      48.677   7.123  14.816  0.00  0.00    +0.000 C 
BRANCH  16  17
ATOM     17  C   UNL     1      49.278   7.155  16.191  0.00  0.00    +0.000 A 
ATOM     18  C   UNL     1      48.687   7.685  17.322  0.00  0.00    +0.000 A 
ATOM     19  N   UNL     1      49.283   7.752  18.526  0.00  0.00    +0.000 NA
ATOM     20  C   UNL     1      50.526   7.259  18.595  0.00  0.00    +0.000 A 
ATOM     21  N   UNL     1      51.199   6.691  17.586  0.00  0.00    +0.000 NA
ATOM     22  C   UNL     1      50.550   6.651  16.405  0.00  0.00    +0.000 A 
ENDBRANCH  16  17
ENDBRANCH   9  16
TORSDOF 3
ENDMDL
MODEL 9
REMARK VINA RESULT:    -5.009      2.982      5.361
REMARK INTER + INTRA:          -6.389
REMARK INTER:                  -5.927
REMARK INTRA:                  -0.462
REMARK UNBOUND:                -0.501
REMARK  Name = 
REMARK  4 active torsions:
REMARK  status: ('A' for Active; 'I' for Inactive)
REMARK    1  A    between atoms: C_1  and  C_2
REMARK    2  A    between atoms: C_4  and  C_5
REMARK    3  A    between atoms: N_12  and  C_13
REMARK    4  A    between atoms: C_13  and  C_14
REMARK                            x       y       z     vdW  Elec       q    Type
REMARK                         _______ _______ _______ _____ _____    ______ ____
ROOT
ATOM      1  C   UNL     1      47.428   3.563  16.437  0.00  0.00    +0.000 C 
ATOM      2  C   UNL     1      47.927   4.942  16.095  0.00  0.00    +0.000 A 
ATOM      3  C   UNL     1      48.528   5.674  17.150  0.00  0.00    +0.000 A 
ATOM      4  C   UNL     1      49.063   6.953  16.988  0.00  0.00    +0.000 A 
ATOM      5  C   UNL     1      49.008   7.549  15.729  0.00  0.00    +0.000 A 
ATOM      6  C   UNL     1      48.394   6.871  14.651  0.00  0.00    +0.000 A 
ATOM      7  C   UNL     1      48.201   7.247  13.296  0.00  0.00    +0.000 A 
ATOM      8  C   UNL     1      47.517   6.233  12.680  0.00  0.00    +0.000 A 
ATOM      9  N   UNL     1      47.276   5.242  13.609  0.00  0.00    +0.000 N 
ATOM     10  C   UNL     1      47.840   5.589  14.835  0.00  0.00    +0.000 A 
ENDROOT
BRANCH   4  11
ATOM     11  C   UNL     1      49.665   7.606  18.190  0.00  0.00    +0.000 C 
ATOM     12  N   UNL     1      49.372   7.109  19.429  0.00  0.00    +0.000 N 
ATOM     13  O   UNL     1      50.411   8.574  18.090  0.00  0.00    +0.000 OA
ATOM     14  H   UNL     1      48.761   6.332  19.617  0.00  0.00    +0.000 HD
ATOM     15  H   UNL     1      49.794   7.579  20.220  0.00  0.00    +0.000 HD
ENDBRANCH   4  11
BRANCH   9  16
ATOM     16  C   UNL     1      46.416   4.102  13.285  0.00  0.00    +0.000 C 
BRANCH  16  17
ATOM     17  C   UNL     1      45.120   4.445  12.612  0.00  0.00    +0.000 A 
ATOM     18  C   UNL     1      44.047   5.090  13.200  0.00  0.00    +0.000 A 
ATOM     19  N   UNL     1      42.875   5.324  12.583  0.00  0.00    +0.000 NA
ATOM     20  C   UNL     1      42.781   4.897  11.317  0.00  0.00    +0.000 A 
ATOM     21  N   UNL     1      43.752   4.290  10.623  0.00  0.00    +0.000 NA
ATOM     22  C   UNL     1      44.904   4.083  11.294  0.00  0.00    +0.000 A 
ENDBRANCH  16  17
ENDBRANCH   9  16
TORSDOF 3
ENDMDL
