MODEL 1
REMARK VINA RESULT:    -8.326      0.000      0.000
REMARK INTER + INTRA:         -12.145
REMARK INTER:                 -11.246
REMARK INTRA:                  -0.899
REMARK UNBOUND:                -0.899
REMARK  Name = 
REMARK  7 active torsions:
REMARK  status: ('A' for Active; 'I' for Inactive)
REMARK    1  A    between atoms: C_1  and  N_2
REMARK    2  A    between atoms: C_8  and  C_9
REMARK    3  A    between atoms: N_11  and  C_12
REMARK    4  A    between atoms: C_12  and  C_13
REMARK    5  A    between atoms: C_16  and  O_17
REMARK    6  A    between atoms: O_17  and  C_18
REMARK    7  A    between atoms: C_18  and  C_19
REMARK                            x       y       z     vdW  Elec       q    Type
REMARK                         _______ _______ _______ _____ _____    ______ ____
ROOT
ATOM      1  C   UNL     1      48.819   6.307  15.620  0.00  0.00    +0.000 C 
ATOM      2  O   UNL     1      49.914   6.619  15.161  0.00  0.00    +0.000 OA
ATOM      3  N   UNL     1      47.650   6.492  14.927  0.00  0.00    +0.000 N 
ATOM      4  H   UNL     1      46.800   6.068  15.283  0.00  0.00    +0.000 HD
ENDROOT
BRANCH   1  12
ATOM      5  C   UNL     1      47.163   9.447  20.093  0.00  0.00    +0.000 C 
ATOM      6  N   UNL     1      47.559   8.093  19.775  0.00  0.00    +0.000 N 
ATOM      7  C   UNL     1      47.617   7.124  20.762  0.00  0.00    +0.000 A 
ATOM      8  N   UNL     1      47.970   5.894  20.580  0.00  0.00    +0.000 NA
ATOM      9  C   UNL     1      48.291   5.580  19.298  0.00  0.00    +0.000 A 
ATOM     10  S   UNL     1      48.741   3.996  18.871  0.00  0.00    +0.000 S 
ATOM     11  C   UNL     1      48.924   4.430  17.232  0.00  0.00    +0.000 A 
ATOM     12  C   UNL     1      48.680   5.774  16.983  0.00  0.00    +0.000 A 
ATOM     13  C   UNL     1      48.300   6.432  18.213  0.00  0.00    +0.000 A 
ATOM     14  C   UNL     1      47.924   7.814  18.464  0.00  0.00    +0.000 A 
ATOM     15  O   UNL     1      47.965   8.678  17.591  0.00  0.00    +0.000 OA
ENDBRANCH   1  12
BRANCH   3  16
ATOM     16  C   UNL     1      47.605   6.980  13.572  0.00  0.00    +0.000 C 
BRANCH  16  17
ATOM     17  C   UNL     1      46.760   6.118  12.681  0.00  0.00    +0.000 A 
ATOM     18  C   UNL     1      46.424   6.519  11.386  0.00  0.00    +0.000 A 
ATOM     19  C   UNL     1      45.605   5.708  10.601  0.00  0.00    +0.000 A 
ATOM     20  C   UNL     1      45.180   4.500  11.125  0.00  0.00    +0.000 A 
ATOM     21  N   UNL     1      45.498   4.069  12.364  0.00  0.00    +0.000 NA
ATOM     22  C   UNL     1      46.278   4.886  13.110  0.00  0.00    +0.000 A 
BRANCH  20  23
ATOM     23  O   UNL     1      44.355   3.732  10.329  0.00  0.00    +0.000 OA
BRANCH  23  24
ATOM     24  C   UNL     1      44.474   4.073   8.946  0.00  0.00    +0.000 C 
BRANCH  24  25
ATOM     25  C   UNL     1      45.478   3.154   8.285  0.00  0.00    +0.000 A 
ATOM     26  C   UNL     1      45.522   1.790   8.608  0.00  0.00    +0.000 A 
ATOM     27  C   UNL     1      46.441   0.944   7.984  0.00  0.00    +0.000 A 
ATOM     28  C   UNL     1      47.319   1.449   7.028  0.00  0.00    +0.000 A 
ATOM     29  C   UNL     1      47.278   2.800   6.690  0.00  0.00    +0.000 A 
ATOM     30  C   UNL     1      46.361   3.648   7.313  0.00  0.00    +0.000 A 
ENDBRANCH  24  25
ENDBRANCH  23  24
ENDBRANCH  20  23
ENDBRANCH  16  17
ENDBRANCH   3  16
TORSDOF 6
ENDMDL
MODEL 2
REMARK VINA RESULT:    -8.255      2.278      2.851
REMARK INTER + INTRA:         -12.049
REMARK INTER:                 -11.140
REMARK INTRA:                  -0.909
REMARK UNBOUND:                -0.899
REMARK  Name = 
REMARK  7 active torsions:
REMARK  status: ('A' for Active; 'I' for Inactive)
REMARK    1  A    between atoms: C_1  and  N_2
REMARK    2  A    between atoms: C_8  and  C_9
REMARK    3  A    between atoms: N_11  and  C_12
REMARK    4  A    between atoms: C_12  and  C_13
REMARK    5  A    between atoms: C_16  and  O_17
REMARK    6  A    between atoms: O_17  and  C_18
REMARK    7  A    between atoms: C_18  and  C_19
REMARK                            x       y       z     vdW  Elec       q    Type
REMARK                         _______ _______ _______ _____ _____    ______ ____
ROOT
ATOM      1  C   UNL     1      48.212   7.305  13.857  0.00  0.00    +0.000 C 
ATOM      2  O   UNL     1      48.717   7.136  12.750  0.00  0.00    +0.000 OA
ATOM      3  N   UNL     1      46.916   7.724  14.018  0.00  0.00    +0.000 N 
ATOM      4  H   UNL     1      46.504   7.688  14.944  0.00  0.00    +0.000 HD
ENDROOT
BRANCH   1  12
ATOM      5  C   UNL     1      47.455   2.972  17.497  0.00  0.00    +0.000 C 
ATOM      6  N   UNL     1      48.275   4.153  17.334  0.00  0.00    +0.000 N 
ATOM      7  C   UNL     1      49.226   4.488  18.282  0.00  0.00    +0.000 A 
ATOM      8  N   UNL     1      49.996   5.525  18.231  0.00  0.00    +0.000 NA
ATOM      9  C   UNL     1      49.821   6.308  17.136  0.00  0.00    +0.000 A 
ATOM     10  S   UNL     1      50.776   7.694  16.888  0.00  0.00    +0.000 S 
ATOM     11  C   UNL     1      49.998   8.034  15.409  0.00  0.00    +0.000 A 
ATOM     12  C   UNL     1      48.990   7.133  15.091  0.00  0.00    +0.000 A 
ATOM     13  C   UNL     1      48.908   6.118  16.118  0.00  0.00    +0.000 A 
ATOM     14  C   UNL     1      48.042   4.956  16.225  0.00  0.00    +0.000 A 
ATOM     15  O   UNL     1      47.144   4.725  15.418  0.00  0.00    +0.000 OA
ENDBRANCH   1  12
BRANCH   3  16
ATOM     16  C   UNL     1      46.005   7.916  12.918  0.00  0.00    +0.000 C 
BRANCH  16  17
ATOM     17  C   UNL     1      45.629   6.624  12.255  0.00  0.00    +0.000 A 
ATOM     18  C   UNL     1      45.120   5.550  12.988  0.00  0.00    +0.000 A 
ATOM     19  C   UNL     1      44.816   4.353  12.342  0.00  0.00    +0.000 A 
ATOM     20  C   UNL     1      44.995   4.282  10.971  0.00  0.00    +0.000 A 
ATOM     21  N   UNL     1      45.467   5.303  10.225  0.00  0.00    +0.000 NA
ATOM     22  C   UNL     1      45.771   6.446  10.882  0.00  0.00    +0.000 A 
BRANCH  20  23
ATOM     23  O   UNL     1      44.704   3.076  10.367  0.00  0.00    +0.000 OA
BRANCH  23  24
ATOM     24  C   UNL     1      44.390   3.232   8.981  0.00  0.00    +0.000 C 
BRANCH  24  25
ATOM     25  C   UNL     1      45.526   2.686   8.143  0.00  0.00    +0.000 A 
ATOM     26  C   UNL     1      45.976   1.369   8.316  0.00  0.00    +0.000 A 
ATOM     27  C   UNL     1      47.014   0.867   7.530  0.00  0.00    +0.000 A 
ATOM     28  C   UNL     1      47.609   1.670   6.560  0.00  0.00    +0.000 A 
ATOM     29  C   UNL     1      47.164   2.977   6.370  0.00  0.00    +0.000 A 
ATOM     30  C   UNL     1      46.126   3.482   7.156  0.00  0.00    +0.000 A 
ENDBRANCH  24  25
ENDBRANCH  23  24
ENDBRANCH  20  23
ENDBRANCH  16  17
ENDBRANCH   3  16
TORSDOF 6
ENDMDL
MODEL 3
REMARK VINA RESULT:    -8.036      1.584      2.704
REMARK INTER + INTRA:         -11.754
REMARK INTER:                 -10.614
REMARK INTRA:                  -1.140
REMARK UNBOUND:                -0.899
REMARK  Name = 
REMARK  7 active torsions:
REMARK  status: ('A' for Active; 'I' for Inactive)
REMARK    1  A    between atoms: C_1  and  N_2
REMARK    2  A    between atoms: C_8  and  C_9
REMARK    3  A    between atoms: N_11  and  C_12
REMARK    4  A    between atoms: C_12  and  C_13
REMARK    5  A    between atoms: C_16  and  O_17
REMARK    6  A    between atoms: O_17  and  C_18
REMARK    7  A    between atoms: C_18  and  C_19
REMARK                            x       y       z     vdW  Elec       q    Type
REMARK                         _______ _______ _______ _____ _____    ______ ____
ROOT
ATOM      1  C   UNL     1      48.703   8.100  15.384  0.00  0.00    +0.000 C 
ATOM      2  O   UNL     1      49.568   8.823  14.896  0.00  0.00    +0.000 OA
ATOM      3  N   UNL     1      47.707   7.533  14.631  0.00  0.00    +0.000 N 
ATOM      4  H   UNL     1      47.123   6.820  15.053  0.00  0.00    +0.000 HD
ENDROOT
BRANCH   1  12
ATOM      5  C   UNL     1      48.917   2.886  17.700  0.00  0.00    +0.000 C 
ATOM      6  N   UNL     1      48.803   4.272  18.098  0.00  0.00    +0.000 N 
ATOM      7  C   UNL     1      48.691   4.615  19.434  0.00  0.00    +0.000 A 
ATOM      8  N   UNL     1      48.572   5.820  19.886  0.00  0.00    +0.000 NA
ATOM      9  C   UNL     1      48.571   6.787  18.932  0.00  0.00    +0.000 A 
ATOM     10  S   UNL     1      48.462   8.432  19.352  0.00  0.00    +0.000 S 
ATOM     11  C   UNL     1      48.554   8.913  17.719  0.00  0.00    +0.000 A 
ATOM     12  C   UNL     1      48.638   7.849  16.830  0.00  0.00    +0.000 A 
ATOM     13  C   UNL     1      48.656   6.604  17.567  0.00  0.00    +0.000 A 
ATOM     14  C   UNL     1      48.760   5.233  17.096  0.00  0.00    +0.000 A 
ATOM     15  O   UNL     1      48.769   4.945  15.901  0.00  0.00    +0.000 OA
ENDBRANCH   1  12
BRANCH   3  16
ATOM     16  C   UNL     1      47.633   7.656  13.197  0.00  0.00    +0.000 C 
BRANCH  16  17
ATOM     17  C   UNL     1      46.779   6.592  12.575  0.00  0.00    +0.000 A 
ATOM     18  C   UNL     1      46.626   5.339  13.172  0.00  0.00    +0.000 A 
ATOM     19  C   UNL     1      45.855   4.362  12.544  0.00  0.00    +0.000 A 
ATOM     20  C   UNL     1      45.226   4.685  11.354  0.00  0.00    +0.000 A 
ATOM     21  N   UNL     1      45.334   5.890  10.755  0.00  0.00    +0.000 NA
ATOM     22  C   UNL     1      46.106   6.811  11.378  0.00  0.00    +0.000 A 
BRANCH  20  23
ATOM     23  O   UNL     1      44.487   3.689  10.750  0.00  0.00    +0.000 OA
BRANCH  23  24
ATOM     24  C   UNL     1      44.284   3.941   9.358  0.00  0.00    +0.000 C 
BRANCH  24  25
ATOM     25  C   UNL     1      45.306   3.167   8.552  0.00  0.00    +0.000 A 
ATOM     26  C   UNL     1      46.128   3.820   7.622  0.00  0.00    +0.000 A 
ATOM     27  C   UNL     1      47.078   3.103   6.892  0.00  0.00    +0.000 A 
ATOM     28  C   UNL     1      47.222   1.731   7.088  0.00  0.00    +0.000 A 
ATOM     29  C   UNL     1      46.418   1.073   8.016  0.00  0.00    +0.000 A 
ATOM     30  C   UNL     1      45.466   1.787   8.746  0.00  0.00    +0.000 A 
ENDBRANCH  24  25
ENDBRANCH  23  24
ENDBRANCH  20  23
ENDBRANCH  16  17
ENDBRANCH   3  16
TORSDOF 6
ENDMDL
MODEL 4
REMARK VINA RESULT:    -7.964      2.531      4.101
REMARK INTER + INTRA:         -11.657
REMARK INTER:                 -10.494
REMARK INTRA:                  -1.163
REMARK UNBOUND:                -0.899
REMARK  Name = 
REMARK  7 active torsions:
REMARK  status: ('A' for Active; 'I' for Inactive)
REMARK    1  A    between atoms: C_1  and  N_2
REMARK    2  A    between atoms: C_8  and  C_9
REMARK    3  A    between atoms: N_11  and  C_12
REMARK    4  A    between atoms: C_12  and  C_13
REMARK    5  A    between atoms: C_16  and  O_17
REMARK    6  A    between atoms: O_17  and  C_18
REMARK    7  A    between atoms: C_18  and  C_19
REMARK                            x       y       z     vdW  Elec       q    Type
REMARK                         _______ _______ _______ _____ _____    ______ ____
ROOT
ATOM      1  C   UNL     1      48.632   6.107  15.780  0.00  0.00    +0.000 C 
ATOM      2  O   UNL     1      49.176   5.156  16.334  0.00  0.00    +0.000 OA
ATOM      3  N   UNL     1      47.550   5.955  14.951  0.00  0.00    +0.000 N 
ATOM      4  H   UNL     1      47.044   6.782  14.654  0.00  0.00    +0.000 HD
ENDROOT
BRANCH   1  12
ATOM      5  C   UNL     1      50.444   9.257  11.376  0.00  0.00    +0.000 C 
ATOM      6  N   UNL     1      50.291   9.343  12.811  0.00  0.00    +0.000 N 
ATOM      7  C   UNL     1      50.665  10.487  13.493  0.00  0.00    +0.000 A 
ATOM      8  N   UNL     1      50.579  10.655  14.772  0.00  0.00    +0.000 NA
ATOM      9  C   UNL     1      50.065   9.596  15.449  0.00  0.00    +0.000 A 
ATOM     10  S   UNL     1      49.845   9.658  17.135  0.00  0.00    +0.000 S 
ATOM     11  C   UNL     1      49.188   8.084  17.164  0.00  0.00    +0.000 A 
ATOM     12  C   UNL     1      49.151   7.475  15.916  0.00  0.00    +0.000 A 
ATOM     13  C   UNL     1      49.664   8.387  14.918  0.00  0.00    +0.000 A 
ATOM     14  C   UNL     1      49.803   8.227  13.480  0.00  0.00    +0.000 A 
ATOM     15  O   UNL     1      49.547   7.171  12.906  0.00  0.00    +0.000 OA
ENDBRANCH   1  12
BRANCH   3  16
ATOM     16  C   UNL     1      46.900   4.690  14.725  0.00  0.00    +0.000 C 
BRANCH  16  17
ATOM     17  C   UNL     1      46.295   4.594  13.355  0.00  0.00    +0.000 A 
ATOM     18  C   UNL     1      46.261   5.694  12.496  0.00  0.00    +0.000 A 
ATOM     19  C   UNL     1      45.656   5.576  11.245  0.00  0.00    +0.000 A 
ATOM     20  C   UNL     1      45.140   4.346  10.878  0.00  0.00    +0.000 A 
ATOM     21  N   UNL     1      45.170   3.255  11.672  0.00  0.00    +0.000 NA
ATOM     22  C   UNL     1      45.746   3.404  12.888  0.00  0.00    +0.000 A 
BRANCH  20  23
ATOM     23  O   UNL     1      44.531   4.270   9.642  0.00  0.00    +0.000 OA
BRANCH  23  24
ATOM     24  C   UNL     1      44.405   2.921   9.187  0.00  0.00    +0.000 C 
BRANCH  24  25
ATOM     25  C   UNL     1      45.514   2.615   8.203  0.00  0.00    +0.000 A 
ATOM     26  C   UNL     1      45.945   3.584   7.285  0.00  0.00    +0.000 A 
ATOM     27  C   UNL     1      46.977   3.300   6.389  0.00  0.00    +0.000 A 
ATOM     28  C   UNL     1      47.594   2.052   6.406  0.00  0.00    +0.000 A 
ATOM     29  C   UNL     1      47.183   1.084   7.320  0.00  0.00    +0.000 A 
ATOM     30  C   UNL     1      46.150   1.364   8.216  0.00  0.00    +0.000 A 
ENDBRANCH  24  25
ENDBRANCH  23  24
ENDBRANCH  20  23
ENDBRANCH  16  17
ENDBRANCH   3  16
TORSDOF 6
ENDMDL
MODEL 5
REMARK VINA RESULT:    -7.448      3.808      4.650
REMARK INTER + INTRA:         -10.959
REMARK INTER:                 -10.054
REMARK INTRA:                  -0.906
REMARK UNBOUND:                -0.899
REMARK  Name = 
REMARK  7 active torsions:
REMARK  status: ('A' for Active; 'I' for Inactive)
REMARK    1  A    between atoms: C_1  and  N_2
REMARK    2  A    between atoms: C_8  and  C_9
REMARK    3  A    between atoms: N_11  and  C_12
REMARK    4  A    between atoms: C_12  and  C_13
REMARK    5  A    between atoms: C_16  and  O_17
REMARK    6  A    between atoms: O_17  and  C_18
REMARK    7  A    between atoms: C_18  and  C_19
REMARK                            x       y       z     vdW  Elec       q    Type
REMARK                         _______ _______ _______ _____ _____    ______ ____
ROOT
ATOM      1  C   UNL     1      47.804   7.989  13.423  0.00  0.00    +0.000 C 
ATOM      2  O   UNL     1      46.782   8.596  13.729  0.00  0.00    +0.000 OA
ATOM      3  N   UNL     1      47.915   6.627  13.542  0.00  0.00    +0.000 N 
ATOM      4  H   UNL     1      48.714   6.165  13.123  0.00  0.00    +0.000 HD
ENDROOT
BRANCH   1  12
ATOM      5  C   UNL     1      52.959   7.286  15.773  0.00  0.00    +0.000 C 
ATOM      6  N   UNL     1      52.316   8.034  14.717  0.00  0.00    +0.000 N 
ATOM      7  C   UNL     1      53.041   8.917  13.935  0.00  0.00    +0.000 A 
ATOM      8  N   UNL     1      52.555   9.638  12.978  0.00  0.00    +0.000 NA
ATOM      9  C   UNL     1      51.225   9.470  12.761  0.00  0.00    +0.000 A 
ATOM     10  S   UNL     1      50.428  10.311  11.516  0.00  0.00    +0.000 S 
ATOM     11  C   UNL     1      48.940   9.564  11.886  0.00  0.00    +0.000 A 
ATOM     12  C   UNL     1      49.009   8.694  12.967  0.00  0.00    +0.000 A 
ATOM     13  C   UNL     1      50.367   8.647  13.463  0.00  0.00    +0.000 A 
ATOM     14  C   UNL     1      50.946   7.874  14.549  0.00  0.00    +0.000 A 
ATOM     15  O   UNL     1      50.268   7.163  15.288  0.00  0.00    +0.000 OA
ENDBRANCH   1  12
BRANCH   3  16
ATOM     16  C   UNL     1      46.823   5.779  13.950  0.00  0.00    +0.000 C 
BRANCH  16  17
ATOM     17  C   UNL     1      46.136   5.131  12.785  0.00  0.00    +0.000 A 
ATOM     18  C   UNL     1      45.864   5.841  11.613  0.00  0.00    +0.000 A 
ATOM     19  C   UNL     1      45.190   5.216  10.566  0.00  0.00    +0.000 A 
ATOM     20  C   UNL     1      44.843   3.883  10.709  0.00  0.00    +0.000 A 
ATOM     21  N   UNL     1      45.104   3.158  11.818  0.00  0.00    +0.000 NA
ATOM     22  C   UNL     1      45.743   3.798  12.826  0.00  0.00    +0.000 A 
BRANCH  20  23
ATOM     23  O   UNL     1      44.160   3.301   9.662  0.00  0.00    +0.000 OA
BRANCH  23  24
ATOM     24  C   UNL     1      44.546   3.849   8.399  0.00  0.00    +0.000 C 
BRANCH  24  25
ATOM     25  C   UNL     1      45.636   2.994   7.790  0.00  0.00    +0.000 A 
ATOM     26  C   UNL     1      45.890   1.703   8.277  0.00  0.00    +0.000 A 
ATOM     27  C   UNL     1      46.887   0.913   7.702  0.00  0.00    +0.000 A 
ATOM     28  C   UNL     1      47.635   1.400   6.633  0.00  0.00    +0.000 A 
ATOM     29  C   UNL     1      47.386   2.676   6.133  0.00  0.00    +0.000 A 
ATOM     30  C   UNL     1      46.390   3.469   6.707  0.00  0.00    +0.000 A 
ENDBRANCH  24  25
ENDBRANCH  23  24
ENDBRANCH  20  23
ENDBRANCH  16  17
ENDBRANCH   3  16
TORSDOF 6
ENDMDL
MODEL 6
REMARK VINA RESULT:    -6.767      2.680      3.685
REMARK INTER + INTRA:         -10.039
REMARK INTER:                  -9.233
REMARK INTRA:                  -0.806
REMARK UNBOUND:                -0.899
REMARK  Name = 
REMARK  7 active torsions:
REMARK  status: ('A' for Active; 'I' for Inactive)
REMARK    1  A    between atoms: C_1  and  N_2
REMARK    2  A    between atoms: C_8  and  C_9
REMARK    3  A    between atoms: N_11  and  C_12
REMARK    4  A    between atoms: C_12  and  C_13
REMARK    5  A    between atoms: C_16  and  O_17
REMARK    6  A    between atoms: O_17  and  C_18
REMARK    7  A    between atoms: C_18  and  C_19
REMARK                            x       y       z     vdW  Elec       q    Type
REMARK                         _______ _______ _______ _____ _____    ______ ____
ROOT
ATOM      1  C   UNL     1      48.933   8.714  12.651  0.00  0.00    +0.000 C 
ATOM      2  O   UNL     1      49.141   8.851  11.448  0.00  0.00    +0.000 OA
ATOM      3  N   UNL     1      47.676   8.790  13.193  0.00  0.00    +0.000 N 
ATOM      4  H   UNL     1      47.544   8.507  14.158  0.00  0.00    +0.000 HD
ENDROOT
BRANCH   1  12
ATOM      5  C   UNL     1      48.755   5.014  16.996  0.00  0.00    +0.000 C 
ATOM      6  N   UNL     1      49.645   5.990  16.406  0.00  0.00    +0.000 N 
ATOM      7  C   UNL     1      50.891   6.231  16.958  0.00  0.00    +0.000 A 
ATOM      8  N   UNL     1      51.750   7.089  16.512  0.00  0.00    +0.000 NA
ATOM      9  C   UNL     1      51.349   7.772  15.410  0.00  0.00    +0.000 A 
ATOM     10  S   UNL     1      52.370   8.912  14.667  0.00  0.00    +0.000 S 
ATOM     11  C   UNL     1      51.215   9.241  13.455  0.00  0.00    +0.000 A 
ATOM     12  C   UNL     1      50.035   8.524  13.604  0.00  0.00    +0.000 A 
ATOM     13  C   UNL     1      50.138   7.657  14.757  0.00  0.00    +0.000 A 
ATOM     14  C   UNL     1      49.189   6.703  15.305  0.00  0.00    +0.000 A 
ATOM     15  O   UNL     1      48.054   6.567  14.853  0.00  0.00    +0.000 OA
ENDBRANCH   1  12
BRANCH   3  16
ATOM     16  C   UNL     1      46.483   8.947  12.402  0.00  0.00    +0.000 C 
BRANCH  16  17
ATOM     17  C   UNL     1      45.906   7.632  11.969  0.00  0.00    +0.000 A 
ATOM     18  C   UNL     1      44.536   7.475  11.747  0.00  0.00    +0.000 A 
ATOM     19  C   UNL     1      44.032   6.227  11.383  0.00  0.00    +0.000 A 
ATOM     20  C   UNL     1      44.924   5.182  11.213  0.00  0.00    +0.000 A 
ATOM     21  N   UNL     1      46.256   5.298  11.399  0.00  0.00    +0.000 NA
ATOM     22  C   UNL     1      46.713   6.516  11.772  0.00  0.00    +0.000 A 
BRANCH  20  23
ATOM     23  O   UNL     1      44.389   3.957  10.872  0.00  0.00    +0.000 OA
BRANCH  23  24
ATOM     24  C   UNL     1      43.997   3.906   9.498  0.00  0.00    +0.000 C 
BRANCH  24  25
ATOM     25  C   UNL     1      45.086   3.236   8.688  0.00  0.00    +0.000 A 
ATOM     26  C   UNL     1      45.896   3.982   7.820  0.00  0.00    +0.000 A 
ATOM     27  C   UNL     1      46.908   3.360   7.085  0.00  0.00    +0.000 A 
ATOM     28  C   UNL     1      47.126   1.991   7.216  0.00  0.00    +0.000 A 
ATOM     29  C   UNL     1      46.335   1.240   8.083  0.00  0.00    +0.000 A 
ATOM     30  C   UNL     1      45.322   1.859   8.817  0.00  0.00    +0.000 A 
ENDBRANCH  24  25
ENDBRANCH  23  24
ENDBRANCH  20  23
ENDBRANCH  16  17
ENDBRANCH   3  16
TORSDOF 6
ENDMDL
MODEL 7
REMARK VINA RESULT:    -6.720      3.633      5.681
REMARK INTER + INTRA:          -9.976
REMARK INTER:                  -9.063
REMARK INTRA:                  -0.913
REMARK UNBOUND:                -0.899
REMARK  Name = 
REMARK  7 active torsions:
REMARK  status: ('A' for Active; 'I' for Inactive)
REMARK    1  A    between atoms: C_1  and  N_2
REMARK    2  A    between atoms: C_8  and  C_9
REMARK    3  A    between atoms: N_11  and  C_12
REMARK    4  A    between atoms: C_12  and  C_13
REMARK    5  A    between atoms: C_16  and  O_17
REMARK    6  A    between atoms: O_17  and  C_18
REMARK    7  A    between atoms: C_18  and  C_19
REMARK                            x       y       z     vdW  Elec       q    Type
REMARK                         _______ _______ _______ _____ _____    ______ ____
ROOT
ATOM      1  C   UNL     1      48.706   8.528  13.961  0.00  0.00    +0.000 C 
ATOM      2  O   UNL     1      47.678   9.107  14.304  0.00  0.00    +0.000 OA
ATOM      3  N   UNL     1      48.824   7.162  13.985  0.00  0.00    +0.000 N 
ATOM      4  H   UNL     1      49.628   6.735  13.538  0.00  0.00    +0.000 HD
ENDROOT
BRANCH   1  12
ATOM      5  C   UNL     1      52.047   7.026   9.582  0.00  0.00    +0.000 C 
ATOM      6  N   UNL     1      51.951   8.044  10.604  0.00  0.00    +0.000 N 
ATOM      7  C   UNL     1      52.902   9.046  10.694  0.00  0.00    +0.000 A 
ATOM      8  N   UNL     1      52.909   9.990  11.577  0.00  0.00    +0.000 NA
ATOM      9  C   UNL     1      51.875   9.952  12.456  0.00  0.00    +0.000 A 
ATOM     10  S   UNL     1      51.706  11.140  13.662  0.00  0.00    +0.000 S 
ATOM     11  C   UNL     1      50.270  10.427  14.243  0.00  0.00    +0.000 A 
ATOM     12  C   UNL     1      49.909   9.271  13.563  0.00  0.00    +0.000 A 
ATOM     13  C   UNL     1      50.864   9.014  12.507  0.00  0.00    +0.000 A 
ATOM     14  C   UNL     1      50.906   7.952  11.515  0.00  0.00    +0.000 A 
ATOM     15  O   UNL     1      50.102   7.023  11.508  0.00  0.00    +0.000 OA
ENDBRANCH   1  12
BRANCH   3  16
ATOM     16  C   UNL     1      47.736   6.281  14.325  0.00  0.00    +0.000 C 
BRANCH  16  17
ATOM     17  C   UNL     1      46.956   5.843  13.120  0.00  0.00    +0.000 A 
ATOM     18  C   UNL     1      46.864   6.646  11.981  0.00  0.00    +0.000 A 
ATOM     19  C   UNL     1      46.099   6.222  10.896  0.00  0.00    +0.000 A 
ATOM     20  C   UNL     1      45.482   4.985  10.970  0.00  0.00    +0.000 A 
ATOM     21  N   UNL     1      45.562   4.172  12.044  0.00  0.00    +0.000 NA
ATOM     22  C   UNL     1      46.295   4.620  13.090  0.00  0.00    +0.000 A 
BRANCH  20  23
ATOM     23  O   UNL     1      44.717   4.606   9.886  0.00  0.00    +0.000 OA
BRANCH  23  24
ATOM     24  C   UNL     1      44.715   3.188   9.701  0.00  0.00    +0.000 C 
BRANCH  24  25
ATOM     25  C   UNL     1      45.586   2.834   8.515  0.00  0.00    +0.000 A 
ATOM     26  C   UNL     1      45.900   3.796   7.544  0.00  0.00    +0.000 A 
ATOM     27  C   UNL     1      46.716   3.467   6.459  0.00  0.00    +0.000 A 
ATOM     28  C   UNL     1      47.231   2.178   6.337  0.00  0.00    +0.000 A 
ATOM     29  C   UNL     1      46.935   1.217   7.300  0.00  0.00    +0.000 A 
ATOM     30  C   UNL     1      46.118   1.542   8.385  0.00  0.00    +0.000 A 
ENDBRANCH  24  25
ENDBRANCH  23  24
ENDBRANCH  20  23
ENDBRANCH  16  17
ENDBRANCH   3  16
TORSDOF 6
ENDMDL
MODEL 8
REMARK VINA RESULT:    -6.409      4.604      8.591
REMARK INTER + INTRA:          -9.556
REMARK INTER:                  -8.645
REMARK INTRA:                  -0.911
REMARK UNBOUND:                -0.899
REMARK  Name = 
REMARK  7 active torsions:
REMARK  status: ('A' for Active; 'I' for Inactive)
REMARK    1  A    between atoms: C_1  and  N_2
REMARK    2  A    between atoms: C_8  and  C_9
REMARK    3  A    between atoms: N_11  and  C_12
REMARK    4  A    between atoms: C_12  and  C_13
REMARK    5  A    between atoms: C_16  and  O_17
REMARK    6  A    between atoms: O_17  and  C_18
REMARK    7  A    between atoms: C_18  and  C_19
REMARK                            x       y       z     vdW  Elec       q    Type
REMARK                         _______ _______ _______ _____ _____    ______ ____
ROOT
ATOM      1  C   UNL     1      44.982   6.652  11.782  0.00  0.00    +0.000 C 
ATOM      2  O   UNL     1      44.509   7.570  11.118  0.00  0.00    +0.000 OA
ATOM      3  N   UNL     1      45.948   6.854  12.734  0.00  0.00    +0.000 N 
ATOM      4  H   UNL     1      46.180   6.092  13.362  0.00  0.00    +0.000 HD
ENDROOT
BRANCH   1  12
ATOM      5  C   UNL     1      46.445   3.680   7.132  0.00  0.00    +0.000 C 
ATOM      6  N   UNL     1      45.703   3.519   8.363  0.00  0.00    +0.000 N 
ATOM      7  C   UNL     1      45.076   2.320   8.657  0.00  0.00    +0.000 A 
ATOM      8  N   UNL     1      44.382   2.083   9.721  0.00  0.00    +0.000 NA
ATOM      9  C   UNL     1      44.302   3.124  10.589  0.00  0.00    +0.000 A 
ATOM     10  S   UNL     1      43.459   2.975  12.059  0.00  0.00    +0.000 S 
ATOM     11  C   UNL     1      43.847   4.574  12.508  0.00  0.00    +0.000 A 
ATOM     12  C   UNL     1      44.588   5.255  11.552  0.00  0.00    +0.000 A 
ATOM     13  C   UNL     1      44.853   4.380  10.432  0.00  0.00    +0.000 A 
ATOM     14  C   UNL     1      45.602   4.616   9.208  0.00  0.00    +0.000 A 
ATOM     15  O   UNL     1      46.075   5.714   8.927  0.00  0.00    +0.000 OA
ENDBRANCH   1  12
BRANCH   3  16
ATOM     16  C   UNL     1      46.430   8.160  13.105  0.00  0.00    +0.000 C 
BRANCH  16  17
ATOM     17  C   UNL     1      47.869   8.364  12.734  0.00  0.00    +0.000 A 
ATOM     18  C   UNL     1      48.884   7.588  13.299  0.00  0.00    +0.000 A 
ATOM     19  C   UNL     1      50.213   7.833  12.958  0.00  0.00    +0.000 A 
ATOM     20  C   UNL     1      50.483   8.823  12.029  0.00  0.00    +0.000 A 
ATOM     21  N   UNL     1      49.529   9.582  11.448  0.00  0.00    +0.000 NA
ATOM     22  C   UNL     1      48.250   9.335  11.813  0.00  0.00    +0.000 A 
BRANCH  20  23
ATOM     23  O   UNL     1      51.810   9.052  11.730  0.00  0.00    +0.000 OA
BRANCH  23  24
ATOM     24  C   UNL     1      51.994   9.432  10.365  0.00  0.00    +0.000 C 
BRANCH  24  25
ATOM     25  C   UNL     1      52.815   8.378   9.655  0.00  0.00    +0.000 A 
ATOM     26  C   UNL     1      53.777   8.740   8.700  0.00  0.00    +0.000 A 
ATOM     27  C   UNL     1      54.541   7.764   8.058  0.00  0.00    +0.000 A 
ATOM     28  C   UNL     1      54.359   6.418   8.368  0.00  0.00    +0.000 A 
ATOM     29  C   UNL     1      53.415   6.045   9.322  0.00  0.00    +0.000 A 
ATOM     30  C   UNL     1      52.648   7.019   9.964  0.00  0.00    +0.000 A 
ENDBRANCH  24  25
ENDBRANCH  23  24
ENDBRANCH  20  23
ENDBRANCH  16  17
ENDBRANCH   3  16
TORSDOF 6
ENDMDL
MODEL 9
REMARK VINA RESULT:    -6.280      3.905      8.612
REMARK INTER + INTRA:          -9.382
REMARK INTER:                  -8.313
REMARK INTRA:                  -1.069
REMARK UNBOUND:                -0.899
REMARK  Name = 
REMARK  7 active torsions:
REMARK  status: ('A' for Active; 'I' for Inactive)
REMARK    1  A    between atoms: C_1  and  N_2
REMARK    2  A    between atoms: C_8  and  C_9
REMARK    3  A    between atoms: N_11  and  C_12
REMARK    4  A    between atoms: C_12  and  C_13
REMARK    5  A    between atoms: C_16  and  O_17
REMARK    6  A    between atoms: O_17  and  C_18
REMARK    7  A    between atoms: C_18  and  C_19
REMARK                            x       y       z     vdW  Elec       q    Type
REMARK                         _______ _______ _______ _____ _____    ______ ____
ROOT
ATOM      1  C   UNL     1      47.217   8.945  13.101  0.00  0.00    +0.000 C 
ATOM      2  O   UNL     1      48.246   9.212  12.486  0.00  0.00    +0.000 OA
ATOM      3  N   UNL     1      47.184   8.835  14.468  0.00  0.00    +0.000 N 
ATOM      4  H   UNL     1      46.284   8.777  14.930  0.00  0.00    +0.000 HD
ENDROOT
BRANCH   1  12
ATOM      5  C   UNL     1      45.065   3.691  12.499  0.00  0.00    +0.000 C 
ATOM      6  N   UNL     1      44.760   5.061  12.150  0.00  0.00    +0.000 N 
ATOM      7  C   UNL     1      43.618   5.368  11.430  0.00  0.00    +0.000 A 
ATOM      8  N   UNL     1      43.266   6.555  11.060  0.00  0.00    +0.000 NA
ATOM      9  C   UNL     1      44.116   7.543  11.443  0.00  0.00    +0.000 A 
ATOM     10  S   UNL     1      43.788   9.172  11.076  0.00  0.00    +0.000 S 
ATOM     11  C   UNL     1      45.202   9.695  11.873  0.00  0.00    +0.000 A 
ATOM     12  C   UNL     1      45.958   8.657  12.402  0.00  0.00    +0.000 A 
ATOM     13  C   UNL     1      45.295   7.397  12.145  0.00  0.00    +0.000 A 
ATOM     14  C   UNL     1      45.670   6.043  12.518  0.00  0.00    +0.000 A 
ATOM     15  O   UNL     1      46.732   5.784  13.080  0.00  0.00    +0.000 OA
ENDBRANCH   1  12
BRANCH   3  16
ATOM     16  C   UNL     1      48.321   9.108  15.310  0.00  0.00    +0.000 C 
BRANCH  16  17
ATOM     17  C   UNL     1      48.716   7.923  16.140  0.00  0.00    +0.000 A 
ATOM     18  C   UNL     1      48.703   7.973  17.535  0.00  0.00    +0.000 A 
ATOM     19  C   UNL     1      49.112   6.864  18.272  0.00  0.00    +0.000 A 
ATOM     20  C   UNL     1      49.487   5.721  17.587  0.00  0.00    +0.000 A 
ATOM     21  N   UNL     1      49.496   5.626  16.240  0.00  0.00    +0.000 NA
ATOM     22  C   UNL     1      49.111   6.726  15.551  0.00  0.00    +0.000 A 
BRANCH  20  23
ATOM     23  O   UNL     1      49.905   4.648  18.347  0.00  0.00    +0.000 OA
BRANCH  23  24
ATOM     24  C   UNL     1      49.874   3.424  17.610  0.00  0.00    +0.000 C 
BRANCH  24  25
ATOM     25  C   UNL     1      51.226   2.748  17.699  0.00  0.00    +0.000 A 
ATOM     26  C   UNL     1      51.377   1.400  17.344  0.00  0.00    +0.000 A 
ATOM     27  C   UNL     1      52.629   0.786  17.414  0.00  0.00    +0.000 A 
ATOM     28  C   UNL     1      53.742   1.512  17.831  0.00  0.00    +0.000 A 
ATOM     29  C   UNL     1      53.607   2.855  18.176  0.00  0.00    +0.000 A 
ATOM     30  C   UNL     1      52.356   3.472  18.108  0.00  0.00    +0.000 A 
ENDBRANCH  24  25
ENDBRANCH  23  24
ENDBRANCH  20  23
ENDBRANCH  16  17
ENDBRANCH   3  16
TORSDOF 6
ENDMDL
