MODEL 1
REMARK VINA RESULT:    -8.745      0.000      0.000
REMARK INTER + INTRA:         -12.755
REMARK INTER:                 -12.323
REMARK INTRA:                  -0.432
REMARK UNBOUND:                -0.432
REMARK  Name = 
REMARK  9 active torsions:
REMARK  status: ('A' for Active; 'I' for Inactive)
REMARK    1  A    between atoms: C_1  and  O_2
REMARK    2  A    between atoms: O_2  and  C_3
REMARK    3  A    between atoms: C_10  and  C_11
REMARK    4  A    between atoms: N_13  and  C_14
REMARK    5  A    between atoms: C_14  and  C_15
REMARK    6  A    between atoms: C_18  and  N_19
REMARK    7  A    between atoms: N_19  and  C_20
REMARK    8  A    between atoms: C_20  and  C_21
REMARK    9  A    between atoms: C_25  and  C_26
REMARK                            x       y       z     vdW  Elec       q    Type
REMARK                         _______ _______ _______ _____ _____    ______ ____
ROOT
ATOM      1  C   UNL     1      46.436   8.083  13.100  0.00  0.00    +0.000 A 
ATOM      2  C   UNL     1      45.753   8.857  12.155  0.00  0.00    +0.000 A 
ATOM      3  C   UNL     1      44.728   8.304  11.369  0.00  0.00    +0.000 A 
ATOM      4  C   UNL     1      44.335   6.970  11.512  0.00  0.00    +0.000 A 
ATOM      5  C   UNL     1      45.037   6.194  12.447  0.00  0.00    +0.000 A 
ATOM      6  C   UNL     1      46.063   6.741  13.238  0.00  0.00    +0.000 A 
ENDROOT
BRANCH   4   7
ATOM      7  N   UNL     1      43.340   6.349  10.736  0.00  0.00    +0.000 N 
ATOM      8  H   UNL     1      43.144   6.921   9.922  0.00  0.00    +0.000 HD
BRANCH   7   9
ATOM      9  C   UNL     1      43.430   4.918  10.464  0.00  0.00    +0.000 C 
BRANCH   9  10
ATOM     10  C   UNL     1      44.868   4.367  10.335  0.00  0.00    +0.000 C 
ATOM     11  C   UNL     1      45.656   4.821   9.090  0.00  0.00    +0.000 C 
ATOM     12  C   UNL     1      45.496   3.923   7.859  0.00  0.00    +0.000 C 
ATOM     13  N   UNL     1      45.631   2.514   8.211  0.00  0.00    +0.000 N 
ATOM     14  C   UNL     1      46.540   1.598   7.707  0.00  0.00    +0.000 C 
ATOM     15  C   UNL     1      47.551   2.016   6.669  0.00  0.00    +0.000 C 
ATOM     16  O   UNL     1      46.560   0.423   8.087  0.00  0.00    +0.000 OA
ATOM     17  C   UNL     1      44.701   2.069   9.248  0.00  0.00    +0.000 C 
ATOM     18  C   UNL     1      44.953   2.846  10.533  0.00  0.00    +0.000 C 
ENDBRANCH   9  10
ENDBRANCH   7   9
ENDBRANCH   4   7
BRANCH   1  19
ATOM     19  C   UNL     1      47.525   8.686  13.955  0.00  0.00    +0.000 C 
BRANCH  19  22
ATOM     20  C   UNL     1      48.903   6.997  15.116  0.00  0.00    +0.000 C 
ATOM     21  O   UNL     1      49.655   6.897  14.151  0.00  0.00    +0.000 OA
ATOM     22  N   UNL     1      47.832   7.854  15.097  0.00  0.00    +0.000 N 
ATOM     23  H   UNL     1      47.184   7.871  15.871  0.00  0.00    +0.000 HD
BRANCH  20  31
ATOM     24  C   UNL     1      47.390   4.182  16.399  0.00  0.00    +0.000 A 
ATOM     25  N   UNL     1      46.991   3.104  17.108  0.00  0.00    +0.000 NA
ATOM     26  C   UNL     1      47.610   2.846  18.256  0.00  0.00    +0.000 A 
ATOM     27  N   UNL     1      48.604   3.538  18.803  0.00  0.00    +0.000 NA
ATOM     28  C   UNL     1      48.984   4.593  18.058  0.00  0.00    +0.000 A 
ATOM     29  S   UNL     1      50.242   5.592  18.602  0.00  0.00    +0.000 S 
ATOM     30  C   UNL     1      50.108   6.591  17.232  0.00  0.00    +0.000 A 
ATOM     31  C   UNL     1      49.115   6.196  16.339  0.00  0.00    +0.000 A 
ATOM     32  C   UNL     1      48.446   4.995  16.839  0.00  0.00    +0.000 A 
BRANCH  24  34
ATOM     33  C   UNL     1      47.141   3.515  14.187  0.00  0.00    +0.000 C 
ATOM     34  O   UNL     1      46.744   4.429  15.208  0.00  0.00    +0.000 OA
ENDBRANCH  24  34
ENDBRANCH  20  31
ENDBRANCH  19  22
ENDBRANCH   1  19
TORSDOF 7
ENDMDL
MODEL 2
REMARK VINA RESULT:    -7.983      1.857      2.667
REMARK INTER + INTRA:         -11.681
REMARK INTER:                 -10.813
REMARK INTRA:                  -0.868
REMARK UNBOUND:                -0.432
REMARK  Name = 
REMARK  9 active torsions:
REMARK  status: ('A' for Active; 'I' for Inactive)
REMARK    1  A    between atoms: C_1  and  O_2
REMARK    2  A    between atoms: O_2  and  C_3
REMARK    3  A    between atoms: C_10  and  C_11
REMARK    4  A    between atoms: N_13  and  C_14
REMARK    5  A    between atoms: C_14  and  C_15
REMARK    6  A    between atoms: C_18  and  N_19
REMARK    7  A    between atoms: N_19  and  C_20
REMARK    8  A    between atoms: C_20  and  C_21
REMARK    9  A    between atoms: C_25  and  C_26
REMARK                            x       y       z     vdW  Elec       q    Type
REMARK                         _______ _______ _______ _____ _____    ______ ____
ROOT
ATOM      1  C   UNL     1      46.601   7.419  13.075  0.00  0.00    +0.000 A 
ATOM      2  C   UNL     1      45.934   8.184  12.112  0.00  0.00    +0.000 A 
ATOM      3  C   UNL     1      44.829   7.668  11.414  0.00  0.00    +0.000 A 
ATOM      4  C   UNL     1      44.339   6.383  11.667  0.00  0.00    +0.000 A 
ATOM      5  C   UNL     1      45.024   5.615  12.620  0.00  0.00    +0.000 A 
ATOM      6  C   UNL     1      46.130   6.125  13.323  0.00  0.00    +0.000 A 
ENDROOT
BRANCH   4   7
ATOM      7  N   UNL     1      43.259   5.798  10.983  0.00  0.00    +0.000 N 
ATOM      8  H   UNL     1      42.624   6.526  10.672  0.00  0.00    +0.000 HD
BRANCH   7   9
ATOM      9  C   UNL     1      43.515   4.755   9.995  0.00  0.00    +0.000 C 
BRANCH   9  10
ATOM     10  C   UNL     1      44.973   4.246   9.946  0.00  0.00    +0.000 C 
ATOM     11  C   UNL     1      45.796   4.671   8.712  0.00  0.00    +0.000 C 
ATOM     12  C   UNL     1      45.713   3.715   7.518  0.00  0.00    +0.000 C 
ATOM     13  N   UNL     1      45.877   2.328   7.938  0.00  0.00    +0.000 N 
ATOM     14  C   UNL     1      46.832   1.421   7.510  0.00  0.00    +0.000 C 
ATOM     15  C   UNL     1      47.871   1.826   6.494  0.00  0.00    +0.000 C 
ATOM     16  O   UNL     1      46.874   0.264   7.943  0.00  0.00    +0.000 OA
ATOM     17  C   UNL     1      44.920   1.898   8.957  0.00  0.00    +0.000 C 
ATOM     18  C   UNL     1      45.098   2.738  10.215  0.00  0.00    +0.000 C 
ENDBRANCH   9  10
ENDBRANCH   7   9
ENDBRANCH   4   7
BRANCH   1  19
ATOM     19  C   UNL     1      47.778   7.985  13.836  0.00  0.00    +0.000 C 
BRANCH  19  22
ATOM     20  C   UNL     1      49.073   6.872  15.620  0.00  0.00    +0.000 C 
ATOM     21  O   UNL     1      50.088   6.874  14.931  0.00  0.00    +0.000 OA
ATOM     22  N   UNL     1      47.896   7.399  15.152  0.00  0.00    +0.000 N 
ATOM     23  H   UNL     1      47.054   7.326  15.705  0.00  0.00    +0.000 HD
BRANCH  20  31
ATOM     24  C   UNL     1      49.287   8.248  18.770  0.00  0.00    +0.000 A 
ATOM     25  N   UNL     1      49.342   8.519  20.091  0.00  0.00    +0.000 NA
ATOM     26  C   UNL     1      49.296   7.498  20.942  0.00  0.00    +0.000 A 
ATOM     27  N   UNL     1      49.198   6.208  20.639  0.00  0.00    +0.000 NA
ATOM     28  C   UNL     1      49.129   5.981  19.313  0.00  0.00    +0.000 A 
ATOM     29  S   UNL     1      49.000   4.390  18.743  0.00  0.00    +0.000 S 
ATOM     30  C   UNL     1      48.980   4.919  17.126  0.00  0.00    +0.000 A 
ATOM     31  C   UNL     1      49.071   6.300  16.982  0.00  0.00    +0.000 A 
ATOM     32  C   UNL     1      49.158   6.932  18.299  0.00  0.00    +0.000 A 
BRANCH  24  34
ATOM     33  C   UNL     1      48.034   9.887  17.701  0.00  0.00    +0.000 C 
ATOM     34  O   UNL     1      49.326   9.319  17.903  0.00  0.00    +0.000 OA
ENDBRANCH  24  34
ENDBRANCH  20  31
ENDBRANCH  19  22
ENDBRANCH   1  19
TORSDOF 7
ENDMDL
MODEL 3
REMARK VINA RESULT:    -7.859      1.406      1.686
REMARK INTER + INTRA:         -11.507
REMARK INTER:                 -10.429
REMARK INTRA:                  -1.078
REMARK UNBOUND:                -0.432
REMARK  Name = 
REMARK  9 active torsions:
REMARK  status: ('A' for Active; 'I' for Inactive)
REMARK    1  A    between atoms: C_1  and  O_2
REMARK    2  A    between atoms: O_2  and  C_3
REMARK    3  A    between atoms: C_10  and  C_11
REMARK    4  A    between atoms: N_13  and  C_14
REMARK    5  A    between atoms: C_14  and  C_15
REMARK    6  A    between atoms: C_18  and  N_19
REMARK    7  A    between atoms: N_19  and  C_20
REMARK    8  A    between atoms: C_20  and  C_21
REMARK    9  A    between atoms: C_25  and  C_26
REMARK                            x       y       z     vdW  Elec       q    Type
REMARK                         _______ _______ _______ _____ _____    ______ ____
ROOT
ATOM      1  C   UNL     1      46.717   8.141  12.969  0.00  0.00    +0.000 A 
ATOM      2  C   UNL     1      45.742   8.680  12.122  0.00  0.00    +0.000 A 
ATOM      3  C   UNL     1      44.678   7.894  11.650  0.00  0.00    +0.000 A 
ATOM      4  C   UNL     1      44.537   6.554  12.021  0.00  0.00    +0.000 A 
ATOM      5  C   UNL     1      45.528   6.014  12.855  0.00  0.00    +0.000 A 
ATOM      6  C   UNL     1      46.596   6.795  13.331  0.00  0.00    +0.000 A 
ENDROOT
BRANCH   4   7
ATOM      7  N   UNL     1      43.514   5.706  11.559  0.00  0.00    +0.000 N 
ATOM      8  H   UNL     1      42.625   6.193  11.615  0.00  0.00    +0.000 HD
BRANCH   7   9
ATOM      9  C   UNL     1      43.712   4.944  10.331  0.00  0.00    +0.000 C 
BRANCH   9  10
ATOM     10  C   UNL     1      45.134   4.370  10.142  0.00  0.00    +0.000 C 
ATOM     11  C   UNL     1      45.849   4.754   8.831  0.00  0.00    +0.000 C 
ATOM     12  C   UNL     1      45.605   3.801   7.656  0.00  0.00    +0.000 C 
ATOM     13  N   UNL     1      45.749   2.408   8.067  0.00  0.00    +0.000 N 
ATOM     14  C   UNL     1      46.615   1.459   7.554  0.00  0.00    +0.000 C 
ATOM     15  C   UNL     1      47.565   1.814   6.437  0.00  0.00    +0.000 C 
ATOM     16  O   UNL     1      46.648   0.302   7.987  0.00  0.00    +0.000 OA
ATOM     17  C   UNL     1      44.879   2.024   9.179  0.00  0.00    +0.000 C 
ATOM     18  C   UNL     1      45.217   2.858  10.407  0.00  0.00    +0.000 C 
ENDBRANCH   9  10
ENDBRANCH   7   9
ENDBRANCH   4   7
BRANCH   1  19
ATOM     19  C   UNL     1      47.851   8.994  13.489  0.00  0.00    +0.000 C 
BRANCH  19  22
ATOM     20  C   UNL     1      49.062   8.124  15.457  0.00  0.00    +0.000 C 
ATOM     21  O   UNL     1      48.337   8.750  16.223  0.00  0.00    +0.000 OA
ATOM     22  N   UNL     1      48.888   8.193  14.098  0.00  0.00    +0.000 N 
ATOM     23  H   UNL     1      49.538   7.727  13.481  0.00  0.00    +0.000 HD
BRANCH  20  31
ATOM     24  C   UNL     1      49.147   5.082  17.069  0.00  0.00    +0.000 A 
ATOM     25  N   UNL     1      49.461   3.923  17.686  0.00  0.00    +0.000 NA
ATOM     26  C   UNL     1      50.746   3.657  17.901  0.00  0.00    +0.000 A 
ATOM     27  N   UNL     1      51.786   4.415  17.572  0.00  0.00    +0.000 NA
ATOM     28  C   UNL     1      51.432   5.553  16.944  0.00  0.00    +0.000 A 
ATOM     29  S   UNL     1      52.632   6.644  16.449  0.00  0.00    +0.000 S 
ATOM     30  C   UNL     1      51.469   7.712  15.815  0.00  0.00    +0.000 A 
ATOM     31  C   UNL     1      50.157   7.271  15.963  0.00  0.00    +0.000 A 
ATOM     32  C   UNL     1      50.142   5.974  16.640  0.00  0.00    +0.000 A 
BRANCH  24  34
ATOM     33  C   UNL     1      47.225   4.372  15.973  0.00  0.00    +0.000 C 
ATOM     34  O   UNL     1      47.811   5.337  16.844  0.00  0.00    +0.000 OA
ENDBRANCH  24  34
ENDBRANCH  20  31
ENDBRANCH  19  22
ENDBRANCH   1  19
TORSDOF 7
ENDMDL
MODEL 4
REMARK VINA RESULT:    -7.801      3.306      7.562
REMARK INTER + INTRA:         -11.425
REMARK INTER:                  -9.923
REMARK INTRA:                  -1.502
REMARK UNBOUND:                -0.432
REMARK  Name = 
REMARK  9 active torsions:
REMARK  status: ('A' for Active; 'I' for Inactive)
REMARK    1  A    between atoms: C_1  and  O_2
REMARK    2  A    between atoms: O_2  and  C_3
REMARK    3  A    between atoms: C_10  and  C_11
REMARK    4  A    between atoms: N_13  and  C_14
REMARK    5  A    between atoms: C_14  and  C_15
REMARK    6  A    between atoms: C_18  and  N_19
REMARK    7  A    between atoms: N_19  and  C_20
REMARK    8  A    between atoms: C_20  and  C_21
REMARK    9  A    between atoms: C_25  and  C_26
REMARK                            x       y       z     vdW  Elec       q    Type
REMARK                         _______ _______ _______ _____ _____    ______ ____
ROOT
ATOM      1  C   UNL     1      48.557   7.944  13.447  0.00  0.00    +0.000 A 
ATOM      2  C   UNL     1      47.782   8.671  14.358  0.00  0.00    +0.000 A 
ATOM      3  C   UNL     1      47.987   8.551  15.743  0.00  0.00    +0.000 A 
ATOM      4  C   UNL     1      48.984   7.721  16.266  0.00  0.00    +0.000 A 
ATOM      5  C   UNL     1      49.744   6.980  15.348  0.00  0.00    +0.000 A 
ATOM      6  C   UNL     1      49.544   7.095  13.961  0.00  0.00    +0.000 A 
ENDROOT
BRANCH   4   7
ATOM      7  N   UNL     1      49.219   7.533  17.639  0.00  0.00    +0.000 N 
ATOM      8  H   UNL     1      49.676   8.357  18.017  0.00  0.00    +0.000 HD
BRANCH   7   9
ATOM      9  C   UNL     1      48.160   6.988  18.482  0.00  0.00    +0.000 C 
BRANCH   9  10
ATOM     10  C   UNL     1      48.347   5.510  18.890  0.00  0.00    +0.000 C 
ATOM     11  C   UNL     1      49.797   5.064  19.168  0.00  0.00    +0.000 C 
ATOM     12  C   UNL     1      50.558   4.537  17.947  0.00  0.00    +0.000 C 
ATOM     13  N   UNL     1      49.745   3.597  17.182  0.00  0.00    +0.000 N 
ATOM     14  C   UNL     1      50.039   2.280  16.872  0.00  0.00    +0.000 C 
ATOM     15  C   UNL     1      51.330   1.654  17.339  0.00  0.00    +0.000 C 
ATOM     16  O   UNL     1      49.266   1.576  16.214  0.00  0.00    +0.000 OA
ATOM     17  C   UNL     1      48.461   4.143  16.743  0.00  0.00    +0.000 C 
ATOM     18  C   UNL     1      47.624   4.527  17.955  0.00  0.00    +0.000 C 
ENDBRANCH   9  10
ENDBRANCH   7   9
ENDBRANCH   4   7
BRANCH   1  19
ATOM     19  C   UNL     1      48.344   8.089  11.959  0.00  0.00    +0.000 C 
BRANCH  19  22
ATOM     20  C   UNL     1      46.256   6.960  11.275  0.00  0.00    +0.000 C 
ATOM     21  O   UNL     1      45.581   7.924  11.623  0.00  0.00    +0.000 OA
ATOM     22  N   UNL     1      47.622   6.964  11.409  0.00  0.00    +0.000 N 
ATOM     23  H   UNL     1      48.153   6.136  11.184  0.00  0.00    +0.000 HD
BRANCH  20  31
ATOM     24  C   UNL     1      44.469   4.346  12.627  0.00  0.00    +0.000 A 
ATOM     25  N   UNL     1      43.748   3.234  12.888  0.00  0.00    +0.000 NA
ATOM     26  C   UNL     1      43.447   2.431  11.872  0.00  0.00    +0.000 A 
ATOM     27  N   UNL     1      43.777   2.597  10.595  0.00  0.00    +0.000 NA
ATOM     28  C   UNL     1      44.479   3.725  10.374  0.00  0.00    +0.000 A 
ATOM     29  S   UNL     1      44.986   4.100   8.800  0.00  0.00    +0.000 S 
ATOM     30  C   UNL     1      45.741   5.529   9.331  0.00  0.00    +0.000 A 
ATOM     31  C   UNL     1      45.629   5.752  10.701  0.00  0.00    +0.000 A 
ATOM     32  C   UNL     1      44.869   4.667  11.321  0.00  0.00    +0.000 A 
BRANCH  24  34
ATOM     33  C   UNL     1      46.089   4.965  14.174  0.00  0.00    +0.000 C 
ATOM     34  O   UNL     1      44.763   5.171  13.690  0.00  0.00    +0.000 OA
ENDBRANCH  24  34
ENDBRANCH  20  31
ENDBRANCH  19  22
ENDBRANCH   1  19
TORSDOF 7
ENDMDL
MODEL 5
REMARK VINA RESULT:    -7.656      5.084      9.466
REMARK INTER + INTRA:         -11.220
REMARK INTER:                 -10.132
REMARK INTRA:                  -1.088
REMARK UNBOUND:                -0.432
REMARK  Name = 
REMARK  9 active torsions:
REMARK  status: ('A' for Active; 'I' for Inactive)
REMARK    1  A    between atoms: C_1  and  O_2
REMARK    2  A    between atoms: O_2  and  C_3
REMARK    3  A    between atoms: C_10  and  C_11
REMARK    4  A    between atoms: N_13  and  C_14
REMARK    5  A    between atoms: C_14  and  C_15
REMARK    6  A    between atoms: C_18  and  N_19
REMARK    7  A    between atoms: N_19  and  C_20
REMARK    8  A    between atoms: C_20  and  C_21
REMARK    9  A    between atoms: C_25  and  C_26
REMARK                            x       y       z     vdW  Elec       q    Type
REMARK                         _______ _______ _______ _____ _____    ______ ____
ROOT
ATOM      1  C   UNL     1      48.925   3.295  17.212  0.00  0.00    +0.000 A 
ATOM      2  C   UNL     1      49.556   4.479  17.610  0.00  0.00    +0.000 A 
ATOM      3  C   UNL     1      50.936   4.511  17.875  0.00  0.00    +0.000 A 
ATOM      4  C   UNL     1      51.735   3.373  17.732  0.00  0.00    +0.000 A 
ATOM      5  C   UNL     1      51.093   2.185  17.352  0.00  0.00    +0.000 A 
ATOM      6  C   UNL     1      49.713   2.145  17.085  0.00  0.00    +0.000 A 
ENDROOT
BRANCH   4   7
ATOM      7  N   UNL     1      53.113   3.332  18.012  0.00  0.00    +0.000 N 
ATOM      8  H   UNL     1      53.448   4.274  18.186  0.00  0.00    +0.000 HD
BRANCH   7   9
ATOM      9  C   UNL     1      53.630   2.324  18.931  0.00  0.00    +0.000 C 
BRANCH   9  10
ATOM     10  C   UNL     1      54.867   1.551  18.424  0.00  0.00    +0.000 C 
ATOM     11  C   UNL     1      54.907   1.260  16.910  0.00  0.00    +0.000 C 
ATOM     12  C   UNL     1      54.252  -0.059  16.486  0.00  0.00    +0.000 C 
ATOM     13  N   UNL     1      54.668  -1.158  17.351  0.00  0.00    +0.000 N 
ATOM     14  C   UNL     1      55.295  -2.335  16.981  0.00  0.00    +0.000 C 
ATOM     15  C   UNL     1      55.633  -2.601  15.535  0.00  0.00    +0.000 C 
ATOM     16  O   UNL     1      55.603  -3.199  17.809  0.00  0.00    +0.000 OA
ATOM     17  C   UNL     1      54.402  -0.930  18.771  0.00  0.00    +0.000 C 
ATOM     18  C   UNL     1      55.175   0.291  19.248  0.00  0.00    +0.000 C 
ENDBRANCH   9  10
ENDBRANCH   7   9
ENDBRANCH   4   7
BRANCH   1  19
ATOM     19  C   UNL     1      47.445   3.269  16.912  0.00  0.00    +0.000 C 
BRANCH  19  22
ATOM     20  C   UNL     1      47.060   4.143  14.634  0.00  0.00    +0.000 C 
ATOM     21  O   UNL     1      47.381   3.071  14.131  0.00  0.00    +0.000 OA
ATOM     22  N   UNL     1      47.067   4.321  15.995  0.00  0.00    +0.000 N 
ATOM     23  H   UNL     1      46.868   5.230  16.387  0.00  0.00    +0.000 HD
BRANCH  20  31
ATOM     24  C   UNL     1      44.294   4.805  12.693  0.00  0.00    +0.000 A 
ATOM     25  N   UNL     1      43.337   5.313  11.887  0.00  0.00    +0.000 NA
ATOM     26  C   UNL     1      43.538   6.517  11.360  0.00  0.00    +0.000 A 
ATOM     27  N   UNL     1      44.596   7.302  11.537  0.00  0.00    +0.000 NA
ATOM     28  C   UNL     1      45.518   6.767  12.359  0.00  0.00    +0.000 A 
ATOM     29  S   UNL     1      46.936   7.631  12.700  0.00  0.00    +0.000 S 
ATOM     30  C   UNL     1      47.515   6.382  13.700  0.00  0.00    +0.000 A 
ATOM     31  C   UNL     1      46.655   5.292  13.798  0.00  0.00    +0.000 A 
ATOM     32  C   UNL     1      45.458   5.530  12.992  0.00  0.00    +0.000 A 
BRANCH  24  34
ATOM     33  C   UNL     1      43.520   2.652  12.284  0.00  0.00    +0.000 C 
ATOM     34  O   UNL     1      44.064   3.560  13.239  0.00  0.00    +0.000 OA
ENDBRANCH  24  34
ENDBRANCH  20  31
ENDBRANCH  19  22
ENDBRANCH   1  19
TORSDOF 7
ENDMDL
MODEL 6
REMARK VINA RESULT:    -7.516      1.737      2.442
REMARK INTER + INTRA:         -11.023
REMARK INTER:                  -9.510
REMARK INTRA:                  -1.514
REMARK UNBOUND:                -0.432
REMARK  Name = 
REMARK  9 active torsions:
REMARK  status: ('A' for Active; 'I' for Inactive)
REMARK    1  A    between atoms: C_1  and  O_2
REMARK    2  A    between atoms: O_2  and  C_3
REMARK    3  A    between atoms: C_10  and  C_11
REMARK    4  A    between atoms: N_13  and  C_14
REMARK    5  A    between atoms: C_14  and  C_15
REMARK    6  A    between atoms: C_18  and  N_19
REMARK    7  A    between atoms: N_19  and  C_20
REMARK    8  A    between atoms: C_20  and  C_21
REMARK    9  A    between atoms: C_25  and  C_26
REMARK                            x       y       z     vdW  Elec       q    Type
REMARK                         _______ _______ _______ _____ _____    ______ ____
ROOT
ATOM      1  C   UNL     1      47.964   7.190  13.485  0.00  0.00    +0.000 A 
ATOM      2  C   UNL     1      47.128   8.271  13.185  0.00  0.00    +0.000 A 
ATOM      3  C   UNL     1      45.768   8.077  12.893  0.00  0.00    +0.000 A 
ATOM      4  C   UNL     1      45.189   6.804  12.912  0.00  0.00    +0.000 A 
ATOM      5  C   UNL     1      46.037   5.722  13.194  0.00  0.00    +0.000 A 
ATOM      6  C   UNL     1      47.399   5.909  13.488  0.00  0.00    +0.000 A 
ENDROOT
BRANCH   4   7
ATOM      7  N   UNL     1      43.844   6.540  12.599  0.00  0.00    +0.000 N 
ATOM      8  H   UNL     1      43.635   6.909  11.677  0.00  0.00    +0.000 HD
BRANCH   7   9
ATOM      9  C   UNL     1      43.293   5.214  12.860  0.00  0.00    +0.000 C 
BRANCH   9  10
ATOM     10  C   UNL     1      42.973   4.381  11.598  0.00  0.00    +0.000 C 
ATOM     11  C   UNL     1      43.441   2.911  11.623  0.00  0.00    +0.000 C 
ATOM     12  C   UNL     1      44.856   2.672  11.087  0.00  0.00    +0.000 C 
ATOM     13  N   UNL     1      45.072   3.381   9.830  0.00  0.00    +0.000 N 
ATOM     14  C   UNL     1      45.434   2.844   8.606  0.00  0.00    +0.000 C 
ATOM     15  C   UNL     1      45.650   1.359   8.456  0.00  0.00    +0.000 C 
ATOM     16  O   UNL     1      45.586   3.550   7.603  0.00  0.00    +0.000 OA
ATOM     17  C   UNL     1      44.831   4.822   9.911  0.00  0.00    +0.000 C 
ATOM     18  C   UNL     1      43.380   5.079  10.292  0.00  0.00    +0.000 C 
ENDBRANCH   9  10
ENDBRANCH   7   9
ENDBRANCH   4   7
BRANCH   1  19
ATOM     19  C   UNL     1      49.422   7.405  13.815  0.00  0.00    +0.000 C 
BRANCH  19  22
ATOM     20  C   UNL     1      49.635   7.997  16.203  0.00  0.00    +0.000 C 
ATOM     21  O   UNL     1      49.312   9.159  15.979  0.00  0.00    +0.000 OA
ATOM     22  N   UNL     1      49.714   7.073  15.192  0.00  0.00    +0.000 N 
ATOM     23  H   UNL     1      50.050   6.141  15.384  0.00  0.00    +0.000 HD
BRANCH  20  31
ATOM     24  C   UNL     1      48.629   5.307  18.104  0.00  0.00    +0.000 A 
ATOM     25  N   UNL     1      48.414   4.358  19.041  0.00  0.00    +0.000 NA
ATOM     26  C   UNL     1      49.038   4.480  20.209  0.00  0.00    +0.000 A 
ATOM     27  N   UNL     1      49.873   5.448  20.573  0.00  0.00    +0.000 NA
ATOM     28  C   UNL     1      50.074   6.363  19.606  0.00  0.00    +0.000 A 
ATOM     29  S   UNL     1      51.112   7.672  19.896  0.00  0.00    +0.000 S 
ATOM     30  C   UNL     1      50.835   8.300  18.339  0.00  0.00    +0.000 A 
ATOM     31  C   UNL     1      49.957   7.540  17.571  0.00  0.00    +0.000 A 
ATOM     32  C   UNL     1      49.505   6.378  18.336  0.00  0.00    +0.000 A 
BRANCH  24  34
ATOM     33  C   UNL     1      47.137   4.011  16.881  0.00  0.00    +0.000 C 
ATOM     34  O   UNL     1      47.982   5.160  16.896  0.00  0.00    +0.000 OA
ENDBRANCH  24  34
ENDBRANCH  20  31
ENDBRANCH  19  22
ENDBRANCH   1  19
TORSDOF 7
ENDMDL
MODEL 7
REMARK VINA RESULT:    -7.309      2.386      3.171
REMARK INTER + INTRA:         -10.731
REMARK INTER:                  -9.352
REMARK INTRA:                  -1.379
REMARK UNBOUND:                -0.432
REMARK  Name = 
REMARK  9 active torsions:
REMARK  status: ('A' for Active; 'I' for Inactive)
REMARK    1  A    between atoms: C_1  and  O_2
REMARK    2  A    between atoms: O_2  and  C_3
REMARK    3  A    between atoms: C_10  and  C_11
REMARK    4  A    between atoms: N_13  and  C_14
REMARK    5  A    between atoms: C_14  and  C_15
REMARK    6  A    between atoms: C_18  and  N_19
REMARK    7  A    between atoms: N_19  and  C_20
REMARK    8  A    between atoms: C_20  and  C_21
REMARK    9  A    between atoms: C_25  and  C_26
REMARK                            x       y       z     vdW  Elec       q    Type
REMARK                         _______ _______ _______ _____ _____    ______ ____
ROOT
ATOM      1  C   UNL     1      47.853   7.073  13.119  0.00  0.00    +0.000 A 
ATOM      2  C   UNL     1      46.594   7.586  12.786  0.00  0.00    +0.000 A 
ATOM      3  C   UNL     1      45.434   6.803  12.918  0.00  0.00    +0.000 A 
ATOM      4  C   UNL     1      45.486   5.495  13.408  0.00  0.00    +0.000 A 
ATOM      5  C   UNL     1      46.754   4.980  13.722  0.00  0.00    +0.000 A 
ATOM      6  C   UNL     1      47.918   5.757  13.592  0.00  0.00    +0.000 A 
ENDROOT
BRANCH   4   7
ATOM      7  N   UNL     1      44.369   4.650  13.535  0.00  0.00    +0.000 N 
ATOM      8  H   UNL     1      44.248   4.398  14.511  0.00  0.00    +0.000 HD
BRANCH   7   9
ATOM      9  C   UNL     1      43.132   4.986  12.838  0.00  0.00    +0.000 C 
BRANCH   9  10
ATOM     10  C   UNL     1      42.932   4.271  11.483  0.00  0.00    +0.000 C 
ATOM     11  C   UNL     1      43.490   2.836  11.388  0.00  0.00    +0.000 C 
ATOM     12  C   UNL     1      44.943   2.737  10.914  0.00  0.00    +0.000 C 
ATOM     13  N   UNL     1      45.179   3.583   9.749  0.00  0.00    +0.000 N 
ATOM     14  C   UNL     1      45.637   3.197   8.501  0.00  0.00    +0.000 C 
ATOM     15  C   UNL     1      45.955   1.750   8.215  0.00  0.00    +0.000 C 
ATOM     16  O   UNL     1      45.796   4.011   7.584  0.00  0.00    +0.000 OA
ATOM     17  C   UNL     1      44.843   4.991   9.960  0.00  0.00    +0.000 C 
ATOM     18  C   UNL     1      43.360   5.124  10.279  0.00  0.00    +0.000 C 
ENDBRANCH   9  10
ENDBRANCH   7   9
ENDBRANCH   4   7
BRANCH   1  19
ATOM     19  C   UNL     1      49.095   7.924  12.991  0.00  0.00    +0.000 C 
BRANCH  19  22
ATOM     20  C   UNL     1      50.447   7.868  15.057  0.00  0.00    +0.000 C 
ATOM     21  O   UNL     1      49.765   8.752  15.568  0.00  0.00    +0.000 OA
ATOM     22  N   UNL     1      50.182   7.407  13.793  0.00  0.00    +0.000 N 
ATOM     23  H   UNL     1      50.796   6.731  13.362  0.00  0.00    +0.000 HD
BRANCH  20  31
ATOM     24  C   UNL     1      50.762   5.125  17.115  0.00  0.00    +0.000 A 
ATOM     25  N   UNL     1      51.160   4.121  17.926  0.00  0.00    +0.000 NA
ATOM     26  C   UNL     1      52.438   4.079  18.289  0.00  0.00    +0.000 A 
ATOM     27  N   UNL     1      53.398   4.930  17.939  0.00  0.00    +0.000 NA
ATOM     28  C   UNL     1      52.965   5.905  17.117  0.00  0.00    +0.000 A 
ATOM     29  S   UNL     1      54.055   7.081  16.567  0.00  0.00    +0.000 S 
ATOM     30  C   UNL     1      52.835   7.868  15.680  0.00  0.00    +0.000 A 
ATOM     31  C   UNL     1      51.585   7.264  15.780  0.00  0.00    +0.000 A 
ATOM     32  C   UNL     1      51.670   6.085  16.642  0.00  0.00    +0.000 A 
BRANCH  24  34
ATOM     33  C   UNL     1      48.627   5.844  17.685  0.00  0.00    +0.000 C 
ATOM     34  O   UNL     1      49.436   5.147  16.740  0.00  0.00    +0.000 OA
ENDBRANCH  24  34
ENDBRANCH  20  31
ENDBRANCH  19  22
ENDBRANCH   1  19
TORSDOF 7
ENDMDL
MODEL 8
REMARK VINA RESULT:    -7.295      1.982      3.113
REMARK INTER + INTRA:         -10.713
REMARK INTER:                 -10.029
REMARK INTRA:                  -0.684
REMARK UNBOUND:                -0.432
REMARK  Name = 
REMARK  9 active torsions:
REMARK  status: ('A' for Active; 'I' for Inactive)
REMARK    1  A    between atoms: C_1  and  O_2
REMARK    2  A    between atoms: O_2  and  C_3
REMARK    3  A    between atoms: C_10  and  C_11
REMARK    4  A    between atoms: N_13  and  C_14
REMARK    5  A    between atoms: C_14  and  C_15
REMARK    6  A    between atoms: C_18  and  N_19
REMARK    7  A    between atoms: N_19  and  C_20
REMARK    8  A    between atoms: C_20  and  C_21
REMARK    9  A    between atoms: C_25  and  C_26
REMARK                            x       y       z     vdW  Elec       q    Type
REMARK                         _______ _______ _______ _____ _____    ______ ____
ROOT
ATOM      1  C   UNL     1      46.864   8.240  13.039  0.00  0.00    +0.000 A 
ATOM      2  C   UNL     1      46.527   6.906  13.296  0.00  0.00    +0.000 A 
ATOM      3  C   UNL     1      45.440   6.296  12.649  0.00  0.00    +0.000 A 
ATOM      4  C   UNL     1      44.666   6.984  11.710  0.00  0.00    +0.000 A 
ATOM      5  C   UNL     1      44.997   8.327  11.471  0.00  0.00    +0.000 A 
ATOM      6  C   UNL     1      46.084   8.945  12.115  0.00  0.00    +0.000 A 
ENDROOT
BRANCH   4   7
ATOM      7  N   UNL     1      43.548   6.441  11.052  0.00  0.00    +0.000 N 
ATOM      8  H   UNL     1      43.229   7.092  10.341  0.00  0.00    +0.000 HD
BRANCH   7   9
ATOM      9  C   UNL     1      43.571   5.045  10.629  0.00  0.00    +0.000 C 
BRANCH   9  10
ATOM     10  C   UNL     1      44.981   4.445  10.435  0.00  0.00    +0.000 C 
ATOM     11  C   UNL     1      45.727   4.875   9.155  0.00  0.00    +0.000 C 
ATOM     12  C   UNL     1      45.480   3.987   7.932  0.00  0.00    +0.000 C 
ATOM     13  N   UNL     1      45.582   2.572   8.276  0.00  0.00    +0.000 N 
ATOM     14  C   UNL     1      46.434   1.628   7.730  0.00  0.00    +0.000 C 
ATOM     15  C   UNL     1      47.411   2.013   6.647  0.00  0.00    +0.000 C 
ATOM     16  O   UNL     1      46.431   0.451   8.107  0.00  0.00    +0.000 OA
ATOM     17  C   UNL     1      44.685   2.157   9.353  0.00  0.00    +0.000 C 
ATOM     18  C   UNL     1      45.023   2.921  10.626  0.00  0.00    +0.000 C 
ENDBRANCH   9  10
ENDBRANCH   7   9
ENDBRANCH   4   7
BRANCH   1  19
ATOM     19  C   UNL     1      48.045   8.887  13.724  0.00  0.00    +0.000 C 
BRANCH  19  22
ATOM     20  C   UNL     1      48.775   7.930  15.880  0.00  0.00    +0.000 C 
ATOM     21  O   UNL     1      48.111   8.748  16.508  0.00  0.00    +0.000 OA
ATOM     22  N   UNL     1      48.796   7.934  14.509  0.00  0.00    +0.000 N 
ATOM     23  H   UNL     1      49.404   7.299  14.011  0.00  0.00    +0.000 HD
BRANCH  20  31
ATOM     24  C   UNL     1      52.118   7.105  15.811  0.00  0.00    +0.000 A 
ATOM     25  N   UNL     1      53.355   6.591  15.980  0.00  0.00    +0.000 NA
ATOM     26  C   UNL     1      53.499   5.568  16.817  0.00  0.00    +0.000 A 
ATOM     27  N   UNL     1      52.544   4.976  17.528  0.00  0.00    +0.000 NA
ATOM     28  C   UNL     1      51.330   5.528  17.345  0.00  0.00    +0.000 A 
ATOM     29  S   UNL     1      49.991   4.900  18.174  0.00  0.00    +0.000 S 
ATOM     30  C   UNL     1      48.949   6.035  17.452  0.00  0.00    +0.000 A 
ATOM     31  C   UNL     1      49.585   6.907  16.573  0.00  0.00    +0.000 A 
ATOM     32  C   UNL     1      51.014   6.599  16.515  0.00  0.00    +0.000 A 
BRANCH  24  34
ATOM     33  C   UNL     1      53.227   8.499  14.318  0.00  0.00    +0.000 C 
ATOM     34  O   UNL     1      51.990   8.172  14.948  0.00  0.00    +0.000 OA
ENDBRANCH  24  34
ENDBRANCH  20  31
ENDBRANCH  19  22
ENDBRANCH   1  19
TORSDOF 7
ENDMDL
MODEL 9
REMARK VINA RESULT:    -7.001      3.076      4.949
REMARK INTER + INTRA:         -10.297
REMARK INTER:                  -9.067
REMARK INTRA:                  -1.230
REMARK UNBOUND:                -0.432
REMARK  Name = 
REMARK  9 active torsions:
REMARK  status: ('A' for Active; 'I' for Inactive)
REMARK    1  A    between atoms: C_1  and  O_2
REMARK    2  A    between atoms: O_2  and  C_3
REMARK    3  A    between atoms: C_10  and  C_11
REMARK    4  A    between atoms: N_13  and  C_14
REMARK    5  A    between atoms: C_14  and  C_15
REMARK    6  A    between atoms: C_18  and  N_19
REMARK    7  A    between atoms: N_19  and  C_20
REMARK    8  A    between atoms: C_20  and  C_21
REMARK    9  A    between atoms: C_25  and  C_26
REMARK                            x       y       z     vdW  Elec       q    Type
REMARK                         _______ _______ _______ _____ _____    ______ ____
ROOT
ATOM      1  C   UNL     1      46.819   6.459  13.603  0.00  0.00    +0.000 A 
ATOM      2  C   UNL     1      46.451   7.399  12.633  0.00  0.00    +0.000 A 
ATOM      3  C   UNL     1      45.380   7.154  11.757  0.00  0.00    +0.000 A 
ATOM      4  C   UNL     1      44.627   5.978  11.832  0.00  0.00    +0.000 A 
ATOM      5  C   UNL     1      45.014   5.032  12.794  0.00  0.00    +0.000 A 
ATOM      6  C   UNL     1      46.085   5.270  13.674  0.00  0.00    +0.000 A 
ENDROOT
BRANCH   4   7
ATOM      7  N   UNL     1      43.566   5.659  10.966  0.00  0.00    +0.000 N 
ATOM      8  H   UNL     1      43.131   6.516  10.640  0.00  0.00    +0.000 HD
BRANCH   7   9
ATOM      9  C   UNL     1      43.760   4.646   9.934  0.00  0.00    +0.000 C 
BRANCH   9  10
ATOM     10  C   UNL     1      45.213   4.146   9.775  0.00  0.00    +0.000 C 
ATOM     11  C   UNL     1      45.933   4.565   8.478  0.00  0.00    +0.000 C 
ATOM     12  C   UNL     1      45.763   3.598   7.301  0.00  0.00    +0.000 C 
ATOM     13  N   UNL     1      45.970   2.215   7.719  0.00  0.00    +0.000 N 
ATOM     14  C   UNL     1      46.895   1.311   7.225  0.00  0.00    +0.000 C 
ATOM     15  C   UNL     1      47.848   1.713   6.127  0.00  0.00    +0.000 C 
ATOM     16  O   UNL     1      46.978   0.158   7.663  0.00  0.00    +0.000 OA
ATOM     17  C   UNL     1      45.099   1.789   8.813  0.00  0.00    +0.000 C 
ATOM     18  C   UNL     1      45.369   2.641  10.046  0.00  0.00    +0.000 C 
ENDBRANCH   9  10
ENDBRANCH   7   9
ENDBRANCH   4   7
BRANCH   1  19
ATOM     19  C   UNL     1      47.960   6.735  14.555  0.00  0.00    +0.000 C 
BRANCH  19  22
ATOM     20  C   UNL     1      50.091   7.983  14.536  0.00  0.00    +0.000 C 
ATOM     21  O   UNL     1      50.051   8.136  15.753  0.00  0.00    +0.000 OA
ATOM     22  N   UNL     1      49.099   7.306  13.872  0.00  0.00    +0.000 N 
ATOM     23  H   UNL     1      49.112   7.251  12.864  0.00  0.00    +0.000 HD
BRANCH  20  31
ATOM     24  C   UNL     1      50.242   9.859  11.652  0.00  0.00    +0.000 A 
ATOM     25  N   UNL     1      50.580  10.584  10.564  0.00  0.00    +0.000 NA
ATOM     26  C   UNL     1      51.873  10.761  10.308  0.00  0.00    +0.000 A 
ATOM     27  N   UNL     1      52.900  10.298  11.015  0.00  0.00    +0.000 NA
ATOM     28  C   UNL     1      52.520   9.597  12.100  0.00  0.00    +0.000 A 
ATOM     29  S   UNL     1      53.699   8.931  13.120  0.00  0.00    +0.000 S 
ATOM     30  C   UNL     1      52.511   8.261  14.138  0.00  0.00    +0.000 A 
ATOM     31  C   UNL     1      51.206   8.524  13.731  0.00  0.00    +0.000 A 
ATOM     32  C   UNL     1      51.218   9.327  12.509  0.00  0.00    +0.000 A 
BRANCH  24  34
ATOM     33  C   UNL     1      48.318  10.864  12.481  0.00  0.00    +0.000 C 
ATOM     34  O   UNL     1      48.898   9.695  11.908  0.00  0.00    +0.000 OA
ENDBRANCH  24  34
ENDBRANCH  20  31
ENDBRANCH  19  22
ENDBRANCH   1  19
TORSDOF 7
ENDMDL
