MODEL 1
REMARK VINA RESULT:    -8.011      0.000      0.000
REMARK INTER + INTRA:         -11.103
REMARK INTER:                 -10.587
REMARK INTRA:                  -0.516
REMARK UNBOUND:                -0.516
REMARK  Name = 
REMARK  6 active torsions:
REMARK  status: ('A' for Active; 'I' for Inactive)
REMARK    1  A    between atoms: N_1  and  C_2
REMARK    2  A    between atoms: C_2  and  C_3
REMARK    3  A    between atoms: C_3  and  C_4
REMARK    4  A    between atoms: C_7  and  C_8
REMARK    5  A    between atoms: C_8  and  N_9
REMARK    6  A    between atoms: C_15  and  C_16
REMARK                            x       y       z     vdW  Elec       q    Type
REMARK                         _______ _______ _______ _____ _____    ______ ____
ROOT
ATOM      1  N   UNL     1      44.686   4.835  11.803  0.00  0.00    +0.000 N 
ATOM      2  C   UNL     1      44.393   4.131  12.940  0.00  0.00    +0.000 A 
ATOM      3  N   UNL     1      45.251   4.381  13.908  0.00  0.00    +0.000 NA
ATOM      4  C   UNL     1      46.138   5.287  13.373  0.00  0.00    +0.000 A 
ATOM      5  C   UNL     1      47.292   5.892  13.891  0.00  0.00    +0.000 A 
ATOM      6  F   UNL     1      47.705   5.598  15.135  0.00  0.00    +0.000 F 
ATOM      7  C   UNL     1      48.000   6.777  13.082  0.00  0.00    +0.000 A 
ATOM      8  C   UNL     1      47.506   7.034  11.802  0.00  0.00    +0.000 A 
ATOM      9  N   UNL     1      46.392   6.484  11.244  0.00  0.00    +0.000 NA
ATOM     10  C   UNL     1      45.779   5.615  12.070  0.00  0.00    +0.000 A 
ENDROOT
BRANCH   7  11
ATOM     11  C   UNL     1      49.254   7.438  13.499  0.00  0.00    +0.000 C 
ATOM     12  N   UNL     1      50.325   7.393  12.656  0.00  0.00    +0.000 N 
ATOM     13  O   UNL     1      49.331   8.020  14.576  0.00  0.00    +0.000 OA
ATOM     14  H   UNL     1      50.305   6.936  11.751  0.00  0.00    +0.000 HD
ATOM     15  H   UNL     1      51.175   7.864  12.937  0.00  0.00    +0.000 HD
ENDBRANCH   7  11
BRANCH   1  16
ATOM     16  C   UNL     1      43.964   4.763  10.547  0.00  0.00    +0.000 C 
BRANCH  16  20
ATOM     17  C   UNL     1      46.141   2.297   7.727  0.00  0.00    +0.000 A 
ATOM     18  C   UNL     1      45.376   1.706   8.740  0.00  0.00    +0.000 A 
ATOM     19  C   UNL     1      44.657   2.496   9.642  0.00  0.00    +0.000 A 
ATOM     20  C   UNL     1      44.685   3.895   9.545  0.00  0.00    +0.000 A 
ATOM     21  C   UNL     1      45.431   4.481   8.515  0.00  0.00    +0.000 A 
ATOM     22  C   UNL     1      46.147   3.693   7.611  0.00  0.00    +0.000 A 
BRANCH  17  23
ATOM     23  C   UNL     1      46.953   1.449   6.779  0.00  0.00    +0.000 C 
BRANCH  23  24
ATOM     24  C   UNL     1      48.276   2.113   6.387  0.00  0.00    +0.000 C 
BRANCH  24  25
ATOM     25  N   UNL     1      48.261   2.521   4.981  0.00  0.00    +0.000 NA
ATOM     26  H   UNL     1      48.855   1.892   4.442  0.00  0.00    +0.000 HD
ATOM     27  H   UNL     1      48.668   3.450   4.886  0.00  0.00    +0.000 HD
ENDBRANCH  24  25
ENDBRANCH  23  24
ENDBRANCH  17  23
ENDBRANCH  16  20
ENDBRANCH   1  16
TORSDOF 6
ENDMDL
MODEL 2
REMARK VINA RESULT:    -7.835      3.178      6.668
REMARK INTER + INTRA:         -10.870
REMARK INTER:                 -10.493
REMARK INTRA:                  -0.377
REMARK UNBOUND:                -0.516
REMARK  Name = 
REMARK  6 active torsions:
REMARK  status: ('A' for Active; 'I' for Inactive)
REMARK    1  A    between atoms: N_1  and  C_2
REMARK    2  A    between atoms: C_2  and  C_3
REMARK    3  A    between atoms: C_3  and  C_4
REMARK    4  A    between atoms: C_7  and  C_8
REMARK    5  A    between atoms: C_8  and  N_9
REMARK    6  A    between atoms: C_15  and  C_16
REMARK                            x       y       z     vdW  Elec       q    Type
REMARK                         _______ _______ _______ _____ _____    ______ ____
ROOT
ATOM      1  N   UNL     1      43.922   4.303  10.441  0.00  0.00    +0.000 N 
ATOM      2  C   UNL     1      43.470   3.120  10.962  0.00  0.00    +0.000 A 
ATOM      3  N   UNL     1      44.018   2.080  10.368  0.00  0.00    +0.000 NA
ATOM      4  C   UNL     1      44.863   2.613   9.423  0.00  0.00    +0.000 A 
ATOM      5  C   UNL     1      45.683   2.020   8.453  0.00  0.00    +0.000 A 
ATOM      6  F   UNL     1      45.723   0.682   8.332  0.00  0.00    +0.000 F 
ATOM      7  C   UNL     1      46.428   2.847   7.615  0.00  0.00    +0.000 A 
ATOM      8  C   UNL     1      46.336   4.226   7.804  0.00  0.00    +0.000 A 
ATOM      9  N   UNL     1      45.564   4.862   8.728  0.00  0.00    +0.000 NA
ATOM     10  C   UNL     1      44.848   4.003   9.479  0.00  0.00    +0.000 A 
ENDROOT
BRANCH   7  11
ATOM     11  C   UNL     1      47.289   2.340   6.526  0.00  0.00    +0.000 C 
ATOM     12  N   UNL     1      47.215   2.942   5.304  0.00  0.00    +0.000 N 
ATOM     13  O   UNL     1      48.059   1.405   6.716  0.00  0.00    +0.000 OA
ATOM     14  H   UNL     1      46.604   3.726   5.104  0.00  0.00    +0.000 HD
ATOM     15  H   UNL     1      47.821   2.605   4.568  0.00  0.00    +0.000 HD
ENDBRANCH   7  11
BRANCH   1  16
ATOM     16  C   UNL     1      43.494   5.630  10.842  0.00  0.00    +0.000 C 
BRANCH  16  20
ATOM     17  C   UNL     1      46.610   7.568  13.145  0.00  0.00    +0.000 A 
ATOM     18  C   UNL     1      45.851   8.301  12.225  0.00  0.00    +0.000 A 
ATOM     19  C   UNL     1      44.832   7.686  11.491  0.00  0.00    +0.000 A 
ATOM     20  C   UNL     1      44.549   6.324  11.669  0.00  0.00    +0.000 A 
ATOM     21  C   UNL     1      45.294   5.600  12.608  0.00  0.00    +0.000 A 
ATOM     22  C   UNL     1      46.311   6.215  13.343  0.00  0.00    +0.000 A 
BRANCH  17  23
ATOM     23  C   UNL     1      47.740   8.220  13.906  0.00  0.00    +0.000 C 
BRANCH  23  24
ATOM     24  C   UNL     1      48.839   7.224  14.287  0.00  0.00    +0.000 C 
BRANCH  24  25
ATOM     25  N   UNL     1      49.718   6.952  13.148  0.00  0.00    +0.000 NA
ATOM     26  H   UNL     1      49.398   7.486  12.342  0.00  0.00    +0.000 HD
ATOM     27  H   UNL     1      49.649   5.970  12.886  0.00  0.00    +0.000 HD
ENDBRANCH  24  25
ENDBRANCH  23  24
ENDBRANCH  17  23
ENDBRANCH  16  20
ENDBRANCH   1  16
TORSDOF 6
ENDMDL
MODEL 3
REMARK VINA RESULT:    -7.821      1.557      2.489
REMARK INTER + INTRA:         -10.852
REMARK INTER:                 -10.443
REMARK INTRA:                  -0.409
REMARK UNBOUND:                -0.516
REMARK  Name = 
REMARK  6 active torsions:
REMARK  status: ('A' for Active; 'I' for Inactive)
REMARK    1  A    between atoms: N_1  and  C_2
REMARK    2  A    between atoms: C_2  and  C_3
REMARK    3  A    between atoms: C_3  and  C_4
REMARK    4  A    between atoms: C_7  and  C_8
REMARK    5  A    between atoms: C_8  and  N_9
REMARK    6  A    between atoms: C_15  and  C_16
REMARK                            x       y       z     vdW  Elec       q    Type
REMARK                         _______ _______ _______ _____ _____    ______ ____
ROOT
ATOM      1  N   UNL     1      44.965   5.629  11.459  0.00  0.00    +0.000 N 
ATOM      2  C   UNL     1      45.355   6.938  11.352  0.00  0.00    +0.000 A 
ATOM      3  N   UNL     1      46.206   7.277  12.299  0.00  0.00    +0.000 NA
ATOM      4  C   UNL     1      46.374   6.137  13.051  0.00  0.00    +0.000 A 
ATOM      5  C   UNL     1      47.115   5.878  14.213  0.00  0.00    +0.000 A 
ATOM      6  F   UNL     1      47.827   6.859  14.790  0.00  0.00    +0.000 F 
ATOM      7  C   UNL     1      47.071   4.596  14.757  0.00  0.00    +0.000 A 
ATOM      8  C   UNL     1      46.311   3.629  14.100  0.00  0.00    +0.000 A 
ATOM      9  N   UNL     1      45.576   3.816  12.968  0.00  0.00    +0.000 NA
ATOM     10  C   UNL     1      45.638   5.084  12.519  0.00  0.00    +0.000 A 
ENDROOT
BRANCH   7  11
ATOM     11  C   UNL     1      47.770   4.217  16.004  0.00  0.00    +0.000 C 
ATOM     12  N   UNL     1      47.189   3.289  16.818  0.00  0.00    +0.000 N 
ATOM     13  O   UNL     1      48.851   4.716  16.296  0.00  0.00    +0.000 OA
ATOM     14  H   UNL     1      46.305   2.839  16.610  0.00  0.00    +0.000 HD
ATOM     15  H   UNL     1      47.681   3.017  17.659  0.00  0.00    +0.000 HD
ENDBRANCH   7  11
BRANCH   1  16
ATOM     16  C   UNL     1      44.012   4.952  10.600  0.00  0.00    +0.000 C 
BRANCH  16  20
ATOM     17  C   UNL     1      46.103   2.277   7.909  0.00  0.00    +0.000 A 
ATOM     18  C   UNL     1      45.232   1.766   8.878  0.00  0.00    +0.000 A 
ATOM     19  C   UNL     1      44.540   2.625   9.738  0.00  0.00    +0.000 A 
ATOM     20  C   UNL     1      44.703   4.014   9.641  0.00  0.00    +0.000 A 
ATOM     21  C   UNL     1      45.557   4.523   8.654  0.00  0.00    +0.000 A 
ATOM     22  C   UNL     1      46.247   3.665   7.792  0.00  0.00    +0.000 A 
BRANCH  17  23
ATOM     23  C   UNL     1      46.885   1.351   7.008  0.00  0.00    +0.000 C 
BRANCH  23  24
ATOM     24  C   UNL     1      48.249   1.928   6.619  0.00  0.00    +0.000 C 
BRANCH  24  25
ATOM     25  N   UNL     1      48.383   2.021   5.165  0.00  0.00    +0.000 NA
ATOM     26  H   UNL     1      49.274   2.460   4.937  0.00  0.00    +0.000 HD
ATOM     27  H   UNL     1      47.660   2.632   4.790  0.00  0.00    +0.000 HD
ENDBRANCH  24  25
ENDBRANCH  23  24
ENDBRANCH  17  23
ENDBRANCH  16  20
ENDBRANCH   1  16
TORSDOF 6
ENDMDL
MODEL 4
REMARK VINA RESULT:    -7.607      1.540      1.589
REMARK INTER + INTRA:         -10.570
REMARK INTER:                  -9.999
REMARK INTRA:                  -0.571
REMARK UNBOUND:                -0.516
REMARK  Name = 
REMARK  6 active torsions:
REMARK  status: ('A' for Active; 'I' for Inactive)
REMARK    1  A    between atoms: N_1  and  C_2
REMARK    2  A    between atoms: C_2  and  C_3
REMARK    3  A    between atoms: C_3  and  C_4
REMARK    4  A    between atoms: C_7  and  C_8
REMARK    5  A    between atoms: C_8  and  N_9
REMARK    6  A    between atoms: C_15  and  C_16
REMARK                            x       y       z     vdW  Elec       q    Type
REMARK                         _______ _______ _______ _____ _____    ______ ____
ROOT
ATOM      1  N   UNL     1      45.561   4.842  12.506  0.00  0.00    +0.000 N 
ATOM      2  C   UNL     1      46.283   3.877  13.158  0.00  0.00    +0.000 A 
ATOM      3  N   UNL     1      47.269   4.393  13.863  0.00  0.00    +0.000 NA
ATOM      4  C   UNL     1      47.180   5.751  13.659  0.00  0.00    +0.000 A 
ATOM      5  C   UNL     1      47.971   6.821  14.101  0.00  0.00    +0.000 A 
ATOM      6  F   UNL     1      49.048   6.591  14.869  0.00  0.00    +0.000 F 
ATOM      7  C   UNL     1      47.624   8.111  13.705  0.00  0.00    +0.000 A 
ATOM      8  C   UNL     1      46.490   8.271  12.909  0.00  0.00    +0.000 A 
ATOM      9  N   UNL     1      45.681   7.275  12.452  0.00  0.00    +0.000 NA
ATOM     10  C   UNL     1      46.095   6.056  12.845  0.00  0.00    +0.000 A 
ENDROOT
BRANCH   7  11
ATOM     11  C   UNL     1      48.407   9.312  14.067  0.00  0.00    +0.000 C 
ATOM     12  N   UNL     1      48.201   9.878  15.291  0.00  0.00    +0.000 N 
ATOM     13  O   UNL     1      49.229   9.784  13.290  0.00  0.00    +0.000 OA
ATOM     14  H   UNL     1      47.544   9.514  15.971  0.00  0.00    +0.000 HD
ATOM     15  H   UNL     1      48.754  10.687  15.542  0.00  0.00    +0.000 HD
ENDBRANCH   7  11
BRANCH   1  16
ATOM     16  C   UNL     1      44.437   4.611  11.619  0.00  0.00    +0.000 C 
BRANCH  16  20
ATOM     17  C   UNL     1      45.846   3.001   7.851  0.00  0.00    +0.000 A 
ATOM     18  C   UNL     1      45.165   2.182   8.760  0.00  0.00    +0.000 A 
ATOM     19  C   UNL     1      44.692   2.699   9.970  0.00  0.00    +0.000 A 
ATOM     20  C   UNL     1      44.887   4.050  10.292  0.00  0.00    +0.000 A 
ATOM     21  C   UNL     1      45.546   4.872   9.369  0.00  0.00    +0.000 A 
ATOM     22  C   UNL     1      46.017   4.356   8.159  0.00  0.00    +0.000 A 
BRANCH  17  23
ATOM     23  C   UNL     1      46.396   2.435   6.564  0.00  0.00    +0.000 C 
BRANCH  23  24
ATOM     24  C   UNL     1      47.865   2.020   6.689  0.00  0.00    +0.000 C 
BRANCH  24  25
ATOM     25  N   UNL     1      48.485   1.886   5.370  0.00  0.00    +0.000 NA
ATOM     26  H   UNL     1      47.861   1.363   4.757  0.00  0.00    +0.000 HD
ATOM     27  H   UNL     1      49.339   1.335   5.444  0.00  0.00    +0.000 HD
ENDBRANCH  24  25
ENDBRANCH  23  24
ENDBRANCH  17  23
ENDBRANCH  16  20
ENDBRANCH   1  16
TORSDOF 6
ENDMDL
MODEL 5
REMARK VINA RESULT:    -6.545      4.661      7.855
REMARK INTER + INTRA:          -9.166
REMARK INTER:                  -8.944
REMARK INTRA:                  -0.223
REMARK UNBOUND:                -0.516
REMARK  Name = 
REMARK  6 active torsions:
REMARK  status: ('A' for Active; 'I' for Inactive)
REMARK    1  A    between atoms: N_1  and  C_2
REMARK    2  A    between atoms: C_2  and  C_3
REMARK    3  A    between atoms: C_3  and  C_4
REMARK    4  A    between atoms: C_7  and  C_8
REMARK    5  A    between atoms: C_8  and  N_9
REMARK    6  A    between atoms: C_15  and  C_16
REMARK                            x       y       z     vdW  Elec       q    Type
REMARK                         _______ _______ _______ _____ _____    ______ ____
ROOT
ATOM      1  N   UNL     1      47.392   4.937  15.313  0.00  0.00    +0.000 N 
ATOM      2  C   UNL     1      48.312   5.937  15.141  0.00  0.00    +0.000 A 
ATOM      3  N   UNL     1      48.205   6.506  13.959  0.00  0.00    +0.000 NA
ATOM      4  C   UNL     1      47.169   5.846  13.338  0.00  0.00    +0.000 A 
ATOM      5  C   UNL     1      46.612   5.964  12.057  0.00  0.00    +0.000 A 
ATOM      6  F   UNL     1      47.113   6.855  11.184  0.00  0.00    +0.000 F 
ATOM      7  C   UNL     1      45.555   5.126  11.711  0.00  0.00    +0.000 A 
ATOM      8  C   UNL     1      45.088   4.229  12.672  0.00  0.00    +0.000 A 
ATOM      9  N   UNL     1      45.581   4.070  13.932  0.00  0.00    +0.000 NA
ATOM     10  C   UNL     1      46.621   4.888  14.183  0.00  0.00    +0.000 A 
ENDROOT
BRANCH   7  11
ATOM     11  C   UNL     1      44.920   5.124  10.377  0.00  0.00    +0.000 C 
ATOM     12  N   UNL     1      43.614   5.508  10.277  0.00  0.00    +0.000 N 
ATOM     13  O   UNL     1      45.552   4.793   9.379  0.00  0.00    +0.000 OA
ATOM     14  H   UNL     1      43.057   5.803  11.070  0.00  0.00    +0.000 HD
ATOM     15  H   UNL     1      43.190   5.525   9.359  0.00  0.00    +0.000 HD
ENDBRANCH   7  11
BRANCH   1  16
ATOM     16  C   UNL     1      47.265   4.089  16.483  0.00  0.00    +0.000 C 
BRANCH  16  20
ATOM     17  C   UNL     1      51.165   2.638  17.688  0.00  0.00    +0.000 A 
ATOM     18  C   UNL     1      50.725   3.903  18.094  0.00  0.00    +0.000 A 
ATOM     19  C   UNL     1      49.460   4.370  17.724  0.00  0.00    +0.000 A 
ATOM     20  C   UNL     1      48.608   3.577  16.942  0.00  0.00    +0.000 A 
ATOM     21  C   UNL     1      49.042   2.301  16.558  0.00  0.00    +0.000 A 
ATOM     22  C   UNL     1      50.305   1.833  16.931  0.00  0.00    +0.000 A 
BRANCH  17  23
ATOM     23  C   UNL     1      52.547   2.149  18.049  0.00  0.00    +0.000 C 
BRANCH  23  24
ATOM     24  C   UNL     1      52.881   0.805  17.395  0.00  0.00    +0.000 C 
BRANCH  24  25
ATOM     25  N   UNL     1      52.866  -0.276  18.381  0.00  0.00    +0.000 NA
ATOM     26  H   UNL     1      52.697   0.115  19.307  0.00  0.00    +0.000 HD
ATOM     27  H   UNL     1      53.783  -0.719  18.423  0.00  0.00    +0.000 HD
ENDBRANCH  24  25
ENDBRANCH  23  24
ENDBRANCH  17  23
ENDBRANCH  16  20
ENDBRANCH   1  16
TORSDOF 6
ENDMDL
MODEL 6
REMARK VINA RESULT:    -5.991      4.039      6.226
REMARK INTER + INTRA:          -8.433
REMARK INTER:                  -7.885
REMARK INTRA:                  -0.548
REMARK UNBOUND:                -0.516
REMARK  Name = 
REMARK  6 active torsions:
REMARK  status: ('A' for Active; 'I' for Inactive)
REMARK    1  A    between atoms: N_1  and  C_2
REMARK    2  A    between atoms: C_2  and  C_3
REMARK    3  A    between atoms: C_3  and  C_4
REMARK    4  A    between atoms: C_7  and  C_8
REMARK    5  A    between atoms: C_8  and  N_9
REMARK    6  A    between atoms: C_15  and  C_16
REMARK                            x       y       z     vdW  Elec       q    Type
REMARK                         _______ _______ _______ _____ _____    ______ ____
ROOT
ATOM      1  N   UNL     1      48.620   7.217  15.125  0.00  0.00    +0.000 N 
ATOM      2  C   UNL     1      48.446   8.504  15.560  0.00  0.00    +0.000 A 
ATOM      3  N   UNL     1      48.556   8.600  16.869  0.00  0.00    +0.000 NA
ATOM      4  C   UNL     1      48.814   7.318  17.300  0.00  0.00    +0.000 A 
ATOM      5  C   UNL     1      48.982   6.773  18.581  0.00  0.00    +0.000 A 
ATOM      6  F   UNL     1      48.889   7.561  19.665  0.00  0.00    +0.000 F 
ATOM      7  C   UNL     1      49.223   5.406  18.695  0.00  0.00    +0.000 A 
ATOM      8  C   UNL     1      49.310   4.655  17.523  0.00  0.00    +0.000 A 
ATOM      9  N   UNL     1      49.161   5.125  16.253  0.00  0.00    +0.000 NA
ATOM     10  C   UNL     1      48.897   6.445  16.221  0.00  0.00    +0.000 A 
ENDROOT
BRANCH   7  11
ATOM     11  C   UNL     1      49.370   4.711  19.991  0.00  0.00    +0.000 C 
ATOM     12  N   UNL     1      48.484   3.721  20.301  0.00  0.00    +0.000 N 
ATOM     13  O   UNL     1      50.271   5.009  20.767  0.00  0.00    +0.000 OA
ATOM     14  H   UNL     1      47.733   3.430  19.686  0.00  0.00    +0.000 HD
ATOM     15  H   UNL     1      48.601   3.234  21.180  0.00  0.00    +0.000 HD
ENDBRANCH   7  11
BRANCH   1  16
ATOM     16  C   UNL     1      48.527   6.762  13.751  0.00  0.00    +0.000 C 
BRANCH  16  20
ATOM     17  C   UNL     1      44.614   5.199  12.743  0.00  0.00    +0.000 A 
ATOM     18  C   UNL     1      45.608   4.348  13.241  0.00  0.00    +0.000 A 
ATOM     19  C   UNL     1      46.868   4.850  13.586  0.00  0.00    +0.000 A 
ATOM     20  C   UNL     1      47.155   6.214  13.443  0.00  0.00    +0.000 A 
ATOM     21  C   UNL     1      46.149   7.066  12.967  0.00  0.00    +0.000 A 
ATOM     22  C   UNL     1      44.890   6.566  12.626  0.00  0.00    +0.000 A 
BRANCH  17  23
ATOM     23  C   UNL     1      43.268   4.653  12.330  0.00  0.00    +0.000 C 
BRANCH  23  24
ATOM     24  C   UNL     1      43.377   3.620  11.204  0.00  0.00    +0.000 C 
BRANCH  24  25
ATOM     25  N   UNL     1      43.044   2.280  11.689  0.00  0.00    +0.000 NA
ATOM     26  H   UNL     1      43.160   2.250  12.701  0.00  0.00    +0.000 HD
ATOM     27  H   UNL     1      43.699   1.601  11.305  0.00  0.00    +0.000 HD
ENDBRANCH  24  25
ENDBRANCH  23  24
ENDBRANCH  17  23
ENDBRANCH  16  20
ENDBRANCH   1  16
TORSDOF 6
ENDMDL
MODEL 7
REMARK VINA RESULT:    -5.699      4.374      6.479
REMARK INTER + INTRA:          -8.048
REMARK INTER:                  -7.691
REMARK INTRA:                  -0.357
REMARK UNBOUND:                -0.516
REMARK  Name = 
REMARK  6 active torsions:
REMARK  status: ('A' for Active; 'I' for Inactive)
REMARK    1  A    between atoms: N_1  and  C_2
REMARK    2  A    between atoms: C_2  and  C_3
REMARK    3  A    between atoms: C_3  and  C_4
REMARK    4  A    between atoms: C_7  and  C_8
REMARK    5  A    between atoms: C_8  and  N_9
REMARK    6  A    between atoms: C_15  and  C_16
REMARK                            x       y       z     vdW  Elec       q    Type
REMARK                         _______ _______ _______ _____ _____    ______ ____
ROOT
ATOM      1  N   UNL     1      47.377   5.626  13.368  0.00  0.00    +0.000 N 
ATOM      2  C   UNL     1      46.404   4.671  13.236  0.00  0.00    +0.000 A 
ATOM      3  N   UNL     1      46.223   3.997  14.352  0.00  0.00    +0.000 NA
ATOM      4  C   UNL     1      47.117   4.539  15.246  0.00  0.00    +0.000 A 
ATOM      5  C   UNL     1      47.431   4.219  16.575  0.00  0.00    +0.000 A 
ATOM      6  F   UNL     1      46.803   3.202  17.188  0.00  0.00    +0.000 F 
ATOM      7  C   UNL     1      48.415   4.961  17.223  0.00  0.00    +0.000 A 
ATOM      8  C   UNL     1      49.019   6.004  16.522  0.00  0.00    +0.000 A 
ATOM      9  N   UNL     1      48.756   6.368  15.235  0.00  0.00    +0.000 NA
ATOM     10  C   UNL     1      47.821   5.587  14.662  0.00  0.00    +0.000 A 
ENDROOT
BRANCH   7  11
ATOM     11  C   UNL     1      48.864   4.687  18.604  0.00  0.00    +0.000 C 
ATOM     12  N   UNL     1      49.622   3.575  18.833  0.00  0.00    +0.000 N 
ATOM     13  O   UNL     1      48.572   5.443  19.524  0.00  0.00    +0.000 OA
ATOM     14  H   UNL     1      49.900   2.929  18.103  0.00  0.00    +0.000 HD
ATOM     15  H   UNL     1      49.944   3.403  19.776  0.00  0.00    +0.000 HD
ENDBRANCH   7  11
BRANCH   1  16
ATOM     16  C   UNL     1      47.846   6.514  12.321  0.00  0.00    +0.000 C 
BRANCH  16  20
ATOM     17  C   UNL     1      45.264   9.942  11.722  0.00  0.00    +0.000 A 
ATOM     18  C   UNL     1      44.760   8.643  11.580  0.00  0.00    +0.000 A 
ATOM     19  C   UNL     1      45.584   7.532  11.790  0.00  0.00    +0.000 A 
ATOM     20  C   UNL     1      46.928   7.700  12.151  0.00  0.00    +0.000 A 
ATOM     21  C   UNL     1      47.422   9.000  12.316  0.00  0.00    +0.000 A 
ATOM     22  C   UNL     1      46.599  10.111  12.110  0.00  0.00    +0.000 A 
BRANCH  17  23
ATOM     23  C   UNL     1      44.389  11.142  11.453  0.00  0.00    +0.000 C 
BRANCH  23  24
ATOM     24  C   UNL     1      42.929  10.757  11.198  0.00  0.00    +0.000 C 
BRANCH  24  25
ATOM     25  N   UNL     1      42.076  11.173  12.312  0.00  0.00    +0.000 NA
ATOM     26  H   UNL     1      41.184  10.683  12.254  0.00  0.00    +0.000 HD
ATOM     27  H   UNL     1      41.861  12.166  12.230  0.00  0.00    +0.000 HD
ENDBRANCH  24  25
ENDBRANCH  23  24
ENDBRANCH  17  23
ENDBRANCH  16  20
ENDBRANCH   1  16
TORSDOF 6
ENDMDL
MODEL 8
REMARK VINA RESULT:    -5.695      4.032      6.874
REMARK INTER + INTRA:          -8.043
REMARK INTER:                  -7.431
REMARK INTRA:                  -0.612
REMARK UNBOUND:                -0.516
REMARK  Name = 
REMARK  6 active torsions:
REMARK  status: ('A' for Active; 'I' for Inactive)
REMARK    1  A    between atoms: N_1  and  C_2
REMARK    2  A    between atoms: C_2  and  C_3
REMARK    3  A    between atoms: C_3  and  C_4
REMARK    4  A    between atoms: C_7  and  C_8
REMARK    5  A    between atoms: C_8  and  N_9
REMARK    6  A    between atoms: C_15  and  C_16
REMARK                            x       y       z     vdW  Elec       q    Type
REMARK                         _______ _______ _______ _____ _____    ______ ____
ROOT
ATOM      1  N   UNL     1      46.124   7.971  12.716  0.00  0.00    +0.000 N 
ATOM      2  C   UNL     1      45.309   8.718  11.907  0.00  0.00    +0.000 A 
ATOM      3  N   UNL     1      44.391   7.980  11.318  0.00  0.00    +0.000 NA
ATOM      4  C   UNL     1      44.620   6.699  11.768  0.00  0.00    +0.000 A 
ATOM      5  C   UNL     1      44.009   5.474  11.468  0.00  0.00    +0.000 A 
ATOM      6  F   UNL     1      43.000   5.424  10.582  0.00  0.00    +0.000 F 
ATOM      7  C   UNL     1      44.486   4.323  12.090  0.00  0.00    +0.000 A 
ATOM      8  C   UNL     1      45.535   4.456  13.000  0.00  0.00    +0.000 A 
ATOM      9  N   UNL     1      46.166   5.615  13.337  0.00  0.00    +0.000 NA
ATOM     10  C   UNL     1      45.675   6.679  12.673  0.00  0.00    +0.000 A 
ENDROOT
BRANCH   7  11
ATOM     11  C   UNL     1      43.955   2.970  11.818  0.00  0.00    +0.000 C 
ATOM     12  N   UNL     1      44.168   2.423  10.587  0.00  0.00    +0.000 N 
ATOM     13  O   UNL     1      43.344   2.349  12.681  0.00  0.00    +0.000 OA
ATOM     14  H   UNL     1      44.679   2.893   9.848  0.00  0.00    +0.000 HD
ATOM     15  H   UNL     1      43.821   1.489  10.413  0.00  0.00    +0.000 HD
ENDBRANCH   7  11
BRANCH   1  16
ATOM     16  C   UNL     1      47.255   8.467  13.477  0.00  0.00    +0.000 C 
BRANCH  16  20
ATOM     17  C   UNL     1      50.828   8.972  11.080  0.00  0.00    +0.000 A 
ATOM     18  C   UNL     1      50.391   7.691  11.437  0.00  0.00    +0.000 A 
ATOM     19  C   UNL     1      49.229   7.520  12.195  0.00  0.00    +0.000 A 
ATOM     20  C   UNL     1      48.477   8.630  12.607  0.00  0.00    +0.000 A 
ATOM     21  C   UNL     1      48.904   9.909  12.227  0.00  0.00    +0.000 A 
ATOM     22  C   UNL     1      50.064  10.080  11.467  0.00  0.00    +0.000 A 
BRANCH  17  23
ATOM     23  C   UNL     1      52.106   9.162  10.299  0.00  0.00    +0.000 C 
BRANCH  23  24
ATOM     24  C   UNL     1      53.149   9.974  11.073  0.00  0.00    +0.000 C 
BRANCH  24  25
ATOM     25  N   UNL     1      53.629   9.232  12.240  0.00  0.00    +0.000 NA
ATOM     26  H   UNL     1      53.443   8.239  12.108  0.00  0.00    +0.000 HD
ATOM     27  H   UNL     1      53.105   9.513  13.068  0.00  0.00    +0.000 HD
ENDBRANCH  24  25
ENDBRANCH  23  24
ENDBRANCH  17  23
ENDBRANCH  16  20
ENDBRANCH   1  16
TORSDOF 6
ENDMDL
MODEL 9
REMARK VINA RESULT:    -5.642      3.536      6.716
REMARK INTER + INTRA:          -7.972
REMARK INTER:                  -7.386
REMARK INTRA:                  -0.587
REMARK UNBOUND:                -0.516
REMARK  Name = 
REMARK  6 active torsions:
REMARK  status: ('A' for Active; 'I' for Inactive)
REMARK    1  A    between atoms: N_1  and  C_2
REMARK    2  A    between atoms: C_2  and  C_3
REMARK    3  A    between atoms: C_3  and  C_4
REMARK    4  A    between atoms: C_7  and  C_8
REMARK    5  A    between atoms: C_8  and  N_9
REMARK    6  A    between atoms: C_15  and  C_16
REMARK                            x       y       z     vdW  Elec       q    Type
REMARK                         _______ _______ _______ _____ _____    ______ ____
ROOT
ATOM      1  N   UNL     1      47.477   6.784  13.777  0.00  0.00    +0.000 N 
ATOM      2  C   UNL     1      47.861   5.725  14.556  0.00  0.00    +0.000 A 
ATOM      3  N   UNL     1      47.273   4.605  14.190  0.00  0.00    +0.000 NA
ATOM      4  C   UNL     1      46.473   4.955  13.126  0.00  0.00    +0.000 A 
ATOM      5  C   UNL     1      45.573   4.217  12.344  0.00  0.00    +0.000 A 
ATOM      6  F   UNL     1      45.371   2.913  12.599  0.00  0.00    +0.000 F 
ATOM      7  C   UNL     1      44.887   4.872  11.324  0.00  0.00    +0.000 A 
ATOM      8  C   UNL     1      45.152   6.226  11.118  0.00  0.00    +0.000 A 
ATOM      9  N   UNL     1      46.016   6.995  11.838  0.00  0.00    +0.000 NA
ATOM     10  C   UNL     1      46.617   6.305  12.826  0.00  0.00    +0.000 A 
ENDROOT
BRANCH   7  11
ATOM     11  C   UNL     1      43.880   4.212  10.466  0.00  0.00    +0.000 C 
ATOM     12  N   UNL     1      43.968   4.377   9.115  0.00  0.00    +0.000 N 
ATOM     13  O   UNL     1      42.989   3.525  10.955  0.00  0.00    +0.000 OA
ATOM     14  H   UNL     1      44.694   4.923   8.665  0.00  0.00    +0.000 HD
ATOM     15  H   UNL     1      43.288   3.907   8.531  0.00  0.00    +0.000 HD
ENDBRANCH   7  11
BRANCH   1  16
ATOM     16  C   UNL     1      47.909   8.159  13.936  0.00  0.00    +0.000 C 
BRANCH  16  20
ATOM     17  C   UNL     1      51.714   8.751  11.952  0.00  0.00    +0.000 A 
ATOM     18  C   UNL     1      50.518   8.851  11.231  0.00  0.00    +0.000 A 
ATOM     19  C   UNL     1      49.286   8.679  11.870  0.00  0.00    +0.000 A 
ATOM     20  C   UNL     1      49.226   8.408  13.244  0.00  0.00    +0.000 A 
ATOM     21  C   UNL     1      50.424   8.334  13.966  0.00  0.00    +0.000 A 
ATOM     22  C   UNL     1      51.656   8.508  13.330  0.00  0.00    +0.000 A 
BRANCH  17  23
ATOM     23  C   UNL     1      53.047   8.892  11.258  0.00  0.00    +0.000 C 
BRANCH  23  24
ATOM     24  C   UNL     1      53.929   7.652  11.427  0.00  0.00    +0.000 C 
BRANCH  24  25
ATOM     25  N   UNL     1      53.348   6.498  10.737  0.00  0.00    +0.000 NA
ATOM     26  H   UNL     1      53.311   5.707  11.378  0.00  0.00    +0.000 HD
ATOM     27  H   UNL     1      53.954   6.215   9.968  0.00  0.00    +0.000 HD
ENDBRANCH  24  25
ENDBRANCH  23  24
ENDBRANCH  17  23
ENDBRANCH  16  20
ENDBRANCH   1  16
TORSDOF 6
ENDMDL
