MODEL 1
REMARK VINA RESULT:    -7.333      0.000      0.000
REMARK INTER + INTRA:          -9.942
REMARK INTER:                  -9.477
REMARK INTRA:                  -0.465
REMARK UNBOUND:                -0.465
REMARK  Name = 
REMARK  5 active torsions:
REMARK  status: ('A' for Active; 'I' for Inactive)
REMARK    1  A    between atoms: C_2  and  C_3
REMARK    2  A    between atoms: N_7  and  C_8
REMARK    3  A    between atoms: C_8  and  C_9
REMARK    4  A    between atoms: C_13  and  O_14
REMARK    5  A    between atoms: O_14  and  C_15
REMARK                            x       y       z     vdW  Elec       q    Type
REMARK                         _______ _______ _______ _____ _____    ______ ____
ROOT
ATOM      1  C   UNL     1      43.900   5.594  11.370  0.00  0.00    +0.000 C 
ATOM      2  C   UNL     1      42.632   4.927  11.907  0.00  0.00    +0.000 C 
ATOM      3  C   UNL     1      42.621   6.387  11.597  0.00  0.00    +0.000 C 
ENDROOT
BRANCH   1   8
ATOM      4  C   UNL     1      46.038   2.206   8.143  0.00  0.00    +0.000 A 
ATOM      5  C   UNL     1      45.248   2.084   9.253  0.00  0.00    +0.000 A 
ATOM      6  N   UNL     1      44.701   3.143   9.880  0.00  0.00    +0.000 NA
ATOM      7  C   UNL     1      44.927   4.370   9.384  0.00  0.00    +0.000 A 
ATOM      8  N   UNL     1      44.388   5.498   9.993  0.00  0.00    +0.000 N 
ATOM      9  N   UNL     1      45.655   4.575   8.274  0.00  0.00    +0.000 NA
ATOM     10  C   UNL     1      46.212   3.489   7.688  0.00  0.00    +0.000 A 
ATOM     11  H   UNL     1      44.509   6.315   9.414  0.00  0.00    +0.000 HD
BRANCH   4  13
ATOM     12  N   UNL     1      47.129   0.175   6.992  0.00  0.00    +0.000 NA
ATOM     13  C   UNL     1      46.633   1.088   7.509  0.00  0.00    +0.000 C 
ENDBRANCH   4  13
ENDBRANCH   1   8
BRANCH   1  14
ATOM     14  C   UNL     1      44.998   5.654  12.433  0.00  0.00    +0.000 A 
ATOM     15  C   UNL     1      45.361   4.527  13.178  0.00  0.00    +0.000 A 
ATOM     16  C   UNL     1      46.591   4.477  13.832  0.00  0.00    +0.000 A 
ATOM     17  C   UNL     1      47.455   5.574  13.798  0.00  0.00    +0.000 A 
ATOM     18  C   UNL     1      47.045   6.766  13.211  0.00  0.00    +0.000 A 
ATOM     19  C   UNL     1      45.815   6.796  12.543  0.00  0.00    +0.000 A 
BRANCH  18  20
ATOM     20  O   UNL     1      47.741   7.932  13.137  0.00  0.00    +0.000 OA
BRANCH  20  21
ATOM     21  C   UNL     1      48.782   8.110  12.191  0.00  0.00    +0.000 C 
ATOM     22  F   UNL     1      48.608   7.434  11.037  0.00  0.00    +0.000 F 
ATOM     23  F   UNL     1      48.922   9.424  11.913  0.00  0.00    +0.000 F 
ATOM     24  F   UNL     1      49.936   7.674  12.746  0.00  0.00    +0.000 F 
ENDBRANCH  20  21
ENDBRANCH  18  20
ENDBRANCH   1  14
TORSDOF 5
ENDMDL
MODEL 2
REMARK VINA RESULT:    -7.056      4.191      6.877
REMARK INTER + INTRA:          -9.583
REMARK INTER:                  -9.444
REMARK INTRA:                  -0.140
REMARK UNBOUND:                -0.465
REMARK  Name = 
REMARK  5 active torsions:
REMARK  status: ('A' for Active; 'I' for Inactive)
REMARK    1  A    between atoms: C_2  and  C_3
REMARK    2  A    between atoms: N_7  and  C_8
REMARK    3  A    between atoms: C_8  and  C_9
REMARK    4  A    between atoms: C_13  and  O_14
REMARK    5  A    between atoms: O_14  and  C_15
REMARK                            x       y       z     vdW  Elec       q    Type
REMARK                         _______ _______ _______ _____ _____    ______ ____
ROOT
ATOM      1  C   UNL     1      44.509   3.958  11.924  0.00  0.00    +0.000 C 
ATOM      2  C   UNL     1      43.099   4.508  12.139  0.00  0.00    +0.000 C 
ATOM      3  C   UNL     1      43.406   3.101  12.528  0.00  0.00    +0.000 C 
ENDROOT
BRANCH   1   8
ATOM      4  C   UNL     1      47.486   7.895  13.375  0.00  0.00    +0.000 A 
ATOM      5  C   UNL     1      46.199   7.801  12.922  0.00  0.00    +0.000 A 
ATOM      6  N   UNL     1      45.583   6.622  12.712  0.00  0.00    +0.000 NA
ATOM      7  C   UNL     1      46.256   5.490  12.973  0.00  0.00    +0.000 A 
ATOM      8  N   UNL     1      45.668   4.246  12.771  0.00  0.00    +0.000 N 
ATOM      9  N   UNL     1      47.507   5.493  13.462  0.00  0.00    +0.000 NA
ATOM     10  C   UNL     1      48.103   6.696  13.634  0.00  0.00    +0.000 A 
ATOM     11  H   UNL     1      46.233   3.510  13.168  0.00  0.00    +0.000 HD
BRANCH   4  13
ATOM     12  N   UNL     1      48.665  10.159  13.731  0.00  0.00    +0.000 NA
ATOM     13  C   UNL     1      48.134   9.139  13.565  0.00  0.00    +0.000 C 
ENDBRANCH   4  13
ENDBRANCH   1   8
BRANCH   1  14
ATOM     14  C   UNL     1      44.831   3.797  10.438  0.00  0.00    +0.000 A 
ATOM     15  C   UNL     1      45.121   4.900   9.626  0.00  0.00    +0.000 A 
ATOM     16  C   UNL     1      45.790   4.730   8.415  0.00  0.00    +0.000 A 
ATOM     17  C   UNL     1      46.133   3.452   7.969  0.00  0.00    +0.000 A 
ATOM     18  C   UNL     1      45.704   2.331   8.672  0.00  0.00    +0.000 A 
ATOM     19  C   UNL     1      45.049   2.516   9.895  0.00  0.00    +0.000 A 
BRANCH  18  20
ATOM     20  O   UNL     1      45.910   1.026   8.348  0.00  0.00    +0.000 OA
BRANCH  20  21
ATOM     21  C   UNL     1      46.816   0.654   7.323  0.00  0.00    +0.000 C 
ATOM     22  F   UNL     1      46.523   1.162   6.109  0.00  0.00    +0.000 F 
ATOM     23  F   UNL     1      48.067   1.029   7.667  0.00  0.00    +0.000 F 
ATOM     24  F   UNL     1      46.798  -0.694   7.213  0.00  0.00    +0.000 F 
ENDBRANCH  20  21
ENDBRANCH  18  20
ENDBRANCH   1  14
TORSDOF 5
ENDMDL
MODEL 3
REMARK VINA RESULT:    -7.036      2.800      3.428
REMARK INTER + INTRA:          -9.558
REMARK INTER:                  -9.548
REMARK INTRA:                  -0.010
REMARK UNBOUND:                -0.465
REMARK  Name = 
REMARK  5 active torsions:
REMARK  status: ('A' for Active; 'I' for Inactive)
REMARK    1  A    between atoms: C_2  and  C_3
REMARK    2  A    between atoms: N_7  and  C_8
REMARK    3  A    between atoms: C_8  and  C_9
REMARK    4  A    between atoms: C_13  and  O_14
REMARK    5  A    between atoms: O_14  and  C_15
REMARK                            x       y       z     vdW  Elec       q    Type
REMARK                         _______ _______ _______ _____ _____    ______ ____
ROOT
ATOM      1  C   UNL     1      44.312   5.042  11.935  0.00  0.00    +0.000 C 
ATOM      2  C   UNL     1      43.345   4.118  12.676  0.00  0.00    +0.000 C 
ATOM      3  C   UNL     1      43.051   5.578  12.597  0.00  0.00    +0.000 C 
ENDROOT
BRANCH   1   8
ATOM      4  C   UNL     1      46.158   2.544   7.834  0.00  0.00    +0.000 A 
ATOM      5  C   UNL     1      45.752   2.147   9.078  0.00  0.00    +0.000 A 
ATOM      6  N   UNL     1      45.184   2.987   9.964  0.00  0.00    +0.000 NA
ATOM      7  C   UNL     1      44.991   4.265   9.604  0.00  0.00    +0.000 A 
ATOM      8  N   UNL     1      44.409   5.175  10.480  0.00  0.00    +0.000 N 
ATOM      9  N   UNL     1      45.319   4.728   8.386  0.00  0.00    +0.000 NA
ATOM     10  C   UNL     1      45.914   3.862   7.534  0.00  0.00    +0.000 A 
ATOM     11  H   UNL     1      44.183   6.038  10.009  0.00  0.00    +0.000 HD
BRANCH   4  13
ATOM     12  N   UNL     1      47.300   0.931   6.180  0.00  0.00    +0.000 NA
ATOM     13  C   UNL     1      46.783   1.660   6.921  0.00  0.00    +0.000 C 
ENDBRANCH   4  13
ENDBRANCH   1   8
BRANCH   1  14
ATOM     14  C   UNL     1      45.643   5.177  12.677  0.00  0.00    +0.000 A 
ATOM     15  C   UNL     1      46.398   6.354  12.624  0.00  0.00    +0.000 A 
ATOM     16  C   UNL     1      47.368   6.617  13.589  0.00  0.00    +0.000 A 
ATOM     17  C   UNL     1      47.638   5.684  14.592  0.00  0.00    +0.000 A 
ATOM     18  C   UNL     1      47.027   4.436  14.565  0.00  0.00    +0.000 A 
ATOM     19  C   UNL     1      46.041   4.192  13.601  0.00  0.00    +0.000 A 
BRANCH  18  20
ATOM     20  O   UNL     1      47.216   3.405  15.433  0.00  0.00    +0.000 OA
BRANCH  20  21
ATOM     21  C   UNL     1      47.439   3.636  16.814  0.00  0.00    +0.000 C 
ATOM     22  F   UNL     1      46.735   4.665  17.328  0.00  0.00    +0.000 F 
ATOM     23  F   UNL     1      47.153   2.515  17.513  0.00  0.00    +0.000 F 
ATOM     24  F   UNL     1      48.751   3.915  16.989  0.00  0.00    +0.000 F 
ENDBRANCH  20  21
ENDBRANCH  18  20
ENDBRANCH   1  14
TORSDOF 5
ENDMDL
MODEL 4
REMARK VINA RESULT:    -7.021      3.809      6.254
REMARK INTER + INTRA:          -9.539
REMARK INTER:                  -9.186
REMARK INTRA:                  -0.353
REMARK UNBOUND:                -0.465
REMARK  Name = 
REMARK  5 active torsions:
REMARK  status: ('A' for Active; 'I' for Inactive)
REMARK    1  A    between atoms: C_2  and  C_3
REMARK    2  A    between atoms: N_7  and  C_8
REMARK    3  A    between atoms: C_8  and  C_9
REMARK    4  A    between atoms: C_13  and  O_14
REMARK    5  A    between atoms: O_14  and  C_15
REMARK                            x       y       z     vdW  Elec       q    Type
REMARK                         _______ _______ _______ _____ _____    ______ ____
ROOT
ATOM      1  C   UNL     1      44.191   5.715  11.366  0.00  0.00    +0.000 C 
ATOM      2  C   UNL     1      42.666   5.818  11.419  0.00  0.00    +0.000 C 
ATOM      3  C   UNL     1      43.422   5.475  12.658  0.00  0.00    +0.000 C 
ENDROOT
BRANCH   1   8
ATOM      4  C   UNL     1      48.585   7.300  13.520  0.00  0.00    +0.000 A 
ATOM      5  C   UNL     1      48.034   6.068  13.295  0.00  0.00    +0.000 A 
ATOM      6  N   UNL     1      46.898   5.894  12.593  0.00  0.00    +0.000 NA
ATOM      7  C   UNL     1      46.291   6.973  12.075  0.00  0.00    +0.000 A 
ATOM      8  N   UNL     1      45.115   6.850  11.343  0.00  0.00    +0.000 N 
ATOM      9  N   UNL     1      46.789   8.214  12.211  0.00  0.00    +0.000 NA
ATOM     10  C   UNL     1      47.915   8.353  12.947  0.00  0.00    +0.000 A 
ATOM     11  H   UNL     1      44.880   7.719  10.887  0.00  0.00    +0.000 HD
BRANCH   4  13
ATOM     12  N   UNL     1      50.733   7.625  14.907  0.00  0.00    +0.000 NA
ATOM     13  C   UNL     1      49.763   7.475  14.286  0.00  0.00    +0.000 C 
ENDBRANCH   4  13
ENDBRANCH   1   8
BRANCH   1  14
ATOM     14  C   UNL     1      44.646   4.505  10.549  0.00  0.00    +0.000 A 
ATOM     15  C   UNL     1      44.320   3.198  10.927  0.00  0.00    +0.000 A 
ATOM     16  C   UNL     1      44.380   2.157  10.002  0.00  0.00    +0.000 A 
ATOM     17  C   UNL     1      44.819   2.396   8.698  0.00  0.00    +0.000 A 
ATOM     18  C   UNL     1      45.312   3.647   8.346  0.00  0.00    +0.000 A 
ATOM     19  C   UNL     1      45.229   4.687   9.280  0.00  0.00    +0.000 A 
BRANCH  18  20
ATOM     20  O   UNL     1      45.818   4.026   7.142  0.00  0.00    +0.000 OA
BRANCH  20  21
ATOM     21  C   UNL     1      46.743   3.211   6.441  0.00  0.00    +0.000 C 
ATOM     22  F   UNL     1      46.325   1.946   6.234  0.00  0.00    +0.000 F 
ATOM     23  F   UNL     1      47.035   3.778   5.250  0.00  0.00    +0.000 F 
ATOM     24  F   UNL     1      47.883   3.148   7.166  0.00  0.00    +0.000 F 
ENDBRANCH  20  21
ENDBRANCH  18  20
ENDBRANCH   1  14
TORSDOF 5
ENDMDL
MODEL 5
REMARK VINA RESULT:    -6.820      4.065      6.489
REMARK INTER + INTRA:          -9.279
REMARK INTER:                  -8.884
REMARK INTRA:                  -0.395
REMARK UNBOUND:                -0.465
REMARK  Name = 
REMARK  5 active torsions:
REMARK  status: ('A' for Active; 'I' for Inactive)
REMARK    1  A    between atoms: C_2  and  C_3
REMARK    2  A    between atoms: N_7  and  C_8
REMARK    3  A    between atoms: C_8  and  C_9
REMARK    4  A    between atoms: C_13  and  O_14
REMARK    5  A    between atoms: O_14  and  C_15
REMARK                            x       y       z     vdW  Elec       q    Type
REMARK                         _______ _______ _______ _____ _____    ______ ____
ROOT
ATOM      1  C   UNL     1      45.085   5.762  11.686  0.00  0.00    +0.000 C 
ATOM      2  C   UNL     1      44.011   6.761  11.254  0.00  0.00    +0.000 C 
ATOM      3  C   UNL     1      43.838   6.000  12.526  0.00  0.00    +0.000 C 
ENDROOT
BRANCH   1   8
ATOM      4  C   UNL     1      47.867   4.838  15.913  0.00  0.00    +0.000 A 
ATOM      5  C   UNL     1      46.882   4.148  15.261  0.00  0.00    +0.000 A 
ATOM      6  N   UNL     1      46.373   4.545  14.080  0.00  0.00    +0.000 NA
ATOM      7  C   UNL     1      46.863   5.657  13.509  0.00  0.00    +0.000 A 
ATOM      8  N   UNL     1      46.372   6.112  12.290  0.00  0.00    +0.000 N 
ATOM      9  N   UNL     1      47.860   6.369  14.061  0.00  0.00    +0.000 NA
ATOM     10  C   UNL     1      48.327   5.956  15.261  0.00  0.00    +0.000 A 
ATOM     11  H   UNL     1      46.950   6.851  11.920  0.00  0.00    +0.000 HD
BRANCH   4  13
ATOM     12  N   UNL     1      48.795   4.103  18.202  0.00  0.00    +0.000 NA
ATOM     13  C   UNL     1      48.375   4.429  17.170  0.00  0.00    +0.000 C 
ENDBRANCH   4  13
ENDBRANCH   1   8
BRANCH   1  14
ATOM     14  C   UNL     1      45.125   4.543  10.763  0.00  0.00    +0.000 A 
ATOM     15  C   UNL     1      44.528   3.330  11.123  0.00  0.00    +0.000 A 
ATOM     16  C   UNL     1      44.217   2.379  10.152  0.00  0.00    +0.000 A 
ATOM     17  C   UNL     1      44.549   2.600   8.814  0.00  0.00    +0.000 A 
ATOM     18  C   UNL     1      45.296   3.717   8.457  0.00  0.00    +0.000 A 
ATOM     19  C   UNL     1      45.585   4.673   9.438  0.00  0.00    +0.000 A 
BRANCH  18  20
ATOM     20  O   UNL     1      45.739   4.051   7.215  0.00  0.00    +0.000 OA
BRANCH  20  21
ATOM     21  C   UNL     1      46.693   3.253   6.533  0.00  0.00    +0.000 C 
ATOM     22  F   UNL     1      46.369   1.947   6.448  0.00  0.00    +0.000 F 
ATOM     23  F   UNL     1      46.884   3.741   5.288  0.00  0.00    +0.000 F 
ATOM     24  F   UNL     1      47.867   3.337   7.200  0.00  0.00    +0.000 F 
ENDBRANCH  20  21
ENDBRANCH  18  20
ENDBRANCH   1  14
TORSDOF 5
ENDMDL
MODEL 6
REMARK VINA RESULT:    -6.760      1.444      2.326
REMARK INTER + INTRA:          -9.202
REMARK INTER:                  -8.734
REMARK INTRA:                  -0.468
REMARK UNBOUND:                -0.465
REMARK  Name = 
REMARK  5 active torsions:
REMARK  status: ('A' for Active; 'I' for Inactive)
REMARK    1  A    between atoms: C_2  and  C_3
REMARK    2  A    between atoms: N_7  and  C_8
REMARK    3  A    between atoms: C_8  and  C_9
REMARK    4  A    between atoms: C_13  and  O_14
REMARK    5  A    between atoms: O_14  and  C_15
REMARK                            x       y       z     vdW  Elec       q    Type
REMARK                         _______ _______ _______ _____ _____    ______ ____
ROOT
ATOM      1  C   UNL     1      43.994   5.049  11.971  0.00  0.00    +0.000 C 
ATOM      2  C   UNL     1      42.925   5.122  13.061  0.00  0.00    +0.000 C 
ATOM      3  C   UNL     1      42.539   5.342  11.637  0.00  0.00    +0.000 C 
ENDROOT
BRANCH   1   8
ATOM      4  C   UNL     1      46.024   3.191   7.624  0.00  0.00    +0.000 A 
ATOM      5  C   UNL     1      45.909   4.448   8.151  0.00  0.00    +0.000 A 
ATOM      6  N   UNL     1      45.431   4.680   9.388  0.00  0.00    +0.000 NA
ATOM      7  C   UNL     1      45.068   3.632  10.144  0.00  0.00    +0.000 A 
ATOM      8  N   UNL     1      44.566   3.815  11.428  0.00  0.00    +0.000 N 
ATOM      9  N   UNL     1      45.189   2.363   9.720  0.00  0.00    +0.000 NA
ATOM     10  C   UNL     1      45.646   2.170   8.461  0.00  0.00    +0.000 A 
ATOM     11  H   UNL     1      44.500   2.937  11.919  0.00  0.00    +0.000 HD
BRANCH   4  13
ATOM     12  N   UNL     1      46.885   2.778   5.230  0.00  0.00    +0.000 NA
ATOM     13  C   UNL     1      46.499   2.959   6.310  0.00  0.00    +0.000 C 
ENDBRANCH   4  13
ENDBRANCH   1   8
BRANCH   1  14
ATOM     14  C   UNL     1      44.975   6.219  12.063  0.00  0.00    +0.000 A 
ATOM     15  C   UNL     1      44.681   7.469  11.507  0.00  0.00    +0.000 A 
ATOM     16  C   UNL     1      45.365   8.609  11.927  0.00  0.00    +0.000 A 
ATOM     17  C   UNL     1      46.390   8.511  12.869  0.00  0.00    +0.000 A 
ATOM     18  C   UNL     1      46.817   7.262  13.307  0.00  0.00    +0.000 A 
ATOM     19  C   UNL     1      46.110   6.128  12.891  0.00  0.00    +0.000 A 
BRANCH  18  20
ATOM     20  O   UNL     1      47.827   6.994  14.179  0.00  0.00    +0.000 OA
BRANCH  20  21
ATOM     21  C   UNL     1      49.175   7.295  13.860  0.00  0.00    +0.000 C 
ATOM     22  F   UNL     1      49.438   8.612  13.740  0.00  0.00    +0.000 F 
ATOM     23  F   UNL     1      49.991   6.768  14.798  0.00  0.00    +0.000 F 
ATOM     24  F   UNL     1      49.469   6.713  12.675  0.00  0.00    +0.000 F 
ENDBRANCH  20  21
ENDBRANCH  18  20
ENDBRANCH   1  14
TORSDOF 5
ENDMDL
MODEL 7
REMARK VINA RESULT:    -6.197      4.235      6.759
REMARK INTER + INTRA:          -8.474
REMARK INTER:                  -8.038
REMARK INTRA:                  -0.436
REMARK UNBOUND:                -0.465
REMARK  Name = 
REMARK  5 active torsions:
REMARK  status: ('A' for Active; 'I' for Inactive)
REMARK    1  A    between atoms: C_2  and  C_3
REMARK    2  A    between atoms: N_7  and  C_8
REMARK    3  A    between atoms: C_8  and  C_9
REMARK    4  A    between atoms: C_13  and  O_14
REMARK    5  A    between atoms: O_14  and  C_15
REMARK                            x       y       z     vdW  Elec       q    Type
REMARK                         _______ _______ _______ _____ _____    ______ ____
ROOT
ATOM      1  C   UNL     1      46.132   7.221  11.824  0.00  0.00    +0.000 C 
ATOM      2  C   UNL     1      45.086   8.279  11.472  0.00  0.00    +0.000 C 
ATOM      3  C   UNL     1      45.334   7.939  12.903  0.00  0.00    +0.000 C 
ENDROOT
BRANCH   1   8
ATOM      4  C   UNL     1      50.146   7.276  15.040  0.00  0.00    +0.000 A 
ATOM      5  C   UNL     1      48.920   6.670  15.070  0.00  0.00    +0.000 A 
ATOM      6  N   UNL     1      48.061   6.709  14.034  0.00  0.00    +0.000 NA
ATOM      7  C   UNL     1      48.431   7.356  12.917  0.00  0.00    +0.000 A 
ATOM      8  N   UNL     1      47.581   7.428  11.818  0.00  0.00    +0.000 N 
ATOM      9  N   UNL     1      49.634   7.940  12.789  0.00  0.00    +0.000 NA
ATOM     10  C   UNL     1      50.458   7.905  13.860  0.00  0.00    +0.000 A 
ATOM     11  H   UNL     1      48.063   7.797  11.012  0.00  0.00    +0.000 HD
BRANCH   4  13
ATOM     12  N   UNL     1      51.750   7.231  17.058  0.00  0.00    +0.000 NA
ATOM     13  C   UNL     1      51.030   7.255  16.147  0.00  0.00    +0.000 C 
ENDBRANCH   4  13
ENDBRANCH   1   8
BRANCH   1  14
ATOM     14  C   UNL     1      45.687   5.823  11.392  0.00  0.00    +0.000 A 
ATOM     15  C   UNL     1      45.072   4.939  12.285  0.00  0.00    +0.000 A 
ATOM     16  C   UNL     1      44.323   3.862  11.813  0.00  0.00    +0.000 A 
ATOM     17  C   UNL     1      44.222   3.619  10.442  0.00  0.00    +0.000 A 
ATOM     18  C   UNL     1      44.963   4.377   9.543  0.00  0.00    +0.000 A 
ATOM     19  C   UNL     1      45.696   5.466  10.029  0.00  0.00    +0.000 A 
BRANCH  18  20
ATOM     20  O   UNL     1      45.014   4.238   8.191  0.00  0.00    +0.000 OA
BRANCH  20  21
ATOM     21  C   UNL     1      46.103   3.588   7.557  0.00  0.00    +0.000 C 
ATOM     22  F   UNL     1      47.209   4.350   7.431  0.00  0.00    +0.000 F 
ATOM     23  F   UNL     1      46.418   2.464   8.236  0.00  0.00    +0.000 F 
ATOM     24  F   UNL     1      45.713   3.230   6.311  0.00  0.00    +0.000 F 
ENDBRANCH  20  21
ENDBRANCH  18  20
ENDBRANCH   1  14
TORSDOF 5
ENDMDL
MODEL 8
REMARK VINA RESULT:    -6.094      3.816      5.451
REMARK INTER + INTRA:          -8.340
REMARK INTER:                  -7.826
REMARK INTRA:                  -0.514
REMARK UNBOUND:                -0.465
REMARK  Name = 
REMARK  5 active torsions:
REMARK  status: ('A' for Active; 'I' for Inactive)
REMARK    1  A    between atoms: C_2  and  C_3
REMARK    2  A    between atoms: N_7  and  C_8
REMARK    3  A    between atoms: C_8  and  C_9
REMARK    4  A    between atoms: C_13  and  O_14
REMARK    5  A    between atoms: O_14  and  C_15
REMARK                            x       y       z     vdW  Elec       q    Type
REMARK                         _______ _______ _______ _____ _____    ______ ____
ROOT
ATOM      1  C   UNL     1      47.822   7.860  13.305  0.00  0.00    +0.000 C 
ATOM      2  C   UNL     1      48.633   8.900  12.533  0.00  0.00    +0.000 C 
ATOM      3  C   UNL     1      48.634   7.481  12.075  0.00  0.00    +0.000 C 
ENDROOT
BRANCH   1   8
ATOM      4  C   UNL     1      44.304   4.259  12.248  0.00  0.00    +0.000 A 
ATOM      5  C   UNL     1      45.594   4.215  12.700  0.00  0.00    +0.000 A 
ATOM      6  N   UNL     1      46.293   5.320  13.020  0.00  0.00    +0.000 NA
ATOM      7  C   UNL     1      45.693   6.515  12.907  0.00  0.00    +0.000 A 
ATOM      8  N   UNL     1      46.370   7.688  13.224  0.00  0.00    +0.000 N 
ATOM      9  N   UNL     1      44.415   6.644  12.514  0.00  0.00    +0.000 NA
ATOM     10  C   UNL     1      43.754   5.514  12.173  0.00  0.00    +0.000 A 
ATOM     11  H   UNL     1      45.739   8.475  13.248  0.00  0.00    +0.000 HD
BRANCH   4  13
ATOM     12  N   UNL     1      42.993   2.137  11.596  0.00  0.00    +0.000 NA
ATOM     13  C   UNL     1      43.587   3.093  11.885  0.00  0.00    +0.000 C 
ENDBRANCH   4  13
ENDBRANCH   1   8
BRANCH   1  14
ATOM     14  C   UNL     1      48.418   7.592  14.688  0.00  0.00    +0.000 A 
ATOM     15  C   UNL     1      48.521   8.602  15.651  0.00  0.00    +0.000 A 
ATOM     16  C   UNL     1      48.679   8.281  16.999  0.00  0.00    +0.000 A 
ATOM     17  C   UNL     1      48.791   6.948  17.399  0.00  0.00    +0.000 A 
ATOM     18  C   UNL     1      48.866   5.938  16.446  0.00  0.00    +0.000 A 
ATOM     19  C   UNL     1      48.688   6.272  15.099  0.00  0.00    +0.000 A 
BRANCH  18  20
ATOM     20  O   UNL     1      49.023   4.605  16.668  0.00  0.00    +0.000 OA
BRANCH  20  21
ATOM     21  C   UNL     1      47.923   3.712  16.608  0.00  0.00    +0.000 C 
ATOM     22  F   UNL     1      47.531   3.394  15.358  0.00  0.00    +0.000 F 
ATOM     23  F   UNL     1      48.223   2.578  17.278  0.00  0.00    +0.000 F 
ATOM     24  F   UNL     1      46.872   4.298  17.226  0.00  0.00    +0.000 F 
ENDBRANCH  20  21
ENDBRANCH  18  20
ENDBRANCH   1  14
TORSDOF 5
ENDMDL
MODEL 9
REMARK VINA RESULT:    -5.885      4.894      7.466
REMARK INTER + INTRA:          -8.070
REMARK INTER:                  -8.650
REMARK INTRA:                   0.580
REMARK UNBOUND:                -0.465
REMARK  Name = 
REMARK  5 active torsions:
REMARK  status: ('A' for Active; 'I' for Inactive)
REMARK    1  A    between atoms: C_2  and  C_3
REMARK    2  A    between atoms: N_7  and  C_8
REMARK    3  A    between atoms: C_8  and  C_9
REMARK    4  A    between atoms: C_13  and  O_14
REMARK    5  A    between atoms: O_14  and  C_15
REMARK                            x       y       z     vdW  Elec       q    Type
REMARK                         _______ _______ _______ _____ _____    ______ ____
ROOT
ATOM      1  C   UNL     1      46.371   5.234  13.681  0.00  0.00    +0.000 C 
ATOM      2  C   UNL     1      47.583   5.703  12.875  0.00  0.00    +0.000 C 
ATOM      3  C   UNL     1      46.855   6.676  13.740  0.00  0.00    +0.000 C 
ENDROOT
BRANCH   1   8
ATOM      4  C   UNL     1      49.480   4.391  17.691  0.00  0.00    +0.000 A 
ATOM      5  C   UNL     1      49.334   5.428  16.811  0.00  0.00    +0.000 A 
ATOM      6  N   UNL     1      48.349   5.473  15.894  0.00  0.00    +0.000 NA
ATOM      7  C   UNL     1      47.463   4.465  15.851  0.00  0.00    +0.000 A 
ATOM      8  N   UNL     1      46.428   4.462  14.923  0.00  0.00    +0.000 N 
ATOM      9  N   UNL     1      47.509   3.431  16.707  0.00  0.00    +0.000 NA
ATOM     10  C   UNL     1      48.529   3.406  17.596  0.00  0.00    +0.000 A 
ATOM     11  H   UNL     1      45.761   3.733  15.127  0.00  0.00    +0.000 HD
BRANCH   4  13
ATOM     12  N   UNL     1      51.409   4.299  19.398  0.00  0.00    +0.000 NA
ATOM     13  C   UNL     1      50.537   4.338  18.632  0.00  0.00    +0.000 C 
ENDBRANCH   4  13
ENDBRANCH   1   8
BRANCH   1  14
ATOM     14  C   UNL     1      45.188   4.895  12.773  0.00  0.00    +0.000 A 
ATOM     15  C   UNL     1      44.125   5.786  12.587  0.00  0.00    +0.000 A 
ATOM     16  C   UNL     1      43.279   5.660  11.487  0.00  0.00    +0.000 A 
ATOM     17  C   UNL     1      43.448   4.608  10.583  0.00  0.00    +0.000 A 
ATOM     18  C   UNL     1      44.384   3.613  10.839  0.00  0.00    +0.000 A 
ATOM     19  C   UNL     1      45.238   3.762  11.937  0.00  0.00    +0.000 A 
BRANCH  18  20
ATOM     20  O   UNL     1      44.636   2.505  10.090  0.00  0.00    +0.000 OA
BRANCH  20  21
ATOM     21  C   UNL     1      45.175   2.606   8.782  0.00  0.00    +0.000 C 
ATOM     22  F   UNL     1      46.039   3.628   8.613  0.00  0.00    +0.000 F 
ATOM     23  F   UNL     1      45.792   1.450   8.456  0.00  0.00    +0.000 F 
ATOM     24  F   UNL     1      44.151   2.794   7.918  0.00  0.00    +0.000 F 
ENDBRANCH  20  21
ENDBRANCH  18  20
ENDBRANCH   1  14
TORSDOF 5
ENDMDL
