MODEL 1
REMARK VINA RESULT:    -7.620      0.000      0.000
REMARK INTER + INTRA:         -12.603
REMARK INTER:                 -11.184
REMARK INTRA:                  -1.419
REMARK UNBOUND:                -1.419
REMARK  Name = 
REMARK  9 active torsions:
REMARK  status: ('A' for Active; 'I' for Inactive)
REMARK    1  A    between atoms: C_1  and  C_2
REMARK    2  A    between atoms: C_2  and  C_3
REMARK    3  A    between atoms: C_3  and  N_4
REMARK    4  A    between atoms: N_4  and  C_5
REMARK    5  A    between atoms: C_5  and  C_6
REMARK    6  A    between atoms: C_9  and  C_10
REMARK    7  A    between atoms: C_10  and  O_11
REMARK    8  A    between atoms: O_11  and  C_12
REMARK    9  A    between atoms: C_20  and  C_22
REMARK                            x       y       z     vdW  Elec       q    Type
REMARK                         _______ _______ _______ _____ _____    ______ ____
ROOT
ATOM      1  N   UNL     1      47.800   6.701  13.500  0.00  0.00    +0.000 N 
ATOM      2  C   UNL     1      48.635   6.384  14.599  0.00  0.00    +0.000 C 
ATOM      3  O   UNL     1      49.832   6.668  14.523  0.00  0.00    +0.000 OA
ENDROOT
BRANCH   2   4
ATOM      4  C   UNL     1      48.151   5.686  15.823  0.00  0.00    +0.000 A 
ATOM      5  C   UNL     1      47.627   4.406  15.911  0.00  0.00    +0.000 A 
ATOM      6  S   UNL     1      47.330   3.837  17.488  0.00  0.00    +0.000 S 
ATOM      7  C   UNL     1      47.896   5.284  18.155  0.00  0.00    +0.000 A 
ATOM      8  N   UNL     1      47.958   5.421  19.504  0.00  0.00    +0.000 NA
ATOM      9  C   UNL     1      48.444   6.548  19.898  0.00  0.00    +0.000 A 
ATOM     10  N   UNL     1      48.841   7.557  19.061  0.00  0.00    +0.000 N 
ATOM     11  C   UNL     1      48.657   7.517  17.690  0.00  0.00    +0.000 A 
ATOM     12  O   UNL     1      48.761   8.550  17.039  0.00  0.00    +0.000 OA
ATOM     13  C   UNL     1      48.242   6.214  17.187  0.00  0.00    +0.000 A 
ATOM     14  H   UNL     1      49.124   8.451  19.433  0.00  0.00    +0.000 HD
ENDBRANCH   2   4
BRANCH   1  15
ATOM     15  C   UNL     1      48.425   7.388  12.349  0.00  0.00    +0.000 C 
BRANCH  15  17
ATOM     16  C   UNL     1      48.207   9.776  13.282  0.00  0.00    +0.000 C 
ATOM     17  C   UNL     1      47.936   8.830  12.121  0.00  0.00    +0.000 C 
ENDBRANCH  15  17
ENDBRANCH   1  15
BRANCH   1  18
ATOM     18  C   UNL     1      46.350   6.530  13.413  0.00  0.00    +0.000 C 
BRANCH  18  19
ATOM     19  C   UNL     1      45.864   5.470  12.438  0.00  0.00    +0.000 A 
ATOM     20  C   UNL     1      45.731   4.108  12.754  0.00  0.00    +0.000 A 
ATOM     21  C   UNL     1      45.213   3.192  11.826  0.00  0.00    +0.000 A 
ATOM     22  C   UNL     1      44.886   3.601  10.531  0.00  0.00    +0.000 A 
ATOM     23  C   UNL     1      44.975   4.961  10.218  0.00  0.00    +0.000 A 
ATOM     24  C   UNL     1      45.449   5.881  11.160  0.00  0.00    +0.000 A 
BRANCH  22  25
ATOM     25  C   UNL     1      44.538   2.590   9.465  0.00  0.00    +0.000 C 
BRANCH  25  26
ATOM     26  O   UNL     1      45.650   1.765   9.131  0.00  0.00    +0.000 OA
BRANCH  26  27
ATOM     27  C   UNL     1      46.278   2.076   7.954  0.00  0.00    +0.000 A 
ATOM     28  C   UNL     1      46.068   3.213   7.175  0.00  0.00    +0.000 A 
ATOM     29  C   UNL     1      46.786   3.391   5.989  0.00  0.00    +0.000 A 
ATOM     30  C   UNL     1      47.697   2.414   5.623  0.00  0.00    +0.000 A 
ATOM     31  N   UNL     1      47.932   1.304   6.347  0.00  0.00    +0.000 NA
ATOM     32  C   UNL     1      47.217   1.159   7.491  0.00  0.00    +0.000 A 
ENDBRANCH  26  27
ENDBRANCH  25  26
ENDBRANCH  22  25
ENDBRANCH  18  19
ENDBRANCH   1  18
TORSDOF 8
ENDMDL
MODEL 2
REMARK VINA RESULT:    -7.583      1.794      2.315
REMARK INTER + INTRA:         -12.549
REMARK INTER:                 -10.905
REMARK INTRA:                  -1.644
REMARK UNBOUND:                -1.419
REMARK  Name = 
REMARK  9 active torsions:
REMARK  status: ('A' for Active; 'I' for Inactive)
REMARK    1  A    between atoms: C_1  and  C_2
REMARK    2  A    between atoms: C_2  and  C_3
REMARK    3  A    between atoms: C_3  and  N_4
REMARK    4  A    between atoms: N_4  and  C_5
REMARK    5  A    between atoms: C_5  and  C_6
REMARK    6  A    between atoms: C_9  and  C_10
REMARK    7  A    between atoms: C_10  and  O_11
REMARK    8  A    between atoms: O_11  and  C_12
REMARK    9  A    between atoms: C_20  and  C_22
REMARK                            x       y       z     vdW  Elec       q    Type
REMARK                         _______ _______ _______ _____ _____    ______ ____
ROOT
ATOM      1  N   UNL     1      48.828   7.412  13.725  0.00  0.00    +0.000 N 
ATOM      2  C   UNL     1      49.715   7.676  14.798  0.00  0.00    +0.000 C 
ATOM      3  O   UNL     1      50.925   7.583  14.589  0.00  0.00    +0.000 OA
ENDROOT
BRANCH   2   4
ATOM      4  C   UNL     1      49.258   8.015  16.175  0.00  0.00    +0.000 A 
ATOM      5  C   UNL     1      49.256   9.261  16.780  0.00  0.00    +0.000 A 
ATOM      6  S   UNL     1      48.502   9.342  18.303  0.00  0.00    +0.000 S 
ATOM      7  C   UNL     1      48.123   7.696  18.243  0.00  0.00    +0.000 A 
ATOM      8  N   UNL     1      47.407   7.135  19.251  0.00  0.00    +0.000 NA
ATOM      9  C   UNL     1      47.141   5.885  19.077  0.00  0.00    +0.000 A 
ATOM     10  N   UNL     1      47.557   5.146  18.002  0.00  0.00    +0.000 N 
ATOM     11  C   UNL     1      48.411   5.639  17.031  0.00  0.00    +0.000 A 
ATOM     12  O   UNL     1      48.970   4.858  16.270  0.00  0.00    +0.000 OA
ATOM     13  C   UNL     1      48.625   7.077  17.107  0.00  0.00    +0.000 A 
ATOM     14  H   UNL     1      47.397   4.150  17.972  0.00  0.00    +0.000 HD
ENDBRANCH   2   4
BRANCH   1  15
ATOM     15  C   UNL     1      49.429   7.080  12.415  0.00  0.00    +0.000 C 
BRANCH  15  17
ATOM     16  C   UNL     1      50.623   9.127  11.412  0.00  0.00    +0.000 C 
ATOM     17  C   UNL     1      49.397   8.226  11.386  0.00  0.00    +0.000 C 
ENDBRANCH  15  17
ENDBRANCH   1  15
BRANCH   1  18
ATOM     18  C   UNL     1      47.371   7.544  13.729  0.00  0.00    +0.000 C 
BRANCH  18  19
ATOM     19  C   UNL     1      46.604   6.436  13.028  0.00  0.00    +0.000 A 
ATOM     20  C   UNL     1      46.447   5.138  13.541  0.00  0.00    +0.000 A 
ATOM     21  C   UNL     1      45.669   4.179  12.874  0.00  0.00    +0.000 A 
ATOM     22  C   UNL     1      45.089   4.472  11.637  0.00  0.00    +0.000 A 
ATOM     23  C   UNL     1      45.203   5.773  11.137  0.00  0.00    +0.000 A 
ATOM     24  C   UNL     1      45.941   6.740  11.827  0.00  0.00    +0.000 A 
BRANCH  22  25
ATOM     25  C   UNL     1      44.438   3.387  10.811  0.00  0.00    +0.000 C 
BRANCH  25  26
ATOM     26  O   UNL     1      44.377   3.732   9.432  0.00  0.00    +0.000 OA
BRANCH  26  27
ATOM     27  C   UNL     1      45.308   3.122   8.633  0.00  0.00    +0.000 A 
ATOM     28  C   UNL     1      46.099   3.734   7.660  0.00  0.00    +0.000 A 
ATOM     29  C   UNL     1      47.007   2.974   6.918  0.00  0.00    +0.000 A 
ATOM     30  C   UNL     1      47.092   1.617   7.179  0.00  0.00    +0.000 A 
ATOM     31  N   UNL     1      46.350   0.988   8.110  0.00  0.00    +0.000 NA
ATOM     32  C   UNL     1      45.476   1.752   8.812  0.00  0.00    +0.000 A 
ENDBRANCH  26  27
ENDBRANCH  25  26
ENDBRANCH  22  25
ENDBRANCH  18  19
ENDBRANCH   1  18
TORSDOF 8
ENDMDL
MODEL 3
REMARK VINA RESULT:    -7.237      2.048      2.618
REMARK INTER + INTRA:         -12.041
REMARK INTER:                 -10.744
REMARK INTRA:                  -1.297
REMARK UNBOUND:                -1.419
REMARK  Name = 
REMARK  9 active torsions:
REMARK  status: ('A' for Active; 'I' for Inactive)
REMARK    1  A    between atoms: C_1  and  C_2
REMARK    2  A    between atoms: C_2  and  C_3
REMARK    3  A    between atoms: C_3  and  N_4
REMARK    4  A    between atoms: N_4  and  C_5
REMARK    5  A    between atoms: C_5  and  C_6
REMARK    6  A    between atoms: C_9  and  C_10
REMARK    7  A    between atoms: C_10  and  O_11
REMARK    8  A    between atoms: O_11  and  C_12
REMARK    9  A    between atoms: C_20  and  C_22
REMARK                            x       y       z     vdW  Elec       q    Type
REMARK                         _______ _______ _______ _____ _____    ______ ____
ROOT
ATOM      1  N   UNL     1      48.277   7.710  14.249  0.00  0.00    +0.000 N 
ATOM      2  C   UNL     1      48.757   7.758  15.581  0.00  0.00    +0.000 C 
ATOM      3  O   UNL     1      48.336   8.649  16.321  0.00  0.00    +0.000 OA
ENDROOT
BRANCH   2   4
ATOM      4  C   UNL     1      49.777   6.815  16.120  0.00  0.00    +0.000 A 
ATOM      5  C   UNL     1      51.145   7.016  16.212  0.00  0.00    +0.000 A 
ATOM      6  S   UNL     1      52.014   5.810  17.041  0.00  0.00    +0.000 S 
ATOM      7  C   UNL     1      50.596   4.939  17.334  0.00  0.00    +0.000 A 
ATOM      8  N   UNL     1      50.649   3.797  18.068  0.00  0.00    +0.000 NA
ATOM      9  C   UNL     1      49.502   3.241  18.263  0.00  0.00    +0.000 A 
ATOM     10  N   UNL     1      48.318   3.710  17.760  0.00  0.00    +0.000 N 
ATOM     11  C   UNL     1      48.239   4.781  16.887  0.00  0.00    +0.000 A 
ATOM     12  O   UNL     1      47.206   4.965  16.253  0.00  0.00    +0.000 OA
ATOM     13  C   UNL     1      49.483   5.524  16.749  0.00  0.00    +0.000 A 
ATOM     14  H   UNL     1      47.468   3.177  17.868  0.00  0.00    +0.000 HD
ENDBRANCH   2   4
BRANCH   1  15
ATOM     15  C   UNL     1      47.270   8.719  13.855  0.00  0.00    +0.000 C 
BRANCH  15  17
ATOM     16  C   UNL     1      46.900  10.303  11.862  0.00  0.00    +0.000 C 
ATOM     17  C   UNL     1      47.821   9.870  12.993  0.00  0.00    +0.000 C 
ENDBRANCH  15  17
ENDBRANCH   1  15
BRANCH   1  18
ATOM     18  C   UNL     1      48.576   6.696  13.238  0.00  0.00    +0.000 C 
BRANCH  18  19
ATOM     19  C   UNL     1      47.373   6.006  12.616  0.00  0.00    +0.000 A 
ATOM     20  C   UNL     1      46.737   4.882  13.166  0.00  0.00    +0.000 A 
ATOM     21  C   UNL     1      45.589   4.332  12.576  0.00  0.00    +0.000 A 
ATOM     22  C   UNL     1      45.091   4.848  11.377  0.00  0.00    +0.000 A 
ATOM     23  C   UNL     1      45.690   5.993  10.843  0.00  0.00    +0.000 A 
ATOM     24  C   UNL     1      46.808   6.566  11.458  0.00  0.00    +0.000 A 
BRANCH  22  25
ATOM     25  C   UNL     1      43.995   4.133  10.623  0.00  0.00    +0.000 C 
BRANCH  25  26
ATOM     26  O   UNL     1      44.138   4.276   9.214  0.00  0.00    +0.000 OA
BRANCH  26  27
ATOM     27  C   UNL     1      45.052   3.441   8.629  0.00  0.00    +0.000 A 
ATOM     28  C   UNL     1      46.024   3.795   7.693  0.00  0.00    +0.000 A 
ATOM     29  C   UNL     1      46.889   2.825   7.181  0.00  0.00    +0.000 A 
ATOM     30  C   UNL     1      46.749   1.522   7.629  0.00  0.00    +0.000 A 
ATOM     31  N   UNL     1      45.827   1.138   8.532  0.00  0.00    +0.000 NA
ATOM     32  C   UNL     1      45.002   2.102   9.008  0.00  0.00    +0.000 A 
ENDBRANCH  26  27
ENDBRANCH  25  26
ENDBRANCH  22  25
ENDBRANCH  18  19
ENDBRANCH   1  18
TORSDOF 8
ENDMDL
MODEL 4
REMARK VINA RESULT:    -6.987      2.144      2.577
REMARK INTER + INTRA:         -11.674
REMARK INTER:                 -10.116
REMARK INTRA:                  -1.558
REMARK UNBOUND:                -1.419
REMARK  Name = 
REMARK  9 active torsions:
REMARK  status: ('A' for Active; 'I' for Inactive)
REMARK    1  A    between atoms: C_1  and  C_2
REMARK    2  A    between atoms: C_2  and  C_3
REMARK    3  A    between atoms: C_3  and  N_4
REMARK    4  A    between atoms: N_4  and  C_5
REMARK    5  A    between atoms: C_5  and  C_6
REMARK    6  A    between atoms: C_9  and  C_10
REMARK    7  A    between atoms: C_10  and  O_11
REMARK    8  A    between atoms: O_11  and  C_12
REMARK    9  A    between atoms: C_20  and  C_22
REMARK                            x       y       z     vdW  Elec       q    Type
REMARK                         _______ _______ _______ _____ _____    ______ ____
ROOT
ATOM      1  N   UNL     1      48.585   7.637  14.595  0.00  0.00    +0.000 N 
ATOM      2  C   UNL     1      48.547   7.418  15.994  0.00  0.00    +0.000 C 
ATOM      3  O   UNL     1      48.272   8.370  16.726  0.00  0.00    +0.000 OA
ENDROOT
BRANCH   2   4
ATOM      4  C   UNL     1      48.868   6.108  16.628  0.00  0.00    +0.000 A 
ATOM      5  C   UNL     1      48.000   5.056  16.873  0.00  0.00    +0.000 A 
ATOM      6  S   UNL     1      48.719   3.626  17.451  0.00  0.00    +0.000 S 
ATOM      7  C   UNL     1      50.253   4.335  17.403  0.00  0.00    +0.000 A 
ATOM      8  N   UNL     1      51.344   3.597  17.733  0.00  0.00    +0.000 NA
ATOM      9  C   UNL     1      52.462   4.228  17.619  0.00  0.00    +0.000 A 
ATOM     10  N   UNL     1      52.578   5.538  17.237  0.00  0.00    +0.000 N 
ATOM     11  C   UNL     1      51.487   6.366  17.037  0.00  0.00    +0.000 A 
ATOM     12  O   UNL     1      51.654   7.579  16.984  0.00  0.00    +0.000 OA
ATOM     13  C   UNL     1      50.210   5.666  17.017  0.00  0.00    +0.000 A 
ATOM     14  H   UNL     1      53.474   6.001  17.259  0.00  0.00    +0.000 HD
ENDBRANCH   2   4
BRANCH   1  15
ATOM     15  C   UNL     1      48.250   8.994  14.112  0.00  0.00    +0.000 C 
BRANCH  15  17
ATOM     16  C   UNL     1      48.581   9.927  11.736  0.00  0.00    +0.000 C 
ATOM     17  C   UNL     1      49.227   9.560  13.064  0.00  0.00    +0.000 C 
ENDBRANCH  15  17
ENDBRANCH   1  15
BRANCH   1  18
ATOM     18  C   UNL     1      48.804   6.638  13.549  0.00  0.00    +0.000 C 
BRANCH  18  19
ATOM     19  C   UNL     1      47.552   6.014  12.955  0.00  0.00    +0.000 A 
ATOM     20  C   UNL     1      46.859   4.936  13.530  0.00  0.00    +0.000 A 
ATOM     21  C   UNL     1      45.670   4.449  12.966  0.00  0.00    +0.000 A 
ATOM     22  C   UNL     1      45.184   4.981  11.769  0.00  0.00    +0.000 A 
ATOM     23  C   UNL     1      45.841   6.081  11.210  0.00  0.00    +0.000 A 
ATOM     24  C   UNL     1      47.002   6.593  11.800  0.00  0.00    +0.000 A 
BRANCH  22  25
ATOM     25  C   UNL     1      44.034   4.324  11.041  0.00  0.00    +0.000 C 
BRANCH  25  26
ATOM     26  O   UNL     1      44.099   4.542   9.636  0.00  0.00    +0.000 OA
BRANCH  26  27
ATOM     27  C   UNL     1      44.931   3.696   8.950  0.00  0.00    +0.000 A 
ATOM     28  C   UNL     1      45.828   4.049   7.942  0.00  0.00    +0.000 A 
ATOM     29  C   UNL     1      46.611   3.068   7.328  0.00  0.00    +0.000 A 
ATOM     30  C   UNL     1      46.467   1.757   7.749  0.00  0.00    +0.000 A 
ATOM     31  N   UNL     1      45.615   1.374   8.720  0.00  0.00    +0.000 NA
ATOM     32  C   UNL     1      44.868   2.349   9.294  0.00  0.00    +0.000 A 
ENDBRANCH  26  27
ENDBRANCH  25  26
ENDBRANCH  22  25
ENDBRANCH  18  19
ENDBRANCH   1  18
TORSDOF 8
ENDMDL
MODEL 5
REMARK VINA RESULT:    -6.904      1.572      2.135
REMARK INTER + INTRA:         -11.552
REMARK INTER:                  -9.945
REMARK INTRA:                  -1.607
REMARK UNBOUND:                -1.419
REMARK  Name = 
REMARK  9 active torsions:
REMARK  status: ('A' for Active; 'I' for Inactive)
REMARK    1  A    between atoms: C_1  and  C_2
REMARK    2  A    between atoms: C_2  and  C_3
REMARK    3  A    between atoms: C_3  and  N_4
REMARK    4  A    between atoms: N_4  and  C_5
REMARK    5  A    between atoms: C_5  and  C_6
REMARK    6  A    between atoms: C_9  and  C_10
REMARK    7  A    between atoms: C_10  and  O_11
REMARK    8  A    between atoms: O_11  and  C_12
REMARK    9  A    between atoms: C_20  and  C_22
REMARK                            x       y       z     vdW  Elec       q    Type
REMARK                         _______ _______ _______ _____ _____    ______ ____
ROOT
ATOM      1  N   UNL     1      48.913   7.432  13.987  0.00  0.00    +0.000 N 
ATOM      2  C   UNL     1      49.588   7.052  15.174  0.00  0.00    +0.000 C 
ATOM      3  O   UNL     1      50.817   6.979  15.148  0.00  0.00    +0.000 OA
ENDROOT
BRANCH   2   4
ATOM      4  C   UNL     1      48.884   6.695  16.438  0.00  0.00    +0.000 A 
ATOM      5  C   UNL     1      48.617   5.425  16.924  0.00  0.00    +0.000 A 
ATOM      6  S   UNL     1      47.951   5.358  18.489  0.00  0.00    +0.000 S 
ATOM      7  C   UNL     1      47.985   7.043  18.614  0.00  0.00    +0.000 A 
ATOM      8  N   UNL     1      47.587   7.638  19.768  0.00  0.00    +0.000 NA
ATOM      9  C   UNL     1      47.696   8.923  19.764  0.00  0.00    +0.000 A 
ATOM     10  N   UNL     1      48.135   9.661  18.696  0.00  0.00    +0.000 N 
ATOM     11  C   UNL     1      48.407   9.109  17.458  0.00  0.00    +0.000 A 
ATOM     12  O   UNL     1      48.510   9.843  16.482  0.00  0.00    +0.000 OA
ATOM     13  C   UNL     1      48.434   7.652  17.452  0.00  0.00    +0.000 A 
ATOM     14  H   UNL     1      48.106  10.669  18.724  0.00  0.00    +0.000 HD
ENDBRANCH   2   4
BRANCH   1  15
ATOM     15  C   UNL     1      49.746   7.750  12.807  0.00  0.00    +0.000 C 
BRANCH  15  17
ATOM     16  C   UNL     1      48.901   9.748  11.423  0.00  0.00    +0.000 C 
ATOM     17  C   UNL     1      49.864   9.253  12.493  0.00  0.00    +0.000 C 
ENDBRANCH  15  17
ENDBRANCH   1  15
BRANCH   1  18
ATOM     18  C   UNL     1      47.479   7.661  13.820  0.00  0.00    +0.000 C 
BRANCH  18  19
ATOM     19  C   UNL     1      46.671   6.473  13.324  0.00  0.00    +0.000 A 
ATOM     20  C   UNL     1      47.043   5.132  13.513  0.00  0.00    +0.000 A 
ATOM     21  C   UNL     1      46.219   4.080  13.087  0.00  0.00    +0.000 A 
ATOM     22  C   UNL     1      45.035   4.342  12.393  0.00  0.00    +0.000 A 
ATOM     23  C   UNL     1      44.634   5.672  12.235  0.00  0.00    +0.000 A 
ATOM     24  C   UNL     1      45.436   6.719  12.701  0.00  0.00    +0.000 A 
BRANCH  22  25
ATOM     25  C   UNL     1      44.256   3.224  11.741  0.00  0.00    +0.000 C 
BRANCH  25  26
ATOM     26  O   UNL     1      43.833   3.565  10.426  0.00  0.00    +0.000 OA
BRANCH  26  27
ATOM     27  C   UNL     1      44.729   3.280   9.430  0.00  0.00    +0.000 A 
ATOM     28  C   UNL     1      45.224   2.020   9.092  0.00  0.00    +0.000 A 
ATOM     29  C   UNL     1      46.142   1.887   8.047  0.00  0.00    +0.000 A 
ATOM     30  C   UNL     1      46.536   3.030   7.372  0.00  0.00    +0.000 A 
ATOM     31  N   UNL     1      46.081   4.263   7.664  0.00  0.00    +0.000 NA
ATOM     32  C   UNL     1      45.193   4.360   8.684  0.00  0.00    +0.000 A 
ENDBRANCH  26  27
ENDBRANCH  25  26
ENDBRANCH  22  25
ENDBRANCH  18  19
ENDBRANCH   1  18
TORSDOF 8
ENDMDL
MODEL 6
REMARK VINA RESULT:    -6.672      2.389      3.557
REMARK INTER + INTRA:         -11.212
REMARK INTER:                  -9.533
REMARK INTRA:                  -1.679
REMARK UNBOUND:                -1.419
REMARK  Name = 
REMARK  9 active torsions:
REMARK  status: ('A' for Active; 'I' for Inactive)
REMARK    1  A    between atoms: C_1  and  C_2
REMARK    2  A    between atoms: C_2  and  C_3
REMARK    3  A    between atoms: C_3  and  N_4
REMARK    4  A    between atoms: N_4  and  C_5
REMARK    5  A    between atoms: C_5  and  C_6
REMARK    6  A    between atoms: C_9  and  C_10
REMARK    7  A    between atoms: C_10  and  O_11
REMARK    8  A    between atoms: O_11  and  C_12
REMARK    9  A    between atoms: C_20  and  C_22
REMARK                            x       y       z     vdW  Elec       q    Type
REMARK                         _______ _______ _______ _____ _____    ______ ____
ROOT
ATOM      1  N   UNL     1      48.933   7.565  16.217  0.00  0.00    +0.000 N 
ATOM      2  C   UNL     1      48.525   6.894  17.396  0.00  0.00    +0.000 C 
ATOM      3  O   UNL     1      48.266   7.571  18.392  0.00  0.00    +0.000 OA
ENDROOT
BRANCH   2   4
ATOM      4  C   UNL     1      48.435   5.411  17.505  0.00  0.00    +0.000 A 
ATOM      5  C   UNL     1      47.292   4.629  17.451  0.00  0.00    +0.000 A 
ATOM      6  S   UNL     1      47.548   2.947  17.430  0.00  0.00    +0.000 S 
ATOM      7  C   UNL     1      49.223   3.165  17.486  0.00  0.00    +0.000 A 
ATOM      8  N   UNL     1      50.042   2.083  17.438  0.00  0.00    +0.000 NA
ATOM      9  C   UNL     1      51.299   2.372  17.445  0.00  0.00    +0.000 A 
ATOM     10  N   UNL     1      51.802   3.643  17.530  0.00  0.00    +0.000 N 
ATOM     11  C   UNL     1      51.007   4.758  17.731  0.00  0.00    +0.000 A 
ATOM     12  O   UNL     1      51.526   5.810  18.086  0.00  0.00    +0.000 OA
ATOM     13  C   UNL     1      49.581   4.500  17.590  0.00  0.00    +0.000 A 
ATOM     14  H   UNL     1      52.794   3.796  17.627  0.00  0.00    +0.000 HD
ENDBRANCH   2   4
BRANCH   1  15
ATOM     15  C   UNL     1      48.983   9.043  16.262  0.00  0.00    +0.000 C 
BRANCH  15  17
ATOM     16  C   UNL     1      49.384  10.719  14.351  0.00  0.00    +0.000 C 
ATOM     17  C   UNL     1      49.988   9.679  15.283  0.00  0.00    +0.000 C 
ENDBRANCH  15  17
ENDBRANCH   1  15
BRANCH   1  18
ATOM     18  C   UNL     1      49.205   6.970  14.909  0.00  0.00    +0.000 C 
BRANCH  18  19
ATOM     19  C   UNL     1      47.999   6.787  14.002  0.00  0.00    +0.000 A 
ATOM     20  C   UNL     1      47.525   7.766  13.114  0.00  0.00    +0.000 A 
ATOM     21  C   UNL     1      46.446   7.510  12.255  0.00  0.00    +0.000 A 
ATOM     22  C   UNL     1      45.765   6.292  12.314  0.00  0.00    +0.000 A 
ATOM     23  C   UNL     1      46.254   5.294  13.164  0.00  0.00    +0.000 A 
ATOM     24  C   UNL     1      47.359   5.537  13.987  0.00  0.00    +0.000 A 
BRANCH  22  25
ATOM     25  C   UNL     1      44.475   6.088  11.555  0.00  0.00    +0.000 C 
BRANCH  25  26
ATOM     26  O   UNL     1      44.155   4.708  11.409  0.00  0.00    +0.000 OA
BRANCH  26  27
ATOM     27  C   UNL     1      44.622   4.117  10.265  0.00  0.00    +0.000 A 
ATOM     28  C   UNL     1      45.324   4.740   9.233  0.00  0.00    +0.000 A 
ATOM     29  C   UNL     1      45.733   4.001   8.120  0.00  0.00    +0.000 A 
ATOM     30  C   UNL     1      45.421   2.653   8.079  0.00  0.00    +0.000 A 
ATOM     31  N   UNL     1      44.748   2.012   9.054  0.00  0.00    +0.000 NA
ATOM     32  C   UNL     1      44.363   2.757  10.119  0.00  0.00    +0.000 A 
ENDBRANCH  26  27
ENDBRANCH  25  26
ENDBRANCH  22  25
ENDBRANCH  18  19
ENDBRANCH   1  18
TORSDOF 8
ENDMDL
MODEL 7
REMARK VINA RESULT:    -6.600      2.590      4.941
REMARK INTER + INTRA:         -11.105
REMARK INTER:                  -9.802
REMARK INTRA:                  -1.303
REMARK UNBOUND:                -1.419
REMARK  Name = 
REMARK  9 active torsions:
REMARK  status: ('A' for Active; 'I' for Inactive)
REMARK    1  A    between atoms: C_1  and  C_2
REMARK    2  A    between atoms: C_2  and  C_3
REMARK    3  A    between atoms: C_3  and  N_4
REMARK    4  A    between atoms: N_4  and  C_5
REMARK    5  A    between atoms: C_5  and  C_6
REMARK    6  A    between atoms: C_9  and  C_10
REMARK    7  A    between atoms: C_10  and  O_11
REMARK    8  A    between atoms: O_11  and  C_12
REMARK    9  A    between atoms: C_20  and  C_22
REMARK                            x       y       z     vdW  Elec       q    Type
REMARK                         _______ _______ _______ _____ _____    ______ ____
ROOT
ATOM      1  N   UNL     1      48.315   6.936  14.685  0.00  0.00    +0.000 N 
ATOM      2  C   UNL     1      47.931   8.299  14.696  0.00  0.00    +0.000 C 
ATOM      3  O   UNL     1      47.966   8.906  15.768  0.00  0.00    +0.000 OA
ENDROOT
BRANCH   2   4
ATOM      4  C   UNL     1      47.445   9.024  13.488  0.00  0.00    +0.000 A 
ATOM      5  C   UNL     1      46.130   9.266  13.123  0.00  0.00    +0.000 A 
ATOM      6  S   UNL     1      45.914  10.279  11.772  0.00  0.00    +0.000 S 
ATOM      7  C   UNL     1      47.585  10.461  11.596  0.00  0.00    +0.000 A 
ATOM      8  N   UNL     1      48.073  11.276  10.626  0.00  0.00    +0.000 NA
ATOM      9  C   UNL     1      49.358  11.371  10.612  0.00  0.00    +0.000 A 
ATOM     10  N   UNL     1      50.194  10.695  11.462  0.00  0.00    +0.000 N 
ATOM     11  C   UNL     1      49.749   9.745  12.362  0.00  0.00    +0.000 A 
ATOM     12  O   UNL     1      50.556   8.979  12.877  0.00  0.00    +0.000 OA
ATOM     13  C   UNL     1      48.300   9.704  12.512  0.00  0.00    +0.000 A 
ATOM     14  H   UNL     1      51.195  10.739  11.338  0.00  0.00    +0.000 HD
ENDBRANCH   2   4
BRANCH   1  15
ATOM     15  C   UNL     1      48.769   6.349  15.965  0.00  0.00    +0.000 C 
BRANCH  15  17
ATOM     16  C   UNL     1      48.864   4.125  17.255  0.00  0.00    +0.000 C 
ATOM     17  C   UNL     1      48.047   5.049  16.365  0.00  0.00    +0.000 C 
ENDBRANCH  15  17
ENDBRANCH   1  15
BRANCH   1  18
ATOM     18  C   UNL     1      48.428   6.059  13.520  0.00  0.00    +0.000 C 
BRANCH  18  19
ATOM     19  C   UNL     1      47.124   5.718  12.818  0.00  0.00    +0.000 A 
ATOM     20  C   UNL     1      46.146   4.858  13.344  0.00  0.00    +0.000 A 
ATOM     21  C   UNL     1      44.933   4.638  12.675  0.00  0.00    +0.000 A 
ATOM     22  C   UNL     1      44.697   5.215  11.424  0.00  0.00    +0.000 A 
ATOM     23  C   UNL     1      45.645   6.106  10.911  0.00  0.00    +0.000 A 
ATOM     24  C   UNL     1      46.834   6.359  11.602  0.00  0.00    +0.000 A 
BRANCH  22  25
ATOM     25  C   UNL     1      43.497   4.813  10.600  0.00  0.00    +0.000 C 
BRANCH  25  26
ATOM     26  O   UNL     1      43.565   3.451  10.189  0.00  0.00    +0.000 OA
BRANCH  26  27
ATOM     27  C   UNL     1      44.524   3.170   9.253  0.00  0.00    +0.000 A 
ATOM     28  C   UNL     1      45.004   4.033   8.268  0.00  0.00    +0.000 A 
ATOM     29  C   UNL     1      45.987   3.599   7.375  0.00  0.00    +0.000 A 
ATOM     30  C   UNL     1      46.460   2.303   7.502  0.00  0.00    +0.000 A 
ATOM     31  N   UNL     1      46.026   1.439   8.439  0.00  0.00    +0.000 NA
ATOM     32  C   UNL     1      45.070   1.890   9.289  0.00  0.00    +0.000 A 
ENDBRANCH  26  27
ENDBRANCH  25  26
ENDBRANCH  22  25
ENDBRANCH  18  19
ENDBRANCH   1  18
TORSDOF 8
ENDMDL
MODEL 8
REMARK VINA RESULT:    -6.254      2.902      4.810
REMARK INTER + INTRA:         -10.598
REMARK INTER:                  -9.134
REMARK INTRA:                  -1.464
REMARK UNBOUND:                -1.419
REMARK  Name = 
REMARK  9 active torsions:
REMARK  status: ('A' for Active; 'I' for Inactive)
REMARK    1  A    between atoms: C_1  and  C_2
REMARK    2  A    between atoms: C_2  and  C_3
REMARK    3  A    between atoms: C_3  and  N_4
REMARK    4  A    between atoms: N_4  and  C_5
REMARK    5  A    between atoms: C_5  and  C_6
REMARK    6  A    between atoms: C_9  and  C_10
REMARK    7  A    between atoms: C_10  and  O_11
REMARK    8  A    between atoms: O_11  and  C_12
REMARK    9  A    between atoms: C_20  and  C_22
REMARK                            x       y       z     vdW  Elec       q    Type
REMARK                         _______ _______ _______ _____ _____    ______ ____
ROOT
ATOM      1  N   UNL     1      49.294   7.567  17.196  0.00  0.00    +0.000 N 
ATOM      2  C   UNL     1      48.703   6.525  17.952  0.00  0.00    +0.000 C 
ATOM      3  O   UNL     1      48.312   6.781  19.092  0.00  0.00    +0.000 OA
ENDROOT
BRANCH   2   4
ATOM      4  C   UNL     1      48.571   5.126  17.456  0.00  0.00    +0.000 A 
ATOM      5  C   UNL     1      47.534   4.590  16.709  0.00  0.00    +0.000 A 
ATOM      6  S   UNL     1      47.771   3.000  16.150  0.00  0.00    +0.000 S 
ATOM      7  C   UNL     1      49.295   2.933  16.877  0.00  0.00    +0.000 A 
ATOM      8  N   UNL     1      50.065   1.826  16.721  0.00  0.00    +0.000 NA
ATOM      9  C   UNL     1      51.223   1.904  17.283  0.00  0.00    +0.000 A 
ATOM     10  N   UNL     1      51.659   2.978  18.013  0.00  0.00    +0.000 N 
ATOM     11  C   UNL     1      50.854   4.060  18.320  0.00  0.00    +0.000 A 
ATOM     12  O   UNL     1      51.201   4.835  19.204  0.00  0.00    +0.000 OA
ATOM     13  C   UNL     1      49.591   4.083  17.595  0.00  0.00    +0.000 A 
ATOM     14  H   UNL     1      52.538   2.939  18.506  0.00  0.00    +0.000 HD
ENDBRANCH   2   4
BRANCH   1  15
ATOM     15  C   UNL     1      49.363   8.904  17.824  0.00  0.00    +0.000 C 
BRANCH  15  17
ATOM     16  C   UNL     1      48.311  11.187  17.274  0.00  0.00    +0.000 C 
ATOM     17  C   UNL     1      48.078   9.742  17.690  0.00  0.00    +0.000 C 
ENDBRANCH  15  17
ENDBRANCH   1  15
BRANCH   1  18
ATOM     18  C   UNL     1      49.745   7.505  15.806  0.00  0.00    +0.000 C 
BRANCH  18  19
ATOM     19  C   UNL     1      48.649   7.509  14.753  0.00  0.00    +0.000 A 
ATOM     20  C   UNL     1      47.790   8.594  14.513  0.00  0.00    +0.000 A 
ATOM     21  C   UNL     1      46.842   8.558  13.480  0.00  0.00    +0.000 A 
ATOM     22  C   UNL     1      46.677   7.405  12.707  0.00  0.00    +0.000 A 
ATOM     23  C   UNL     1      47.555   6.335  12.909  0.00  0.00    +0.000 A 
ATOM     24  C   UNL     1      48.530   6.392  13.911  0.00  0.00    +0.000 A 
BRANCH  22  25
ATOM     25  C   UNL     1      45.520   7.277  11.745  0.00  0.00    +0.000 C 
BRANCH  25  26
ATOM     26  O   UNL     1      45.648   6.133  10.908  0.00  0.00    +0.000 OA
BRANCH  26  27
ATOM     27  C   UNL     1      44.845   5.073  11.237  0.00  0.00    +0.000 A 
ATOM     28  C   UNL     1      44.181   4.877  12.449  0.00  0.00    +0.000 A 
ATOM     29  C   UNL     1      43.396   3.738  12.640  0.00  0.00    +0.000 A 
ATOM     30  C   UNL     1      43.303   2.825  11.602  0.00  0.00    +0.000 A 
ATOM     31  N   UNL     1      43.925   2.977  10.418  0.00  0.00    +0.000 NA
ATOM     32  C   UNL     1      44.681   4.092  10.264  0.00  0.00    +0.000 A 
ENDBRANCH  26  27
ENDBRANCH  25  26
ENDBRANCH  22  25
ENDBRANCH  18  19
ENDBRANCH   1  18
TORSDOF 8
ENDMDL
MODEL 9
REMARK VINA RESULT:    -6.097      3.256      4.882
REMARK INTER + INTRA:         -10.368
REMARK INTER:                  -9.049
REMARK INTRA:                  -1.319
REMARK UNBOUND:                -1.419
REMARK  Name = 
REMARK  9 active torsions:
REMARK  status: ('A' for Active; 'I' for Inactive)
REMARK    1  A    between atoms: C_1  and  C_2
REMARK    2  A    between atoms: C_2  and  C_3
REMARK    3  A    between atoms: C_3  and  N_4
REMARK    4  A    between atoms: N_4  and  C_5
REMARK    5  A    between atoms: C_5  and  C_6
REMARK    6  A    between atoms: C_9  and  C_10
REMARK    7  A    between atoms: C_10  and  O_11
REMARK    8  A    between atoms: O_11  and  C_12
REMARK    9  A    between atoms: C_20  and  C_22
REMARK                            x       y       z     vdW  Elec       q    Type
REMARK                         _______ _______ _______ _____ _____    ______ ____
ROOT
ATOM      1  N   UNL     1      49.584   6.933  17.167  0.00  0.00    +0.000 N 
ATOM      2  C   UNL     1      50.014   6.068  18.203  0.00  0.00    +0.000 C 
ATOM      3  O   UNL     1      49.375   6.058  19.256  0.00  0.00    +0.000 OA
ENDROOT
BRANCH   2   4
ATOM      4  C   UNL     1      51.223   5.204  18.101  0.00  0.00    +0.000 A 
ATOM      5  C   UNL     1      52.534   5.551  18.387  0.00  0.00    +0.000 A 
ATOM      6  S   UNL     1      53.663   4.279  18.338  0.00  0.00    +0.000 S 
ATOM      7  C   UNL     1      52.451   3.172  17.930  0.00  0.00    +0.000 A 
ATOM      8  N   UNL     1      52.761   1.857  17.794  0.00  0.00    +0.000 NA
ATOM      9  C   UNL     1      51.752   1.102  17.523  0.00  0.00    +0.000 A 
ATOM     10  N   UNL     1      50.471   1.554  17.347  0.00  0.00    +0.000 N 
ATOM     11  C   UNL     1      50.139   2.897  17.329  0.00  0.00    +0.000 A 
ATOM     12  O   UNL     1      49.051   3.241  16.883  0.00  0.00    +0.000 OA
ATOM     13  C   UNL     1      51.214   3.777  17.767  0.00  0.00    +0.000 A 
ATOM     14  H   UNL     1      49.743   0.924  17.043  0.00  0.00    +0.000 HD
ENDBRANCH   2   4
BRANCH   1  15
ATOM     15  C   UNL     1      48.368   7.738  17.416  0.00  0.00    +0.000 C 
BRANCH  15  17
ATOM     16  C   UNL     1      49.544   9.772  18.467  0.00  0.00    +0.000 C 
ATOM     17  C   UNL     1      48.594   9.262  17.394  0.00  0.00    +0.000 C 
ENDBRANCH  15  17
ENDBRANCH   1  15
BRANCH   1  18
ATOM     18  C   UNL     1      50.140   7.042  15.818  0.00  0.00    +0.000 C 
BRANCH  18  19
ATOM     19  C   UNL     1      49.138   6.942  14.679  0.00  0.00    +0.000 A 
ATOM     20  C   UNL     1      49.155   7.763  13.539  0.00  0.00    +0.000 A 
ATOM     21  C   UNL     1      48.241   7.576  12.492  0.00  0.00    +0.000 A 
ATOM     22  C   UNL     1      47.237   6.609  12.591  0.00  0.00    +0.000 A 
ATOM     23  C   UNL     1      47.236   5.759  13.701  0.00  0.00    +0.000 A 
ATOM     24  C   UNL     1      48.177   5.919  14.723  0.00  0.00    +0.000 A 
BRANCH  22  25
ATOM     25  C   UNL     1      46.121   6.546  11.575  0.00  0.00    +0.000 C 
BRANCH  25  26
ATOM     26  O   UNL     1      45.294   5.402  11.763  0.00  0.00    +0.000 OA
BRANCH  26  27
ATOM     27  C   UNL     1      45.110   4.624  10.650  0.00  0.00    +0.000 A 
ATOM     28  C   UNL     1      45.557   4.901   9.358  0.00  0.00    +0.000 A 
ATOM     29  C   UNL     1      45.287   4.008   8.318  0.00  0.00    +0.000 A 
ATOM     30  C   UNL     1      44.571   2.859   8.612  0.00  0.00    +0.000 A 
ATOM     31  N   UNL     1      44.124   2.553   9.844  0.00  0.00    +0.000 NA
ATOM     32  C   UNL     1      44.400   3.441  10.832  0.00  0.00    +0.000 A 
ENDBRANCH  26  27
ENDBRANCH  25  26
ENDBRANCH  22  25
ENDBRANCH  18  19
ENDBRANCH   1  18
TORSDOF 8
ENDMDL
