MODEL 1
REMARK VINA RESULT:    -7.689      0.000      0.000
REMARK INTER + INTRA:         -10.875
REMARK INTER:                  -9.936
REMARK INTRA:                  -0.939
REMARK UNBOUND:                -0.939
REMARK  Name = 
REMARK  5 active torsions:
REMARK  status: ('A' for Active; 'I' for Inactive)
REMARK    1  A    between atoms: C_2  and  C_19
REMARK    2  A    between atoms: N_3  and  C_4
REMARK    3  A    between atoms: C_4  and  C_5
REMARK    4  A    between atoms: C_8  and  O_9
REMARK    5  A    between atoms: O_9  and  C_10
REMARK                            x       y       z     vdW  Elec       q    Type
REMARK                         _______ _______ _______ _____ _____    ______ ____
ROOT
ATOM      1  O   UNL     1      49.822   7.069  14.144  0.00  0.00    +0.000 OA
ATOM      2  C   UNL     1      48.956   7.017  15.014  0.00  0.00    +0.000 C 
ATOM      3  N   UNL     1      47.707   7.555  14.847  0.00  0.00    +0.000 N 
ATOM      4  H   UNL     1      47.109   7.668  15.658  0.00  0.00    +0.000 HD
ENDROOT
BRANCH   2   5
ATOM      5  C   UNL     1      49.187   6.312  16.281  0.00  0.00    +0.000 A 
ATOM      6  C   UNL     1      50.115   6.805  17.187  0.00  0.00    +0.000 A 
ATOM      7  S   UNL     1      50.279   5.847  18.587  0.00  0.00    +0.000 S 
ATOM      8  C   UNL     1      49.078   4.764  18.056  0.00  0.00    +0.000 A 
ATOM      9  N   UNL     1      48.704   3.702  18.819  0.00  0.00    +0.000 NA
ATOM     10  C   UNL     1      47.753   2.991  18.311  0.00  0.00    +0.000 A 
ATOM     11  N   UNL     1      47.147   3.239  17.108  0.00  0.00    +0.000 N 
ATOM     12  C   UNL     1      47.543   4.254  16.271  0.00  0.00    +0.000 A 
ATOM     13  O   UNL     1      47.068   4.366  15.145  0.00  0.00    +0.000 OA
ATOM     14  C   UNL     1      48.580   5.113  16.812  0.00  0.00    +0.000 A 
ATOM     15  H   UNL     1      46.427   2.626  16.755  0.00  0.00    +0.000 HD
ENDBRANCH   2   5
BRANCH   3  16
ATOM     16  C   UNL     1      47.350   8.346  13.700  0.00  0.00    +0.000 C 
BRANCH  16  17
ATOM     17  C   UNL     1      46.471   7.563  12.760  0.00  0.00    +0.000 A 
ATOM     18  C   UNL     1      46.888   6.306  12.308  0.00  0.00    +0.000 A 
ATOM     19  C   UNL     1      46.081   5.558  11.455  0.00  0.00    +0.000 A 
ATOM     20  C   UNL     1      44.829   6.042  11.071  0.00  0.00    +0.000 A 
ATOM     21  C   UNL     1      44.435   7.324  11.455  0.00  0.00    +0.000 A 
ATOM     22  C   UNL     1      45.255   8.084  12.294  0.00  0.00    +0.000 A 
BRANCH  20  23
ATOM     23  O   UNL     1      43.961   5.338  10.264  0.00  0.00    +0.000 OA
BRANCH  23  24
ATOM     24  C   UNL     1      44.476   4.272   9.530  0.00  0.00    +0.000 A 
ATOM     25  N   UNL     1      45.185   4.534   8.405  0.00  0.00    +0.000 NA
ATOM     26  C   UNL     1      45.613   3.471   7.715  0.00  0.00    +0.000 A 
ATOM     27  N   UNL     1      45.433   2.190   8.063  0.00  0.00    +0.000 NA
ATOM     28  C   UNL     1      44.760   1.984   9.218  0.00  0.00    +0.000 A 
ATOM     29  C   UNL     1      44.254   2.994  10.005  0.00  0.00    +0.000 A 
ATOM     30 CL   UNL     1      43.400   2.642  11.449  0.00  0.00    +0.000 Cl
ENDBRANCH  23  24
ENDBRANCH  20  23
ENDBRANCH  16  17
ENDBRANCH   3  16
TORSDOF 5
ENDMDL
MODEL 2
REMARK VINA RESULT:    -7.152      1.318      1.414
REMARK INTER + INTRA:         -10.182
REMARK INTER:                  -9.213
REMARK INTRA:                  -0.969
REMARK UNBOUND:                -0.939
REMARK  Name = 
REMARK  5 active torsions:
REMARK  status: ('A' for Active; 'I' for Inactive)
REMARK    1  A    between atoms: C_2  and  C_19
REMARK    2  A    between atoms: N_3  and  C_4
REMARK    3  A    between atoms: C_4  and  C_5
REMARK    4  A    between atoms: C_8  and  O_9
REMARK    5  A    between atoms: O_9  and  C_10
REMARK                            x       y       z     vdW  Elec       q    Type
REMARK                         _______ _______ _______ _____ _____    ______ ____
ROOT
ATOM      1  O   UNL     1      49.484   9.509  15.281  0.00  0.00    +0.000 OA
ATOM      2  C   UNL     1      48.630   8.729  15.694  0.00  0.00    +0.000 C 
ATOM      3  N   UNL     1      47.567   8.323  14.931  0.00  0.00    +0.000 N 
ATOM      4  H   UNL     1      46.791   7.852  15.381  0.00  0.00    +0.000 HD
ENDROOT
BRANCH   2   5
ATOM      5  C   UNL     1      48.728   8.126  17.030  0.00  0.00    +0.000 A 
ATOM      6  C   UNL     1      48.836   8.940  18.149  0.00  0.00    +0.000 A 
ATOM      7  S   UNL     1      48.972   8.075  19.611  0.00  0.00    +0.000 S 
ATOM      8  C   UNL     1      48.839   6.581  18.807  0.00  0.00    +0.000 A 
ATOM      9  N   UNL     1      48.854   5.409  19.496  0.00  0.00    +0.000 NA
ATOM     10  C   UNL     1      48.703   4.358  18.762  0.00  0.00    +0.000 A 
ATOM     11  N   UNL     1      48.545   4.369  17.402  0.00  0.00    +0.000 N 
ATOM     12  C   UNL     1      48.599   5.522  16.657  0.00  0.00    +0.000 A 
ATOM     13  O   UNL     1      48.586   5.483  15.430  0.00  0.00    +0.000 OA
ATOM     14  C   UNL     1      48.724   6.740  17.436  0.00  0.00    +0.000 A 
ATOM     15  H   UNL     1      48.459   3.508  16.883  0.00  0.00    +0.000 HD
ENDBRANCH   2   5
BRANCH   3  16
ATOM     16  C   UNL     1      47.285   8.881  13.635  0.00  0.00    +0.000 C 
BRANCH  16  17
ATOM     17  C   UNL     1      46.427   7.947  12.823  0.00  0.00    +0.000 A 
ATOM     18  C   UNL     1      46.747   6.586  12.767  0.00  0.00    +0.000 A 
ATOM     19  C   UNL     1      45.954   5.703  12.037  0.00  0.00    +0.000 A 
ATOM     20  C   UNL     1      44.809   6.164  11.384  0.00  0.00    +0.000 A 
ATOM     21  C   UNL     1      44.522   7.529  11.372  0.00  0.00    +0.000 A 
ATOM     22  C   UNL     1      45.330   8.419  12.087  0.00  0.00    +0.000 A 
BRANCH  20  23
ATOM     23  O   UNL     1      43.958   5.341  10.681  0.00  0.00    +0.000 OA
BRANCH  23  24
ATOM     24  C   UNL     1      44.523   4.379   9.847  0.00  0.00    +0.000 A 
ATOM     25  N   UNL     1      45.290   4.785   8.807  0.00  0.00    +0.000 NA
ATOM     26  C   UNL     1      45.767   3.820   8.012  0.00  0.00    +0.000 A 
ATOM     27  N   UNL     1      45.582   2.504   8.184  0.00  0.00    +0.000 NA
ATOM     28  C   UNL     1      44.848   2.151   9.263  0.00  0.00    +0.000 A 
ATOM     29  C   UNL     1      44.288   3.050  10.143  0.00  0.00    +0.000 A 
ATOM     30 CL   UNL     1      43.358   2.514  11.480  0.00  0.00    +0.000 Cl
ENDBRANCH  23  24
ENDBRANCH  20  23
ENDBRANCH  16  17
ENDBRANCH   3  16
TORSDOF 5
ENDMDL
MODEL 3
REMARK VINA RESULT:    -7.104      1.919      2.502
REMARK INTER + INTRA:         -10.120
REMARK INTER:                  -9.210
REMARK INTRA:                  -0.910
REMARK UNBOUND:                -0.939
REMARK  Name = 
REMARK  5 active torsions:
REMARK  status: ('A' for Active; 'I' for Inactive)
REMARK    1  A    between atoms: C_2  and  C_19
REMARK    2  A    between atoms: N_3  and  C_4
REMARK    3  A    between atoms: C_4  and  C_5
REMARK    4  A    between atoms: C_8  and  O_9
REMARK    5  A    between atoms: O_9  and  C_10
REMARK                            x       y       z     vdW  Elec       q    Type
REMARK                         _______ _______ _______ _____ _____    ______ ____
ROOT
ATOM      1  O   UNL     1      50.130   6.940  15.014  0.00  0.00    +0.000 OA
ATOM      2  C   UNL     1      49.090   7.008  15.664  0.00  0.00    +0.000 C 
ATOM      3  N   UNL     1      47.917   7.480  15.136  0.00  0.00    +0.000 N 
ATOM      4  H   UNL     1      47.154   7.709  15.763  0.00  0.00    +0.000 HD
ENDROOT
BRANCH   2   5
ATOM      5  C   UNL     1      49.022   6.525  17.049  0.00  0.00    +0.000 A 
ATOM      6  C   UNL     1      49.505   5.263  17.365  0.00  0.00    +0.000 A 
ATOM      7  S   UNL     1      49.317   4.852  19.009  0.00  0.00    +0.000 S 
ATOM      8  C   UNL     1      48.630   6.367  19.369  0.00  0.00    +0.000 A 
ATOM      9  N   UNL     1      48.259   6.686  20.637  0.00  0.00    +0.000 NA
ATOM     10  C   UNL     1      47.792   7.882  20.771  0.00  0.00    +0.000 A 
ATOM     11  N   UNL     1      47.656   8.787  19.751  0.00  0.00    +0.000 N 
ATOM     12  C   UNL     1      47.947   8.484  18.444  0.00  0.00    +0.000 A 
ATOM     13  O   UNL     1      47.688   9.273  17.539  0.00  0.00    +0.000 OA
ATOM     14  C   UNL     1      48.518   7.165  18.242  0.00  0.00    +0.000 A 
ATOM     15  H   UNL     1      47.257   9.699  19.919  0.00  0.00    +0.000 HD
ENDBRANCH   2   5
BRANCH   3  16
ATOM     16  C   UNL     1      47.836   8.064  13.823  0.00  0.00    +0.000 C 
BRANCH  16  17
ATOM     17  C   UNL     1      46.825   7.340  12.975  0.00  0.00    +0.000 A 
ATOM     18  C   UNL     1      45.874   8.073  12.256  0.00  0.00    +0.000 A 
ATOM     19  C   UNL     1      44.943   7.422  11.450  0.00  0.00    +0.000 A 
ATOM     20  C   UNL     1      44.973   6.032  11.324  0.00  0.00    +0.000 A 
ATOM     21  C   UNL     1      45.867   5.287  12.093  0.00  0.00    +0.000 A 
ATOM     22  C   UNL     1      46.788   5.939  12.919  0.00  0.00    +0.000 A 
BRANCH  20  23
ATOM     23  O   UNL     1      44.110   5.328  10.513  0.00  0.00    +0.000 OA
BRANCH  23  24
ATOM     24  C   UNL     1      44.648   4.330   9.703  0.00  0.00    +0.000 A 
ATOM     25  N   UNL     1      45.424   4.687   8.652  0.00  0.00    +0.000 NA
ATOM     26  C   UNL     1      45.873   3.690   7.881  0.00  0.00    +0.000 A 
ATOM     27  N   UNL     1      45.651   2.385   8.086  0.00  0.00    +0.000 NA
ATOM     28  C   UNL     1      44.909   2.079   9.175  0.00  0.00    +0.000 A 
ATOM     29  C   UNL     1      44.376   3.015  10.032  0.00  0.00    +0.000 A 
ATOM     30 CL   UNL     1      43.434   2.539  11.383  0.00  0.00    +0.000 Cl
ENDBRANCH  23  24
ENDBRANCH  20  23
ENDBRANCH  16  17
ENDBRANCH   3  16
TORSDOF 5
ENDMDL
MODEL 4
REMARK VINA RESULT:    -7.084      3.450      4.408
REMARK INTER + INTRA:         -10.094
REMARK INTER:                  -9.600
REMARK INTRA:                  -0.494
REMARK UNBOUND:                -0.939
REMARK  Name = 
REMARK  5 active torsions:
REMARK  status: ('A' for Active; 'I' for Inactive)
REMARK    1  A    between atoms: C_2  and  C_19
REMARK    2  A    between atoms: N_3  and  C_4
REMARK    3  A    between atoms: C_4  and  C_5
REMARK    4  A    between atoms: C_8  and  O_9
REMARK    5  A    between atoms: O_9  and  C_10
REMARK                            x       y       z     vdW  Elec       q    Type
REMARK                         _______ _______ _______ _____ _____    ______ ____
ROOT
ATOM      1  O   UNL     1      45.739   8.914  12.545  0.00  0.00    +0.000 OA
ATOM      2  C   UNL     1      46.385   8.085  13.181  0.00  0.00    +0.000 C 
ATOM      3  N   UNL     1      45.969   6.789  13.343  0.00  0.00    +0.000 N 
ATOM      4  H   UNL     1      46.425   6.211  14.040  0.00  0.00    +0.000 HD
ENDROOT
BRANCH   2   5
ATOM      5  C   UNL     1      47.690   8.417  13.765  0.00  0.00    +0.000 A 
ATOM      6  C   UNL     1      47.765   8.878  15.073  0.00  0.00    +0.000 A 
ATOM      7  S   UNL     1      49.351   9.245  15.577  0.00  0.00    +0.000 S 
ATOM      8  C   UNL     1      50.002   8.754  14.084  0.00  0.00    +0.000 A 
ATOM      9  N   UNL     1      51.342   8.789  13.856  0.00  0.00    +0.000 NA
ATOM     10  C   UNL     1      51.697   8.348  12.696  0.00  0.00    +0.000 A 
ATOM     11  N   UNL     1      50.835   7.882  11.739  0.00  0.00    +0.000 N 
ATOM     12  C   UNL     1      49.471   7.898  11.895  0.00  0.00    +0.000 A 
ATOM     13  O   UNL     1      48.725   7.596  10.969  0.00  0.00    +0.000 OA
ATOM     14  C   UNL     1      49.018   8.343  13.200  0.00  0.00    +0.000 A 
ATOM     15  H   UNL     1      51.177   7.576  10.840  0.00  0.00    +0.000 HD
ENDBRANCH   2   5
BRANCH   3  16
ATOM     16  C   UNL     1      44.680   6.327  12.902  0.00  0.00    +0.000 C 
BRANCH  16  17
ATOM     17  C   UNL     1      44.777   5.674  11.548  0.00  0.00    +0.000 A 
ATOM     18  C   UNL     1      43.746   4.837  11.109  0.00  0.00    +0.000 A 
ATOM     19  C   UNL     1      43.808   4.239   9.852  0.00  0.00    +0.000 A 
ATOM     20  C   UNL     1      44.886   4.501   9.004  0.00  0.00    +0.000 A 
ATOM     21  C   UNL     1      45.954   5.274   9.460  0.00  0.00    +0.000 A 
ATOM     22  C   UNL     1      45.901   5.856  10.730  0.00  0.00    +0.000 A 
BRANCH  20  23
ATOM     23  O   UNL     1      44.991   3.979   7.733  0.00  0.00    +0.000 OA
BRANCH  23  24
ATOM     24  C   UNL     1      46.036   3.094   7.478  0.00  0.00    +0.000 A 
ATOM     25  N   UNL     1      47.092   3.521   6.745  0.00  0.00    +0.000 NA
ATOM     26  C   UNL     1      48.042   2.614   6.492  0.00  0.00    +0.000 A 
ATOM     27  N   UNL     1      48.050   1.349   6.931  0.00  0.00    +0.000 NA
ATOM     28  C   UNL     1      46.996   0.986   7.696  0.00  0.00    +0.000 A 
ATOM     29  C   UNL     1      45.948   1.822   8.011  0.00  0.00    +0.000 A 
ATOM     30 CL   UNL     1      44.643   1.274   8.978  0.00  0.00    +0.000 Cl
ENDBRANCH  23  24
ENDBRANCH  20  23
ENDBRANCH  16  17
ENDBRANCH   3  16
TORSDOF 5
ENDMDL
MODEL 5
REMARK VINA RESULT:    -6.908      2.003      2.380
REMARK INTER + INTRA:          -9.867
REMARK INTER:                  -8.489
REMARK INTRA:                  -1.378
REMARK UNBOUND:                -0.939
REMARK  Name = 
REMARK  5 active torsions:
REMARK  status: ('A' for Active; 'I' for Inactive)
REMARK    1  A    between atoms: C_2  and  C_19
REMARK    2  A    between atoms: N_3  and  C_4
REMARK    3  A    between atoms: C_4  and  C_5
REMARK    4  A    between atoms: C_8  and  O_9
REMARK    5  A    between atoms: O_9  and  C_10
REMARK                            x       y       z     vdW  Elec       q    Type
REMARK                         _______ _______ _______ _____ _____    ______ ____
ROOT
ATOM      1  O   UNL     1      47.983   9.178  16.720  0.00  0.00    +0.000 OA
ATOM      2  C   UNL     1      48.645   8.157  16.555  0.00  0.00    +0.000 C 
ATOM      3  N   UNL     1      49.293   7.878  15.381  0.00  0.00    +0.000 N 
ATOM      4  H   UNL     1      49.646   6.940  15.226  0.00  0.00    +0.000 HD
ENDROOT
BRANCH   2   5
ATOM      5  C   UNL     1      48.836   7.186  17.640  0.00  0.00    +0.000 A 
ATOM      6  C   UNL     1      49.278   7.617  18.883  0.00  0.00    +0.000 A 
ATOM      7  S   UNL     1      49.475   6.355  20.012  0.00  0.00    +0.000 S 
ATOM      8  C   UNL     1      48.927   5.193  18.897  0.00  0.00    +0.000 A 
ATOM      9  N   UNL     1      48.824   3.882  19.242  0.00  0.00    +0.000 NA
ATOM     10  C   UNL     1      48.355   3.121  18.311  0.00  0.00    +0.000 A 
ATOM     11  N   UNL     1      47.987   3.548  17.062  0.00  0.00    +0.000 N 
ATOM     12  C   UNL     1      48.145   4.847  16.645  0.00  0.00    +0.000 A 
ATOM     13  O   UNL     1      47.928   5.167  15.480  0.00  0.00    +0.000 OA
ATOM     14  C   UNL     1      48.627   5.757  17.668  0.00  0.00    +0.000 A 
ATOM     15  H   UNL     1      47.653   2.895  16.370  0.00  0.00    +0.000 HD
ENDBRANCH   2   5
BRANCH   3  16
ATOM     16  C   UNL     1      49.141   8.685  14.200  0.00  0.00    +0.000 C 
BRANCH  16  17
ATOM     17  C   UNL     1      48.031   8.159  13.329  0.00  0.00    +0.000 A 
ATOM     18  C   UNL     1      48.265   7.057  12.499  0.00  0.00    +0.000 A 
ATOM     19  C   UNL     1      47.246   6.544  11.701  0.00  0.00    +0.000 A 
ATOM     20  C   UNL     1      45.968   7.104  11.750  0.00  0.00    +0.000 A 
ATOM     21  C   UNL     1      45.742   8.248  12.516  0.00  0.00    +0.000 A 
ATOM     22  C   UNL     1      46.772   8.777  13.301  0.00  0.00    +0.000 A 
BRANCH  20  23
ATOM     23  O   UNL     1      44.903   6.622  11.020  0.00  0.00    +0.000 OA
BRANCH  23  24
ATOM     24  C   UNL     1      44.393   5.372  11.363  0.00  0.00    +0.000 A 
ATOM     25  N   UNL     1      43.826   5.208  12.583  0.00  0.00    +0.000 NA
ATOM     26  C   UNL     1      43.397   3.975  12.875  0.00  0.00    +0.000 A 
ATOM     27  N   UNL     1      43.449   2.916  12.056  0.00  0.00    +0.000 NA
ATOM     28  C   UNL     1      43.982   3.144  10.834  0.00  0.00    +0.000 A 
ATOM     29  C   UNL     1      44.474   4.362  10.423  0.00  0.00    +0.000 A 
ATOM     30 CL   UNL     1      45.146   4.559   8.858  0.00  0.00    +0.000 Cl
ENDBRANCH  23  24
ENDBRANCH  20  23
ENDBRANCH  16  17
ENDBRANCH   3  16
TORSDOF 5
ENDMDL
MODEL 6
REMARK VINA RESULT:    -6.599      3.860      7.639
REMARK INTER + INTRA:          -9.467
REMARK INTER:                  -8.452
REMARK INTRA:                  -1.014
REMARK UNBOUND:                -0.939
REMARK  Name = 
REMARK  5 active torsions:
REMARK  status: ('A' for Active; 'I' for Inactive)
REMARK    1  A    between atoms: C_2  and  C_19
REMARK    2  A    between atoms: N_3  and  C_4
REMARK    3  A    between atoms: C_4  and  C_5
REMARK    4  A    between atoms: C_8  and  O_9
REMARK    5  A    between atoms: O_9  and  C_10
REMARK                            x       y       z     vdW  Elec       q    Type
REMARK                         _______ _______ _______ _____ _____    ______ ____
ROOT
ATOM      1  O   UNL     1      48.548   7.716  12.576  0.00  0.00    +0.000 OA
ATOM      2  C   UNL     1      47.485   7.711  13.189  0.00  0.00    +0.000 C 
ATOM      3  N   UNL     1      47.315   8.364  14.382  0.00  0.00    +0.000 N 
ATOM      4  H   UNL     1      46.495   8.158  14.942  0.00  0.00    +0.000 HD
ENDROOT
BRANCH   2   5
ATOM      5  C   UNL     1      46.293   7.047  12.647  0.00  0.00    +0.000 A 
ATOM      6  C   UNL     1      45.353   7.783  11.938  0.00  0.00    +0.000 A 
ATOM      7  S   UNL     1      44.021   6.861  11.409  0.00  0.00    +0.000 S 
ATOM      8  C   UNL     1      44.675   5.433  12.064  0.00  0.00    +0.000 A 
ATOM      9  N   UNL     1      44.032   4.243  11.934  0.00  0.00    +0.000 NA
ATOM     10  C   UNL     1      44.664   3.238  12.441  0.00  0.00    +0.000 A 
ATOM     11  N   UNL     1      45.877   3.314  13.073  0.00  0.00    +0.000 N 
ATOM     12  C   UNL     1      46.527   4.504  13.293  0.00  0.00    +0.000 A 
ATOM     13  O   UNL     1      47.545   4.551  13.977  0.00  0.00    +0.000 OA
ATOM     14  C   UNL     1      45.882   5.663  12.704  0.00  0.00    +0.000 A 
ATOM     15  H   UNL     1      46.305   2.493  13.473  0.00  0.00    +0.000 HD
ENDBRANCH   2   5
BRANCH   3  16
ATOM     16  C   UNL     1      48.402   8.992  15.084  0.00  0.00    +0.000 C 
BRANCH  16  17
ATOM     17  C   UNL     1      49.121   7.999  15.960  0.00  0.00    +0.000 A 
ATOM     18  C   UNL     1      48.569   7.640  17.194  0.00  0.00    +0.000 A 
ATOM     19  C   UNL     1      49.208   6.709  18.010  0.00  0.00    +0.000 A 
ATOM     20  C   UNL     1      50.390   6.099  17.585  0.00  0.00    +0.000 A 
ATOM     21  C   UNL     1      50.988   6.504  16.391  0.00  0.00    +0.000 A 
ATOM     22  C   UNL     1      50.357   7.455  15.583  0.00  0.00    +0.000 A 
BRANCH  20  23
ATOM     23  O   UNL     1      51.052   5.140  18.320  0.00  0.00    +0.000 OA
BRANCH  23  24
ATOM     24  C   UNL     1      51.011   3.825  17.862  0.00  0.00    +0.000 A 
ATOM     25  N   UNL     1      49.878   3.372  17.273  0.00  0.00    +0.000 NA
ATOM     26  C   UNL     1      49.879   2.089  16.896  0.00  0.00    +0.000 A 
ATOM     27  N   UNL     1      50.909   1.240  17.018  0.00  0.00    +0.000 NA
ATOM     28  C   UNL     1      52.031   1.755  17.570  0.00  0.00    +0.000 A 
ATOM     29  C   UNL     1      52.147   3.053  18.013  0.00  0.00    +0.000 A 
ATOM     30 CL   UNL     1      53.605   3.619  18.715  0.00  0.00    +0.000 Cl
ENDBRANCH  23  24
ENDBRANCH  20  23
ENDBRANCH  16  17
ENDBRANCH   3  16
TORSDOF 5
ENDMDL
MODEL 7
REMARK VINA RESULT:    -6.522      4.540      7.916
REMARK INTER + INTRA:          -9.367
REMARK INTER:                  -8.407
REMARK INTRA:                  -0.960
REMARK UNBOUND:                -0.939
REMARK  Name = 
REMARK  5 active torsions:
REMARK  status: ('A' for Active; 'I' for Inactive)
REMARK    1  A    between atoms: C_2  and  C_19
REMARK    2  A    between atoms: N_3  and  C_4
REMARK    3  A    between atoms: C_4  and  C_5
REMARK    4  A    between atoms: C_8  and  O_9
REMARK    5  A    between atoms: O_9  and  C_10
REMARK                            x       y       z     vdW  Elec       q    Type
REMARK                         _______ _______ _______ _____ _____    ______ ____
ROOT
ATOM      1  O   UNL     1      44.355   7.592  11.205  0.00  0.00    +0.000 OA
ATOM      2  C   UNL     1      44.890   6.661  11.802  0.00  0.00    +0.000 C 
ATOM      3  N   UNL     1      45.803   6.853  12.806  0.00  0.00    +0.000 N 
ATOM      4  H   UNL     1      46.362   6.067  13.118  0.00  0.00    +0.000 HD
ENDROOT
BRANCH   2   5
ATOM      5  C   UNL     1      44.536   5.266  11.515  0.00  0.00    +0.000 A 
ATOM      6  C   UNL     1      43.770   4.547  12.423  0.00  0.00    +0.000 A 
ATOM      7  S   UNL     1      43.480   2.936  11.946  0.00  0.00    +0.000 S 
ATOM      8  C   UNL     1      44.325   3.155  10.485  0.00  0.00    +0.000 A 
ATOM      9  N   UNL     1      44.434   2.147   9.579  0.00  0.00    +0.000 NA
ATOM     10  C   UNL     1      45.065   2.468   8.499  0.00  0.00    +0.000 A 
ATOM     11  N   UNL     1      45.604   3.701   8.245  0.00  0.00    +0.000 N 
ATOM     12  C   UNL     1      45.584   4.725   9.160  0.00  0.00    +0.000 A 
ATOM     13  O   UNL     1      46.190   5.771   8.951  0.00  0.00    +0.000 OA
ATOM     14  C   UNL     1      44.848   4.433  10.376  0.00  0.00    +0.000 A 
ATOM     15  H   UNL     1      46.110   3.878   7.390  0.00  0.00    +0.000 HD
ENDBRANCH   2   5
BRANCH   3  16
ATOM     16  C   UNL     1      46.315   8.153  13.151  0.00  0.00    +0.000 C 
BRANCH  16  17
ATOM     17  C   UNL     1      47.677   8.372  12.546  0.00  0.00    +0.000 A 
ATOM     18  C   UNL     1      48.516   7.276  12.318  0.00  0.00    +0.000 A 
ATOM     19  C   UNL     1      49.771   7.455  11.741  0.00  0.00    +0.000 A 
ATOM     20  C   UNL     1      50.189   8.730  11.352  0.00  0.00    +0.000 A 
ATOM     21  C   UNL     1      49.392   9.837  11.643  0.00  0.00    +0.000 A 
ATOM     22  C   UNL     1      48.141   9.659  12.242  0.00  0.00    +0.000 A 
BRANCH  20  23
ATOM     23  O   UNL     1      51.398   8.974  10.739  0.00  0.00    +0.000 OA
BRANCH  23  24
ATOM     24  C   UNL     1      52.542   8.427  11.314  0.00  0.00    +0.000 A 
ATOM     25  N   UNL     1      52.902   8.822  12.559  0.00  0.00    +0.000 NA
ATOM     26  C   UNL     1      54.035   8.299  13.042  0.00  0.00    +0.000 A 
ATOM     27  N   UNL     1      54.808   7.401  12.417  0.00  0.00    +0.000 NA
ATOM     28  C   UNL     1      54.379   7.005  11.197  0.00  0.00    +0.000 A 
ATOM     29  C   UNL     1      53.242   7.483  10.587  0.00  0.00    +0.000 A 
ATOM     30 CL   UNL     1      52.779   6.935   9.030  0.00  0.00    +0.000 Cl
ENDBRANCH  23  24
ENDBRANCH  20  23
ENDBRANCH  16  17
ENDBRANCH   3  16
TORSDOF 5
ENDMDL
MODEL 8
REMARK VINA RESULT:    -6.325      4.330      9.336
REMARK INTER + INTRA:          -9.114
REMARK INTER:                  -8.325
REMARK INTRA:                  -0.788
REMARK UNBOUND:                -0.939
REMARK  Name = 
REMARK  5 active torsions:
REMARK  status: ('A' for Active; 'I' for Inactive)
REMARK    1  A    between atoms: C_2  and  C_19
REMARK    2  A    between atoms: N_3  and  C_4
REMARK    3  A    between atoms: C_4  and  C_5
REMARK    4  A    between atoms: C_8  and  O_9
REMARK    5  A    between atoms: O_9  and  C_10
REMARK                            x       y       z     vdW  Elec       q    Type
REMARK                         _______ _______ _______ _____ _____    ______ ____
ROOT
ATOM      1  O   UNL     1      47.254   3.239  13.822  0.00  0.00    +0.000 OA
ATOM      2  C   UNL     1      46.738   4.242  14.307  0.00  0.00    +0.000 C 
ATOM      3  N   UNL     1      46.751   4.505  15.651  0.00  0.00    +0.000 N 
ATOM      4  H   UNL     1      46.140   5.227  16.016  0.00  0.00    +0.000 HD
ENDROOT
BRANCH   2   5
ATOM      5  C   UNL     1      46.119   5.268  13.458  0.00  0.00    +0.000 A 
ATOM      6  C   UNL     1      46.816   6.430  13.158  0.00  0.00    +0.000 A 
ATOM      7  S   UNL     1      45.937   7.523  12.190  0.00  0.00    +0.000 S 
ATOM      8  C   UNL     1      44.610   6.462  12.095  0.00  0.00    +0.000 A 
ATOM      9  N   UNL     1      43.503   6.785  11.375  0.00  0.00    +0.000 NA
ATOM     10  C   UNL     1      42.594   5.868  11.356  0.00  0.00    +0.000 A 
ATOM     11  N   UNL     1      42.686   4.661  11.998  0.00  0.00    +0.000 N 
ATOM     12  C   UNL     1      43.751   4.323  12.796  0.00  0.00    +0.000 A 
ATOM     13  O   UNL     1      43.740   3.291  13.460  0.00  0.00    +0.000 OA
ATOM     14  C   UNL     1      44.824   5.300  12.818  0.00  0.00    +0.000 A 
ATOM     15  H   UNL     1      41.926   3.999  11.965  0.00  0.00    +0.000 HD
ENDBRANCH   2   5
BRANCH   3  16
ATOM     16  C   UNL     1      47.246   3.565  16.621  0.00  0.00    +0.000 C 
BRANCH  16  17
ATOM     17  C   UNL     1      48.022   4.267  17.704  0.00  0.00    +0.000 A 
ATOM     18  C   UNL     1      49.342   3.885  17.967  0.00  0.00    +0.000 A 
ATOM     19  C   UNL     1      50.082   4.536  18.951  0.00  0.00    +0.000 A 
ATOM     20  C   UNL     1      49.524   5.602  19.660  0.00  0.00    +0.000 A 
ATOM     21  C   UNL     1      48.186   5.941  19.458  0.00  0.00    +0.000 A 
ATOM     22  C   UNL     1      47.436   5.274  18.485  0.00  0.00    +0.000 A 
BRANCH  20  23
ATOM     23  O   UNL     1      50.211   6.317  20.616  0.00  0.00    +0.000 OA
BRANCH  23  24
ATOM     24  C   UNL     1      51.140   7.260  20.180  0.00  0.00    +0.000 A 
ATOM     25  N   UNL     1      50.693   8.449  19.711  0.00  0.00    +0.000 NA
ATOM     26  C   UNL     1      51.626   9.296  19.262  0.00  0.00    +0.000 A 
ATOM     27  N   UNL     1      52.948   9.079  19.275  0.00  0.00    +0.000 NA
ATOM     28  C   UNL     1      53.344   7.896  19.796  0.00  0.00    +0.000 A 
ATOM     29  C   UNL     1      52.480   6.936  20.273  0.00  0.00    +0.000 A 
ATOM     30 CL   UNL     1      53.068   5.455  20.905  0.00  0.00    +0.000 Cl
ENDBRANCH  23  24
ENDBRANCH  20  23
ENDBRANCH  16  17
ENDBRANCH   3  16
TORSDOF 5
ENDMDL
MODEL 9
REMARK VINA RESULT:    -6.132      2.339      2.925
REMARK INTER + INTRA:          -8.863
REMARK INTER:                  -7.804
REMARK INTRA:                  -1.060
REMARK UNBOUND:                -0.939
REMARK  Name = 
REMARK  5 active torsions:
REMARK  status: ('A' for Active; 'I' for Inactive)
REMARK    1  A    between atoms: C_2  and  C_19
REMARK    2  A    between atoms: N_3  and  C_4
REMARK    3  A    between atoms: C_4  and  C_5
REMARK    4  A    between atoms: C_8  and  O_9
REMARK    5  A    between atoms: O_9  and  C_10
REMARK                            x       y       z     vdW  Elec       q    Type
REMARK                         _______ _______ _______ _____ _____    ______ ____
ROOT
ATOM      1  O   UNL     1      51.058   9.314  15.455  0.00  0.00    +0.000 OA
ATOM      2  C   UNL     1      50.881   8.129  15.185  0.00  0.00    +0.000 C 
ATOM      3  N   UNL     1      50.239   7.717  14.047  0.00  0.00    +0.000 N 
ATOM      4  H   UNL     1      49.938   6.752  13.975  0.00  0.00    +0.000 HD
ENDROOT
BRANCH   2   5
ATOM      5  C   UNL     1      51.407   7.062  16.046  0.00  0.00    +0.000 A 
ATOM      6  C   UNL     1      52.761   7.024  16.351  0.00  0.00    +0.000 A 
ATOM      7  S   UNL     1      53.203   5.704  17.334  0.00  0.00    +0.000 S 
ATOM      8  C   UNL     1      51.593   5.162  17.431  0.00  0.00    +0.000 A 
ATOM      9  N   UNL     1      51.264   4.064  18.162  0.00  0.00    +0.000 NA
ATOM     10  C   UNL     1      50.002   3.795  18.180  0.00  0.00    +0.000 A 
ATOM     11  N   UNL     1      49.038   4.518  17.528  0.00  0.00    +0.000 N 
ATOM     12  C   UNL     1      49.331   5.588  16.719  0.00  0.00    +0.000 A 
ATOM     13  O   UNL     1      48.459   6.129  16.047  0.00  0.00    +0.000 OA
ATOM     14  C   UNL     1      50.733   5.962  16.697  0.00  0.00    +0.000 A 
ATOM     15  H   UNL     1      48.070   4.236  17.561  0.00  0.00    +0.000 HD
ENDBRANCH   2   5
BRANCH   3  16
ATOM     16  C   UNL     1      49.597   8.634  13.144  0.00  0.00    +0.000 C 
BRANCH  16  17
ATOM     17  C   UNL     1      48.267   8.095  12.685  0.00  0.00    +0.000 A 
ATOM     18  C   UNL     1      47.086   8.693  13.136  0.00  0.00    +0.000 A 
ATOM     19  C   UNL     1      45.847   8.221  12.708  0.00  0.00    +0.000 A 
ATOM     20  C   UNL     1      45.775   7.167  11.795  0.00  0.00    +0.000 A 
ATOM     21  C   UNL     1      46.943   6.516  11.397  0.00  0.00    +0.000 A 
ATOM     22  C   UNL     1      48.186   6.976  11.844  0.00  0.00    +0.000 A 
BRANCH  20  23
ATOM     23  O   UNL     1      44.587   6.679  11.298  0.00  0.00    +0.000 OA
BRANCH  23  24
ATOM     24  C   UNL     1      44.207   5.391  11.670  0.00  0.00    +0.000 A 
ATOM     25  N   UNL     1      43.735   5.184  12.923  0.00  0.00    +0.000 NA
ATOM     26  C   UNL     1      43.431   3.921  13.239  0.00  0.00    +0.000 A 
ATOM     27  N   UNL     1      43.518   2.867  12.417  0.00  0.00    +0.000 NA
ATOM     28  C   UNL     1      43.950   3.135  11.163  0.00  0.00    +0.000 A 
ATOM     29  C   UNL     1      44.311   4.389  10.724  0.00  0.00    +0.000 A 
ATOM     30 CL   UNL     1      44.862   4.636   9.120  0.00  0.00    +0.000 Cl
ENDBRANCH  23  24
ENDBRANCH  20  23
ENDBRANCH  16  17
ENDBRANCH   3  16
TORSDOF 5
ENDMDL
