MODEL 1
REMARK VINA RESULT:    -8.499      0.000      0.000
REMARK INTER + INTRA:         -13.435
REMARK INTER:                 -11.977
REMARK INTRA:                  -1.458
REMARK UNBOUND:                -1.458
REMARK  Name = 
REMARK  7 active torsions:
REMARK  status: ('A' for Active; 'I' for Inactive)
REMARK    1  A    between atoms: C_2  and  C_21
REMARK    2  A    between atoms: N_3  and  C_4
REMARK    3  A    between atoms: C_4  and  C_5
REMARK    4  A    between atoms: C_9  and  C_10
REMARK    5  A    between atoms: C_10  and  N_11
REMARK    6  A    between atoms: N_11  and  C_12
REMARK    7  A    between atoms: C_12  and  C_13
REMARK                            x       y       z     vdW  Elec       q    Type
REMARK                         _______ _______ _______ _____ _____    ______ ____
ROOT
ATOM      1  C   UNL     1      45.410   6.901  12.111  0.00  0.00    +0.000 A 
ATOM      2  C   UNL     1      44.308   7.532  11.531  0.00  0.00    +0.000 A 
ATOM      3  C   UNL     1      43.225   6.756  11.152  0.00  0.00    +0.000 A 
ATOM      4  N   UNL     1      43.168   5.416  11.302  0.00  0.00    +0.000 NA
ATOM      5  C   UNL     1      44.257   4.805  11.839  0.00  0.00    +0.000 A 
ATOM      6  C   UNL     1      45.389   5.510  12.239  0.00  0.00    +0.000 A 
ENDROOT
BRANCH   1   7
ATOM      7  C   UNL     1      46.598   7.688  12.592  0.00  0.00    +0.000 C 
BRANCH   7  10
ATOM      8  O   UNL     1      49.010   6.370  13.186  0.00  0.00    +0.000 OA
ATOM      9  C   UNL     1      48.242   6.644  14.104  0.00  0.00    +0.000 C 
ATOM     10  N   UNL     1      47.036   7.260  13.894  0.00  0.00    +0.000 N 
ATOM     11  H   UNL     1      46.505   7.604  14.688  0.00  0.00    +0.000 HD
BRANCH   9  12
ATOM     12  C   UNL     1      48.553   6.286  15.494  0.00  0.00    +0.000 A 
ATOM     13  C   UNL     1      49.249   7.177  16.299  0.00  0.00    +0.000 A 
ATOM     14  S   UNL     1      49.490   6.613  17.890  0.00  0.00    +0.000 S 
ATOM     15  C   UNL     1      48.645   5.172  17.568  0.00  0.00    +0.000 A 
ATOM     16  N   UNL     1      48.438   4.250  18.542  0.00  0.00    +0.000 NA
ATOM     17  C   UNL     1      47.747   3.223  18.169  0.00  0.00    +0.000 A 
ATOM     18  N   UNL     1      47.264   3.025  16.902  0.00  0.00    +0.000 N 
ATOM     19  C   UNL     1      47.522   3.890  15.865  0.00  0.00    +0.000 A 
ATOM     20  O   UNL     1      47.220   3.605  14.712  0.00  0.00    +0.000 OA
ATOM     21  C   UNL     1      48.228   5.100  16.250  0.00  0.00    +0.000 A 
ATOM     22  H   UNL     1      46.770   2.178  16.666  0.00  0.00    +0.000 HD
ENDBRANCH   9  12
ENDBRANCH   7  10
ENDBRANCH   1   7
BRANCH   5  23
ATOM     23  C   UNL     1      44.207   3.297  11.991  0.00  0.00    +0.000 C 
BRANCH  23  24
ATOM     24  N   UNL     1      45.109   2.566  11.090  0.00  0.00    +0.000 NA
ATOM     25  H   UNL     1      45.262   1.643  11.507  0.00  0.00    +0.000 HD
BRANCH  24  26
ATOM     26  C   UNL     1      44.497   2.344   9.772  0.00  0.00    +0.000 C 
BRANCH  26  27
ATOM     27  C   UNL     1      45.544   2.258   8.680  0.00  0.00    +0.000 A 
ATOM     28  N   UNL     1      45.929   0.994   8.329  0.00  0.00    +0.000 NA
ATOM     29  C   UNL     1      46.885   0.867   7.386  0.00  0.00    +0.000 A 
ATOM     30  C   UNL     1      47.489   1.941   6.756  0.00  0.00    +0.000 A 
ATOM     31  C   UNL     1      47.092   3.224   7.121  0.00  0.00    +0.000 A 
ATOM     32  C   UNL     1      46.112   3.394   8.100  0.00  0.00    +0.000 A 
ATOM     33 CL   UNL     1      45.659   5.003   8.525  0.00  0.00    +0.000 Cl
ENDBRANCH  26  27
ENDBRANCH  24  26
ENDBRANCH  23  24
ENDBRANCH   5  23
TORSDOF 7
ENDMDL
MODEL 2
REMARK VINA RESULT:    -7.768      1.840      2.207
REMARK INTER + INTRA:         -12.405
REMARK INTER:                 -11.236
REMARK INTRA:                  -1.169
REMARK UNBOUND:                -1.458
REMARK  Name = 
REMARK  7 active torsions:
REMARK  status: ('A' for Active; 'I' for Inactive)
REMARK    1  A    between atoms: C_2  and  C_21
REMARK    2  A    between atoms: N_3  and  C_4
REMARK    3  A    between atoms: C_4  and  C_5
REMARK    4  A    between atoms: C_9  and  C_10
REMARK    5  A    between atoms: C_10  and  N_11
REMARK    6  A    between atoms: N_11  and  C_12
REMARK    7  A    between atoms: C_12  and  C_13
REMARK                            x       y       z     vdW  Elec       q    Type
REMARK                         _______ _______ _______ _____ _____    ______ ____
ROOT
ATOM      1  C   UNL     1      47.608   7.810  12.519  0.00  0.00    +0.000 A 
ATOM      2  C   UNL     1      46.722   8.870  12.722  0.00  0.00    +0.000 A 
ATOM      3  C   UNL     1      45.424   8.745  12.255  0.00  0.00    +0.000 A 
ATOM      4  N   UNL     1      44.958   7.659  11.603  0.00  0.00    +0.000 NA
ATOM      5  C   UNL     1      45.834   6.645  11.382  0.00  0.00    +0.000 A 
ATOM      6  C   UNL     1      47.158   6.692  11.811  0.00  0.00    +0.000 A 
ENDROOT
BRANCH   1   7
ATOM      7  C   UNL     1      49.017   7.857  13.044  0.00  0.00    +0.000 C 
BRANCH   7  10
ATOM      8  O   UNL     1      48.644   8.553  15.742  0.00  0.00    +0.000 OA
ATOM      9  C   UNL     1      48.969   7.401  15.466  0.00  0.00    +0.000 C 
ATOM     10  N   UNL     1      49.197   6.991  14.179  0.00  0.00    +0.000 N 
ATOM     11  H   UNL     1      49.313   6.002  13.983  0.00  0.00    +0.000 HD
BRANCH   9  12
ATOM     12  C   UNL     1      49.178   6.394  16.514  0.00  0.00    +0.000 A 
ATOM     13  C   UNL     1      50.143   6.602  17.491  0.00  0.00    +0.000 A 
ATOM     14  S   UNL     1      50.223   5.351  18.647  0.00  0.00    +0.000 S 
ATOM     15  C   UNL     1      48.951   4.503  17.901  0.00  0.00    +0.000 A 
ATOM     16  N   UNL     1      48.479   3.344  18.428  0.00  0.00    +0.000 NA
ATOM     17  C   UNL     1      47.485   2.828  17.781  0.00  0.00    +0.000 A 
ATOM     18  N   UNL     1      46.936   3.355  16.642  0.00  0.00    +0.000 N 
ATOM     19  C   UNL     1      47.438   4.478  16.026  0.00  0.00    +0.000 A 
ATOM     20  O   UNL     1      47.034   4.829  14.924  0.00  0.00    +0.000 OA
ATOM     21  C   UNL     1      48.504   5.140  16.756  0.00  0.00    +0.000 A 
ATOM     22  H   UNL     1      46.191   2.877  16.160  0.00  0.00    +0.000 HD
ENDBRANCH   9  12
ENDBRANCH   7  10
ENDBRANCH   1   7
BRANCH   5  23
ATOM     23  C   UNL     1      45.321   5.430  10.631  0.00  0.00    +0.000 C 
BRANCH  23  24
ATOM     24  N   UNL     1      45.591   5.452   9.187  0.00  0.00    +0.000 NA
ATOM     25  H   UNL     1      46.594   5.282   9.069  0.00  0.00    +0.000 HD
BRANCH  24  26
ATOM     26  C   UNL     1      44.889   4.364   8.489  0.00  0.00    +0.000 C 
BRANCH  26  27
ATOM     27  C   UNL     1      45.852   3.293   8.019  0.00  0.00    +0.000 A 
ATOM     28  N   UNL     1      46.900   3.732   7.258  0.00  0.00    +0.000 NA
ATOM     29  C   UNL     1      47.764   2.810   6.786  0.00  0.00    +0.000 A 
ATOM     30  C   UNL     1      47.650   1.454   7.034  0.00  0.00    +0.000 A 
ATOM     31  C   UNL     1      46.581   1.015   7.808  0.00  0.00    +0.000 A 
ATOM     32  C   UNL     1      45.661   1.939   8.306  0.00  0.00    +0.000 A 
ATOM     33 CL   UNL     1      44.346   1.348   9.253  0.00  0.00    +0.000 Cl
ENDBRANCH  26  27
ENDBRANCH  24  26
ENDBRANCH  23  24
ENDBRANCH   5  23
TORSDOF 7
ENDMDL
MODEL 3
REMARK VINA RESULT:    -7.392      1.950      2.950
REMARK INTER + INTRA:         -11.876
REMARK INTER:                 -10.803
REMARK INTRA:                  -1.073
REMARK UNBOUND:                -1.458
REMARK  Name = 
REMARK  7 active torsions:
REMARK  status: ('A' for Active; 'I' for Inactive)
REMARK    1  A    between atoms: C_2  and  C_21
REMARK    2  A    between atoms: N_3  and  C_4
REMARK    3  A    between atoms: C_4  and  C_5
REMARK    4  A    between atoms: C_9  and  C_10
REMARK    5  A    between atoms: C_10  and  N_11
REMARK    6  A    between atoms: N_11  and  C_12
REMARK    7  A    between atoms: C_12  and  C_13
REMARK                            x       y       z     vdW  Elec       q    Type
REMARK                         _______ _______ _______ _____ _____    ______ ____
ROOT
ATOM      1  C   UNL     1      46.315   4.269  13.647  0.00  0.00    +0.000 A 
ATOM      2  C   UNL     1      46.254   5.657  13.503  0.00  0.00    +0.000 A 
ATOM      3  C   UNL     1      45.270   6.194  12.690  0.00  0.00    +0.000 A 
ATOM      4  N   UNL     1      44.361   5.457  12.017  0.00  0.00    +0.000 NA
ATOM      5  C   UNL     1      44.446   4.106  12.138  0.00  0.00    +0.000 A 
ATOM      6  C   UNL     1      45.410   3.484  12.928  0.00  0.00    +0.000 A 
ENDROOT
BRANCH   1   7
ATOM      7  C   UNL     1      47.326   3.621  14.553  0.00  0.00    +0.000 C 
BRANCH   7  10
ATOM      8  O   UNL     1      46.671   3.131  17.243  0.00  0.00    +0.000 OA
ATOM      9  C   UNL     1      47.322   4.135  16.965  0.00  0.00    +0.000 C 
ATOM     10  N   UNL     1      47.657   4.459  15.676  0.00  0.00    +0.000 N 
ATOM     11  H   UNL     1      48.319   5.208  15.506  0.00  0.00    +0.000 HD
BRANCH   9  12
ATOM     12  C   UNL     1      47.747   5.082  18.003  0.00  0.00    +0.000 A 
ATOM     13  C   UNL     1      46.795   5.747  18.765  0.00  0.00    +0.000 A 
ATOM     14  S   UNL     1      47.466   6.778  19.946  0.00  0.00    +0.000 S 
ATOM     15  C   UNL     1      49.051   6.348  19.501  0.00  0.00    +0.000 A 
ATOM     16  N   UNL     1      50.123   6.848  20.167  0.00  0.00    +0.000 NA
ATOM     17  C   UNL     1      51.265   6.406  19.750  0.00  0.00    +0.000 A 
ATOM     18  N   UNL     1      51.432   5.528  18.712  0.00  0.00    +0.000 N 
ATOM     19  C   UNL     1      50.380   5.065  17.956  0.00  0.00    +0.000 A 
ATOM     20  O   UNL     1      50.573   4.415  16.934  0.00  0.00    +0.000 OA
ATOM     21  C   UNL     1      49.070   5.469  18.433  0.00  0.00    +0.000 A 
ATOM     22  H   UNL     1      52.354   5.259  18.407  0.00  0.00    +0.000 HD
ENDBRANCH   9  12
ENDBRANCH   7  10
ENDBRANCH   1   7
BRANCH   5  23
ATOM     23  C   UNL     1      43.441   3.272  11.367  0.00  0.00    +0.000 C 
BRANCH  23  24
ATOM     24  N   UNL     1      44.037   2.373  10.369  0.00  0.00    +0.000 NA
ATOM     25  H   UNL     1      43.309   1.705  10.098  0.00  0.00    +0.000 HD
BRANCH  24  26
ATOM     26  C   UNL     1      44.426   3.099   9.151  0.00  0.00    +0.000 C 
BRANCH  26  27
ATOM     27  C   UNL     1      45.527   2.376   8.401  0.00  0.00    +0.000 A 
ATOM     28  N   UNL     1      45.510   1.012   8.495  0.00  0.00    +0.000 NA
ATOM     29  C   UNL     1      46.492   0.327   7.873  0.00  0.00    +0.000 A 
ATOM     30  C   UNL     1      47.504   0.927   7.147  0.00  0.00    +0.000 A 
ATOM     31  C   UNL     1      47.515   2.315   7.057  0.00  0.00    +0.000 A 
ATOM     32  C   UNL     1      46.521   3.058   7.695  0.00  0.00    +0.000 A 
ATOM     33 CL   UNL     1      46.580   4.777   7.564  0.00  0.00    +0.000 Cl
ENDBRANCH  26  27
ENDBRANCH  24  26
ENDBRANCH  23  24
ENDBRANCH   5  23
TORSDOF 7
ENDMDL
MODEL 4
REMARK VINA RESULT:    -7.192      3.006      4.099
REMARK INTER + INTRA:         -11.593
REMARK INTER:                 -10.428
REMARK INTRA:                  -1.165
REMARK UNBOUND:                -1.458
REMARK  Name = 
REMARK  7 active torsions:
REMARK  status: ('A' for Active; 'I' for Inactive)
REMARK    1  A    between atoms: C_2  and  C_21
REMARK    2  A    between atoms: N_3  and  C_4
REMARK    3  A    between atoms: C_4  and  C_5
REMARK    4  A    between atoms: C_9  and  C_10
REMARK    5  A    between atoms: C_10  and  N_11
REMARK    6  A    between atoms: N_11  and  C_12
REMARK    7  A    between atoms: C_12  and  C_13
REMARK                            x       y       z     vdW  Elec       q    Type
REMARK                         _______ _______ _______ _____ _____    ______ ____
ROOT
ATOM      1  C   UNL     1      46.015   5.815  12.188  0.00  0.00    +0.000 A 
ATOM      2  C   UNL     1      46.679   5.162  13.229  0.00  0.00    +0.000 A 
ATOM      3  C   UNL     1      46.371   3.836  13.481  0.00  0.00    +0.000 A 
ATOM      4  N   UNL     1      45.456   3.128  12.785  0.00  0.00    +0.000 NA
ATOM      5  C   UNL     1      44.792   3.778  11.794  0.00  0.00    +0.000 A 
ATOM      6  C   UNL     1      45.035   5.113  11.480  0.00  0.00    +0.000 A 
ENDROOT
BRANCH   1   7
ATOM      7  C   UNL     1      46.337   7.239  11.827  0.00  0.00    +0.000 C 
BRANCH   7  10
ATOM      8  O   UNL     1      47.482   9.794  12.086  0.00  0.00    +0.000 OA
ATOM      9  C   UNL     1      48.213   8.808  12.135  0.00  0.00    +0.000 C 
ATOM     10  N   UNL     1      47.737   7.532  11.990  0.00  0.00    +0.000 N 
ATOM     11  H   UNL     1      48.346   6.745  12.189  0.00  0.00    +0.000 HD
BRANCH   9  12
ATOM     12  C   UNL     1      49.665   8.942  12.311  0.00  0.00    +0.000 A 
ATOM     13  C   UNL     1      50.395   9.751  11.451  0.00  0.00    +0.000 A 
ATOM     14  S   UNL     1      52.058   9.818  11.824  0.00  0.00    +0.000 S 
ATOM     15  C   UNL     1      51.855   8.794  13.168  0.00  0.00    +0.000 A 
ATOM     16  N   UNL     1      52.902   8.482  13.973  0.00  0.00    +0.000 NA
ATOM     17  C   UNL     1      52.598   7.728  14.978  0.00  0.00    +0.000 A 
ATOM     18  N   UNL     1      51.344   7.239  15.237  0.00  0.00    +0.000 N 
ATOM     19  C   UNL     1      50.274   7.459  14.401  0.00  0.00    +0.000 A 
ATOM     20  O   UNL     1      49.210   6.874  14.568  0.00  0.00    +0.000 OA
ATOM     21  C   UNL     1      50.545   8.366  13.300  0.00  0.00    +0.000 A 
ATOM     22  H   UNL     1      51.184   6.617  16.014  0.00  0.00    +0.000 HD
ENDBRANCH   9  12
ENDBRANCH   7  10
ENDBRANCH   1   7
BRANCH   5  23
ATOM     23  C   UNL     1      43.749   2.994  11.021  0.00  0.00    +0.000 C 
BRANCH  23  24
ATOM     24  N   UNL     1      43.964   2.967   9.568  0.00  0.00    +0.000 NA
ATOM     25  H   UNL     1      44.493   3.811   9.330  0.00  0.00    +0.000 HD
BRANCH  24  26
ATOM     26  C   UNL     1      44.787   1.818   9.163  0.00  0.00    +0.000 C 
BRANCH  26  27
ATOM     27  C   UNL     1      45.889   2.233   8.209  0.00  0.00    +0.000 A 
ATOM     28  N   UNL     1      46.018   3.578   8.003  0.00  0.00    +0.000 NA
ATOM     29  C   UNL     1      46.963   3.993   7.134  0.00  0.00    +0.000 A 
ATOM     30  C   UNL     1      47.804   3.136   6.449  0.00  0.00    +0.000 A 
ATOM     31  C   UNL     1      47.666   1.768   6.663  0.00  0.00    +0.000 A 
ATOM     32  C   UNL     1      46.693   1.301   7.548  0.00  0.00    +0.000 A 
ATOM     33 CL   UNL     1      46.551  -0.403   7.774  0.00  0.00    +0.000 Cl
ENDBRANCH  26  27
ENDBRANCH  24  26
ENDBRANCH  23  24
ENDBRANCH   5  23
TORSDOF 7
ENDMDL
MODEL 5
REMARK VINA RESULT:    -7.142      2.329      3.307
REMARK INTER + INTRA:         -11.522
REMARK INTER:                 -11.365
REMARK INTRA:                  -0.157
REMARK UNBOUND:                -1.458
REMARK  Name = 
REMARK  7 active torsions:
REMARK  status: ('A' for Active; 'I' for Inactive)
REMARK    1  A    between atoms: C_2  and  C_21
REMARK    2  A    between atoms: N_3  and  C_4
REMARK    3  A    between atoms: C_4  and  C_5
REMARK    4  A    between atoms: C_9  and  C_10
REMARK    5  A    between atoms: C_10  and  N_11
REMARK    6  A    between atoms: N_11  and  C_12
REMARK    7  A    between atoms: C_12  and  C_13
REMARK                            x       y       z     vdW  Elec       q    Type
REMARK                         _______ _______ _______ _____ _____    ______ ____
ROOT
ATOM      1  C   UNL     1      46.279   4.954  13.736  0.00  0.00    +0.000 A 
ATOM      2  C   UNL     1      46.975   6.163  13.808  0.00  0.00    +0.000 A 
ATOM      3  C   UNL     1      46.459   7.263  13.145  0.00  0.00    +0.000 A 
ATOM      4  N   UNL     1      45.320   7.243  12.421  0.00  0.00    +0.000 NA
ATOM      5  C   UNL     1      44.664   6.056  12.331  0.00  0.00    +0.000 A 
ATOM      6  C   UNL     1      45.118   4.900  12.960  0.00  0.00    +0.000 A 
ENDROOT
BRANCH   1   7
ATOM      7  C   UNL     1      46.755   3.732  14.473  0.00  0.00    +0.000 C 
BRANCH   7  10
ATOM      8  O   UNL     1      46.668   3.524  17.276  0.00  0.00    +0.000 OA
ATOM      9  C   UNL     1      47.713   3.884  16.740  0.00  0.00    +0.000 C 
ATOM     10  N   UNL     1      47.828   4.037  15.383  0.00  0.00    +0.000 N 
ATOM     11  H   UNL     1      48.744   4.187  14.973  0.00  0.00    +0.000 HD
BRANCH   9  12
ATOM     12  C   UNL     1      48.903   4.219  17.533  0.00  0.00    +0.000 A 
ATOM     13  C   UNL     1      48.912   5.365  18.316  0.00  0.00    +0.000 A 
ATOM     14  S   UNL     1      50.357   5.577  19.197  0.00  0.00    +0.000 S 
ATOM     15  C   UNL     1      51.008   4.128  18.586  0.00  0.00    +0.000 A 
ATOM     16  N   UNL     1      52.226   3.686  18.988  0.00  0.00    +0.000 NA
ATOM     17  C   UNL     1      52.579   2.552  18.476  0.00  0.00    +0.000 A 
ATOM     18  N   UNL     1      51.833   1.833  17.580  0.00  0.00    +0.000 N 
ATOM     19  C   UNL     1      50.634   2.286  17.081  0.00  0.00    +0.000 A 
ATOM     20  O   UNL     1      50.071   1.704  16.160  0.00  0.00    +0.000 OA
ATOM     21  C   UNL     1      50.155   3.517  17.684  0.00  0.00    +0.000 A 
ATOM     22  H   UNL     1      52.188   0.977  17.183  0.00  0.00    +0.000 HD
ENDBRANCH   9  12
ENDBRANCH   7  10
ENDBRANCH   1   7
BRANCH   5  23
ATOM     23  C   UNL     1      43.394   6.022  11.502  0.00  0.00    +0.000 C 
BRANCH  23  24
ATOM     24  N   UNL     1      43.540   5.367  10.195  0.00  0.00    +0.000 NA
ATOM     25  H   UNL     1      42.934   5.870   9.541  0.00  0.00    +0.000 HD
BRANCH  24  26
ATOM     26  C   UNL     1      44.913   5.483   9.681  0.00  0.00    +0.000 C 
BRANCH  26  27
ATOM     27  C   UNL     1      45.361   4.207   8.998  0.00  0.00    +0.000 A 
ATOM     28  N   UNL     1      46.166   4.372   7.905  0.00  0.00    +0.000 NA
ATOM     29  C   UNL     1      46.561   3.266   7.242  0.00  0.00    +0.000 A 
ATOM     30  C   UNL     1      46.202   1.982   7.611  0.00  0.00    +0.000 A 
ATOM     31  C   UNL     1      45.381   1.822   8.723  0.00  0.00    +0.000 A 
ATOM     32  C   UNL     1      44.945   2.945   9.428  0.00  0.00    +0.000 A 
ATOM     33 CL   UNL     1      43.922   2.699  10.795  0.00  0.00    +0.000 Cl
ENDBRANCH  26  27
ENDBRANCH  24  26
ENDBRANCH  23  24
ENDBRANCH   5  23
TORSDOF 7
ENDMDL
MODEL 6
REMARK VINA RESULT:    -6.994      3.374      7.957
REMARK INTER + INTRA:         -11.315
REMARK INTER:                 -10.084
REMARK INTRA:                  -1.231
REMARK UNBOUND:                -1.458
REMARK  Name = 
REMARK  7 active torsions:
REMARK  status: ('A' for Active; 'I' for Inactive)
REMARK    1  A    between atoms: C_2  and  C_21
REMARK    2  A    between atoms: N_3  and  C_4
REMARK    3  A    between atoms: C_4  and  C_5
REMARK    4  A    between atoms: C_9  and  C_10
REMARK    5  A    between atoms: C_10  and  N_11
REMARK    6  A    between atoms: N_11  and  C_12
REMARK    7  A    between atoms: C_12  and  C_13
REMARK                            x       y       z     vdW  Elec       q    Type
REMARK                         _______ _______ _______ _____ _____    ______ ____
ROOT
ATOM      1  C   UNL     1      47.901   8.192  13.295  0.00  0.00    +0.000 A 
ATOM      2  C   UNL     1      48.649   8.464  12.147  0.00  0.00    +0.000 A 
ATOM      3  C   UNL     1      50.030   8.430  12.233  0.00  0.00    +0.000 A 
ATOM      4  N   UNL     1      50.708   8.155  13.368  0.00  0.00    +0.000 NA
ATOM      5  C   UNL     1      49.975   7.922  14.487  0.00  0.00    +0.000 A 
ATOM      6  C   UNL     1      48.583   7.945  14.489  0.00  0.00    +0.000 A 
ENDROOT
BRANCH   1   7
ATOM      7  C   UNL     1      46.398   8.162  13.260  0.00  0.00    +0.000 C 
BRANCH   7  10
ATOM      8  O   UNL     1      44.440   7.610  11.319  0.00  0.00    +0.000 OA
ATOM      9  C   UNL     1      44.954   6.674  11.927  0.00  0.00    +0.000 C 
ATOM     10  N   UNL     1      45.894   6.862  12.906  0.00  0.00    +0.000 N 
ATOM     11  H   UNL     1      46.400   6.063  13.272  0.00  0.00    +0.000 HD
BRANCH   9  12
ATOM     12  C   UNL     1      44.555   5.285  11.668  0.00  0.00    +0.000 A 
ATOM     13  C   UNL     1      43.844   4.579  12.629  0.00  0.00    +0.000 A 
ATOM     14  S   UNL     1      43.433   2.995  12.148  0.00  0.00    +0.000 S 
ATOM     15  C   UNL     1      44.164   3.209  10.626  0.00  0.00    +0.000 A 
ATOM     16  N   UNL     1      44.124   2.228   9.688  0.00  0.00    +0.000 NA
ATOM     17  C   UNL     1      44.683   2.540   8.564  0.00  0.00    +0.000 A 
ATOM     18  N   UNL     1      45.299   3.736   8.303  0.00  0.00    +0.000 N 
ATOM     19  C   UNL     1      45.437   4.723   9.251  0.00  0.00    +0.000 A 
ATOM     20  O   UNL     1      46.134   5.709   9.041  0.00  0.00    +0.000 OA
ATOM     21  C   UNL     1      44.757   4.453  10.505  0.00  0.00    +0.000 A 
ATOM     22  H   UNL     1      45.756   3.897   7.419  0.00  0.00    +0.000 HD
ENDBRANCH   9  12
ENDBRANCH   7  10
ENDBRANCH   1   7
BRANCH   5  23
ATOM     23  C   UNL     1      50.733   7.633  15.770  0.00  0.00    +0.000 C 
BRANCH  23  24
ATOM     24  N   UNL     1      51.111   6.224  15.946  0.00  0.00    +0.000 NA
ATOM     25  H   UNL     1      52.126   6.170  15.814  0.00  0.00    +0.000 HD
BRANCH  24  26
ATOM     26  C   UNL     1      50.833   5.755  17.311  0.00  0.00    +0.000 C 
BRANCH  26  27
ATOM     27  C   UNL     1      49.568   4.922  17.366  0.00  0.00    +0.000 A 
ATOM     28  N   UNL     1      49.699   3.619  16.974  0.00  0.00    +0.000 NA
ATOM     29  C   UNL     1      48.592   2.848  16.972  0.00  0.00    +0.000 A 
ATOM     30  C   UNL     1      47.341   3.302  17.347  0.00  0.00    +0.000 A 
ATOM     31  C   UNL     1      47.215   4.630  17.742  0.00  0.00    +0.000 A 
ATOM     32  C   UNL     1      48.337   5.460  17.749  0.00  0.00    +0.000 A 
ATOM     33 CL   UNL     1      48.130   7.101  18.238  0.00  0.00    +0.000 Cl
ENDBRANCH  26  27
ENDBRANCH  24  26
ENDBRANCH  23  24
ENDBRANCH   5  23
TORSDOF 7
ENDMDL
MODEL 7
REMARK VINA RESULT:    -6.937      3.622      7.915
REMARK INTER + INTRA:         -11.235
REMARK INTER:                  -9.997
REMARK INTRA:                  -1.238
REMARK UNBOUND:                -1.458
REMARK  Name = 
REMARK  7 active torsions:
REMARK  status: ('A' for Active; 'I' for Inactive)
REMARK    1  A    between atoms: C_2  and  C_21
REMARK    2  A    between atoms: N_3  and  C_4
REMARK    3  A    between atoms: C_4  and  C_5
REMARK    4  A    between atoms: C_9  and  C_10
REMARK    5  A    between atoms: C_10  and  N_11
REMARK    6  A    between atoms: N_11  and  C_12
REMARK    7  A    between atoms: C_12  and  C_13
REMARK                            x       y       z     vdW  Elec       q    Type
REMARK                         _______ _______ _______ _____ _____    ______ ____
ROOT
ATOM      1  C   UNL     1      48.773   7.179  16.520  0.00  0.00    +0.000 A 
ATOM      2  C   UNL     1      49.121   8.011  17.587  0.00  0.00    +0.000 A 
ATOM      3  C   UNL     1      49.085   7.492  18.870  0.00  0.00    +0.000 A 
ATOM      4  N   UNL     1      48.725   6.223  19.160  0.00  0.00    +0.000 NA
ATOM      5  C   UNL     1      48.359   5.429  18.121  0.00  0.00    +0.000 A 
ATOM      6  C   UNL     1      48.359   5.874  16.802  0.00  0.00    +0.000 A 
ENDROOT
BRANCH   1   7
ATOM      7  C   UNL     1      48.839   7.663  15.098  0.00  0.00    +0.000 C 
BRANCH   7  10
ATOM      8  O   UNL     1      48.628   5.891  12.925  0.00  0.00    +0.000 OA
ATOM      9  C   UNL     1      47.614   6.453  13.333  0.00  0.00    +0.000 C 
ATOM     10  N   UNL     1      47.638   7.351  14.368  0.00  0.00    +0.000 N 
ATOM     11  H   UNL     1      46.765   7.673  14.770  0.00  0.00    +0.000 HD
BRANCH   9  12
ATOM     12  C   UNL     1      46.308   6.227  12.701  0.00  0.00    +0.000 A 
ATOM     13  C   UNL     1      45.632   7.287  12.113  0.00  0.00    +0.000 A 
ATOM     14  S   UNL     1      44.151   6.838  11.395  0.00  0.00    +0.000 S 
ATOM     15  C   UNL     1      44.378   5.206  11.819  0.00  0.00    +0.000 A 
ATOM     16  N   UNL     1      43.479   4.257  11.451  0.00  0.00    +0.000 NA
ATOM     17  C   UNL     1      43.796   3.054  11.804  0.00  0.00    +0.000 A 
ATOM     18  N   UNL     1      44.919   2.718  12.512  0.00  0.00    +0.000 N 
ATOM     19  C   UNL     1      45.811   3.655  12.979  0.00  0.00    +0.000 A 
ATOM     20  O   UNL     1      46.713   3.343  13.748  0.00  0.00    +0.000 OA
ATOM     21  C   UNL     1      45.542   5.014  12.541  0.00  0.00    +0.000 A 
ATOM     22  H   UNL     1      45.084   1.765  12.795  0.00  0.00    +0.000 HD
ENDBRANCH   9  12
ENDBRANCH   7  10
ENDBRANCH   1   7
BRANCH   5  23
ATOM     23  C   UNL     1      47.935   4.008  18.443  0.00  0.00    +0.000 C 
BRANCH  23  24
ATOM     24  N   UNL     1      49.050   3.070  18.632  0.00  0.00    +0.000 NA
ATOM     25  H   UNL     1      48.656   2.218  19.041  0.00  0.00    +0.000 HD
BRANCH  24  26
ATOM     26  C   UNL     1      49.658   2.687  17.349  0.00  0.00    +0.000 C 
BRANCH  26  27
ATOM     27  C   UNL     1      51.118   2.315  17.515  0.00  0.00    +0.000 A 
ATOM     28  N   UNL     1      51.394   0.976  17.488  0.00  0.00    +0.000 NA
ATOM     29  C   UNL     1      52.675   0.594  17.667  0.00  0.00    +0.000 A 
ATOM     30  C   UNL     1      53.718   1.480  17.871  0.00  0.00    +0.000 A 
ATOM     31  C   UNL     1      53.428   2.841  17.899  0.00  0.00    +0.000 A 
ATOM     32  C   UNL     1      52.113   3.272  17.727  0.00  0.00    +0.000 A 
ATOM     33 CL   UNL     1      51.800   4.968  17.778  0.00  0.00    +0.000 Cl
ENDBRANCH  26  27
ENDBRANCH  24  26
ENDBRANCH  23  24
ENDBRANCH   5  23
TORSDOF 7
ENDMDL
MODEL 8
REMARK VINA RESULT:    -6.899      4.000      8.679
REMARK INTER + INTRA:         -11.181
REMARK INTER:                  -9.829
REMARK INTRA:                  -1.352
REMARK UNBOUND:                -1.458
REMARK  Name = 
REMARK  7 active torsions:
REMARK  status: ('A' for Active; 'I' for Inactive)
REMARK    1  A    between atoms: C_2  and  C_21
REMARK    2  A    between atoms: N_3  and  C_4
REMARK    3  A    between atoms: C_4  and  C_5
REMARK    4  A    between atoms: C_9  and  C_10
REMARK    5  A    between atoms: C_10  and  N_11
REMARK    6  A    between atoms: N_11  and  C_12
REMARK    7  A    between atoms: C_12  and  C_13
REMARK                            x       y       z     vdW  Elec       q    Type
REMARK                         _______ _______ _______ _____ _____    ______ ____
ROOT
ATOM      1  C   UNL     1      48.688   5.515  16.553  0.00  0.00    +0.000 A 
ATOM      2  C   UNL     1      47.730   4.526  16.783  0.00  0.00    +0.000 A 
ATOM      3  C   UNL     1      47.790   3.809  17.966  0.00  0.00    +0.000 A 
ATOM      4  N   UNL     1      48.727   4.002  18.918  0.00  0.00    +0.000 NA
ATOM      5  C   UNL     1      49.674   4.945  18.674  0.00  0.00    +0.000 A 
ATOM      6  C   UNL     1      49.692   5.704  17.507  0.00  0.00    +0.000 A 
ENDROOT
BRANCH   1   7
ATOM      7  C   UNL     1      48.653   6.365  15.312  0.00  0.00    +0.000 C 
BRANCH   7  10
ATOM      8  O   UNL     1      48.327   6.692  12.539  0.00  0.00    +0.000 OA
ATOM      9  C   UNL     1      47.362   6.340  13.212  0.00  0.00    +0.000 C 
ATOM     10  N   UNL     1      47.432   6.186  14.572  0.00  0.00    +0.000 N 
ATOM     11  H   UNL     1      46.661   5.749  15.066  0.00  0.00    +0.000 HD
BRANCH   9  12
ATOM     12  C   UNL     1      46.048   6.102  12.600  0.00  0.00    +0.000 A 
ATOM     13  C   UNL     1      45.342   7.162  12.046  0.00  0.00    +0.000 A 
ATOM     14  S   UNL     1      43.856   6.699  11.348  0.00  0.00    +0.000 S 
ATOM     15  C   UNL     1      44.120   5.063  11.733  0.00  0.00    +0.000 A 
ATOM     16  N   UNL     1      43.232   4.106  11.362  0.00  0.00    +0.000 NA
ATOM     17  C   UNL     1      43.578   2.902  11.684  0.00  0.00    +0.000 A 
ATOM     18  N   UNL     1      44.720   2.573  12.364  0.00  0.00    +0.000 N 
ATOM     19  C   UNL     1      45.604   3.517  12.834  0.00  0.00    +0.000 A 
ATOM     20  O   UNL     1      46.526   3.206  13.579  0.00  0.00    +0.000 OA
ATOM     21  C   UNL     1      45.302   4.879  12.430  0.00  0.00    +0.000 A 
ATOM     22  H   UNL     1      44.907   1.617  12.625  0.00  0.00    +0.000 HD
ENDBRANCH   9  12
ENDBRANCH   7  10
ENDBRANCH   1   7
BRANCH   5  23
ATOM     23  C   UNL     1      50.742   5.151  19.731  0.00  0.00    +0.000 C 
BRANCH  23  24
ATOM     24  N   UNL     1      51.688   4.034  19.863  0.00  0.00    +0.000 NA
ATOM     25  H   UNL     1      51.134   3.172  19.854  0.00  0.00    +0.000 HD
BRANCH  24  26
ATOM     26  C   UNL     1      52.607   3.964  18.717  0.00  0.00    +0.000 C 
BRANCH  26  27
ATOM     27  C   UNL     1      53.125   2.556  18.506  0.00  0.00    +0.000 A 
ATOM     28  N   UNL     1      54.350   2.288  19.052  0.00  0.00    +0.000 NA
ATOM     29  C   UNL     1      54.869   1.057  18.859  0.00  0.00    +0.000 A 
ATOM     30  C   UNL     1      54.229   0.058  18.149  0.00  0.00    +0.000 A 
ATOM     31  C   UNL     1      52.984   0.339  17.595  0.00  0.00    +0.000 A 
ATOM     32  C   UNL     1      52.420   1.604  17.765  0.00  0.00    +0.000 A 
ATOM     33 CL   UNL     1      50.879   1.909  17.053  0.00  0.00    +0.000 Cl
ENDBRANCH  26  27
ENDBRANCH  24  26
ENDBRANCH  23  24
ENDBRANCH   5  23
TORSDOF 7
ENDMDL
MODEL 9
REMARK VINA RESULT:    -6.874      3.121      4.421
REMARK INTER + INTRA:         -11.146
REMARK INTER:                 -10.328
REMARK INTRA:                  -0.818
REMARK UNBOUND:                -1.458
REMARK  Name = 
REMARK  7 active torsions:
REMARK  status: ('A' for Active; 'I' for Inactive)
REMARK    1  A    between atoms: C_2  and  C_21
REMARK    2  A    between atoms: N_3  and  C_4
REMARK    3  A    between atoms: C_4  and  C_5
REMARK    4  A    between atoms: C_9  and  C_10
REMARK    5  A    between atoms: C_10  and  N_11
REMARK    6  A    between atoms: N_11  and  C_12
REMARK    7  A    between atoms: C_12  and  C_13
REMARK                            x       y       z     vdW  Elec       q    Type
REMARK                         _______ _______ _______ _____ _____    ______ ____
ROOT
ATOM      1  C   UNL     1      48.864   6.931  15.079  0.00  0.00    +0.000 A 
ATOM      2  C   UNL     1      49.771   7.586  14.243  0.00  0.00    +0.000 A 
ATOM      3  C   UNL     1      49.537   7.577  12.878  0.00  0.00    +0.000 A 
ATOM      4  N   UNL     1      48.484   6.964  12.297  0.00  0.00    +0.000 NA
ATOM      5  C   UNL     1      47.623   6.303  13.113  0.00  0.00    +0.000 A 
ATOM      6  C   UNL     1      47.788   6.255  14.495  0.00  0.00    +0.000 A 
ENDROOT
BRANCH   1   7
ATOM      7  C   UNL     1      49.029   6.944  16.574  0.00  0.00    +0.000 C 
BRANCH   7  10
ATOM      8  O   UNL     1      49.000   5.045  18.647  0.00  0.00    +0.000 OA
ATOM      9  C   UNL     1      50.035   5.207  18.006  0.00  0.00    +0.000 C 
ATOM     10  N   UNL     1      50.138   6.131  17.000  0.00  0.00    +0.000 N 
ATOM     11  H   UNL     1      50.955   6.127  16.399  0.00  0.00    +0.000 HD
BRANCH   9  12
ATOM     12  C   UNL     1      51.251   4.442  18.310  0.00  0.00    +0.000 A 
ATOM     13  C   UNL     1      52.265   5.025  19.059  0.00  0.00    +0.000 A 
ATOM     14  S   UNL     1      53.584   3.983  19.348  0.00  0.00    +0.000 S 
ATOM     15  C   UNL     1      52.832   2.707  18.510  0.00  0.00    +0.000 A 
ATOM     16  N   UNL     1      53.418   1.486  18.424  0.00  0.00    +0.000 NA
ATOM     17  C   UNL     1      52.718   0.599  17.794  0.00  0.00    +0.000 A 
ATOM     18  N   UNL     1      51.495   0.832  17.222  0.00  0.00    +0.000 N 
ATOM     19  C   UNL     1      50.905   2.074  17.210  0.00  0.00    +0.000 A 
ATOM     20  O   UNL     1      49.895   2.289  16.550  0.00  0.00    +0.000 OA
ATOM     21  C   UNL     1      51.613   3.086  17.974  0.00  0.00    +0.000 A 
ATOM     22  H   UNL     1      51.023   0.108  16.704  0.00  0.00    +0.000 HD
ENDBRANCH   9  12
ENDBRANCH   7  10
ENDBRANCH   1   7
BRANCH   5  23
ATOM     23  C   UNL     1      46.449   5.595  12.464  0.00  0.00    +0.000 C 
BRANCH  23  24
ATOM     24  N   UNL     1      45.940   6.252  11.252  0.00  0.00    +0.000 NA
ATOM     25  H   UNL     1      46.647   6.118  10.522  0.00  0.00    +0.000 HD
BRANCH  24  26
ATOM     26  C   UNL     1      44.704   5.618  10.770  0.00  0.00    +0.000 C 
BRANCH  26  27
ATOM     27  C   UNL     1      44.999   4.480   9.814  0.00  0.00    +0.000 A 
ATOM     28  N   UNL     1      45.758   4.804   8.724  0.00  0.00    +0.000 NA
ATOM     29  C   UNL     1      46.017   3.832   7.826  0.00  0.00    +0.000 A 
ATOM     30  C   UNL     1      45.563   2.531   7.951  0.00  0.00    +0.000 A 
ATOM     31  C   UNL     1      44.790   2.209   9.063  0.00  0.00    +0.000 A 
ATOM     32  C   UNL     1      44.494   3.192  10.008  0.00  0.00    +0.000 A 
ATOM     33 CL   UNL     1      43.524   2.749  11.364  0.00  0.00    +0.000 Cl
ENDBRANCH  26  27
ENDBRANCH  24  26
ENDBRANCH  23  24
ENDBRANCH   5  23
TORSDOF 7
ENDMDL
