MODEL 1
REMARK VINA RESULT:    -7.247      0.000      0.000
REMARK INTER + INTRA:          -9.525
REMARK INTER:                  -9.153
REMARK INTRA:                  -0.372
REMARK UNBOUND:                -0.372
REMARK  Name = 
REMARK  5 active torsions:
REMARK  status: ('A' for Active; 'I' for Inactive)
REMARK    1  A    between atoms: N_1  and  C_2
REMARK    2  A    between atoms: C_2  and  C_3
REMARK    3  A    between atoms: C_6  and  O_7
REMARK    4  A    between atoms: O_7  and  C_8
REMARK    5  A    between atoms: C_8  and  C_9
REMARK                            x       y       z     vdW  Elec       q    Type
REMARK                         _______ _______ _______ _____ _____    ______ ____
ROOT
ATOM      1  C   UNL     1      46.614   2.765   6.860  0.00  0.00    +0.000 A 
ATOM      2  C   UNL     1      46.039   3.981   7.260  0.00  0.00    +0.000 A 
ATOM      3  C   UNL     1      45.236   4.046   8.402  0.00  0.00    +0.000 A 
ATOM      4  C   UNL     1      44.986   2.895   9.149  0.00  0.00    +0.000 A 
ATOM      5  C   UNL     1      45.609   1.698   8.794  0.00  0.00    +0.000 A 
ATOM      6  C   UNL     1      46.405   1.629   7.651  0.00  0.00    +0.000 A 
ENDROOT
BRANCH   1   7
ATOM      7  C   UNL     1      47.420   2.665   5.591  0.00  0.00    +0.000 C 
BRANCH   7   8
ATOM      8  N   UNL     1      48.546   1.755   5.737  0.00  0.00    +0.000 NA
ATOM      9  H   UNL     1      48.903   1.820   6.688  0.00  0.00    +0.000 HD
ATOM     10  H   UNL     1      49.300   2.065   5.125  0.00  0.00    +0.000 HD
ENDBRANCH   7   8
ENDBRANCH   1   7
BRANCH   4  11
ATOM     11  O   UNL     1      44.116   3.038  10.198  0.00  0.00    +0.000 OA
BRANCH  11  12
ATOM     12  C   UNL     1      44.116   4.341  10.793  0.00  0.00    +0.000 C 
BRANCH  12  13
ATOM     13  C   UNL     1      45.202   4.464  11.823  0.00  0.00    +0.000 A 
ATOM     14  C   UNL     1      45.942   5.626  12.008  0.00  0.00    +0.000 A 
ATOM     15  C   UNL     1      46.942   5.619  12.963  0.00  0.00    +0.000 A 
ATOM     16  N   UNL     1      47.234   4.532  13.708  0.00  0.00    +0.000 NA
ATOM     17  N   UNL     1      46.528   3.390  13.523  0.00  0.00    +0.000 NA
ATOM     18  C   UNL     1      45.542   3.367  12.602  0.00  0.00    +0.000 A 
ENDBRANCH  12  13
ENDBRANCH  11  12
ENDBRANCH   4  11
TORSDOF 5
ENDMDL
MODEL 2
REMARK VINA RESULT:    -7.154      1.111      1.857
REMARK INTER + INTRA:          -9.408
REMARK INTER:                  -8.852
REMARK INTRA:                  -0.556
REMARK UNBOUND:                -0.372
REMARK  Name = 
REMARK  5 active torsions:
REMARK  status: ('A' for Active; 'I' for Inactive)
REMARK    1  A    between atoms: N_1  and  C_2
REMARK    2  A    between atoms: C_2  and  C_3
REMARK    3  A    between atoms: C_6  and  O_7
REMARK    4  A    between atoms: O_7  and  C_8
REMARK    5  A    between atoms: C_8  and  C_9
REMARK                            x       y       z     vdW  Elec       q    Type
REMARK                         _______ _______ _______ _____ _____    ______ ____
ROOT
ATOM      1  C   UNL     1      46.592   2.300   7.632  0.00  0.00    +0.000 A 
ATOM      2  C   UNL     1      45.716   1.564   8.444  0.00  0.00    +0.000 A 
ATOM      3  C   UNL     1      44.713   2.207   9.175  0.00  0.00    +0.000 A 
ATOM      4  C   UNL     1      44.584   3.594   9.116  0.00  0.00    +0.000 A 
ATOM      5  C   UNL     1      45.409   4.325   8.259  0.00  0.00    +0.000 A 
ATOM      6  C   UNL     1      46.414   3.686   7.533  0.00  0.00    +0.000 A 
ENDROOT
BRANCH   1   7
ATOM      7  C   UNL     1      47.722   1.630   6.897  0.00  0.00    +0.000 C 
BRANCH   7   8
ATOM      8  N   UNL     1      48.657   2.599   6.343  0.00  0.00    +0.000 NA
ATOM      9  H   UNL     1      48.919   3.259   7.072  0.00  0.00    +0.000 HD
ATOM     10  H   UNL     1      48.180   3.138   5.622  0.00  0.00    +0.000 HD
ENDBRANCH   7   8
ENDBRANCH   1   7
BRANCH   4  11
ATOM     11  O   UNL     1      43.632   4.144   9.935  0.00  0.00    +0.000 OA
BRANCH  11  12
ATOM     12  C   UNL     1      43.607   3.600  11.259  0.00  0.00    +0.000 C 
BRANCH  12  13
ATOM     13  C   UNL     1      44.688   4.200  12.111  0.00  0.00    +0.000 A 
ATOM     14  C   UNL     1      45.675   3.442  12.729  0.00  0.00    +0.000 A 
ATOM     15  C   UNL     1      46.603   4.094  13.520  0.00  0.00    +0.000 A 
ATOM     16  N   UNL     1      46.580   5.428  13.725  0.00  0.00    +0.000 NA
ATOM     17  N   UNL     1      45.611   6.174  13.139  0.00  0.00    +0.000 NA
ATOM     18  C   UNL     1      44.694   5.566  12.358  0.00  0.00    +0.000 A 
ENDBRANCH  12  13
ENDBRANCH  11  12
ENDBRANCH   4  11
TORSDOF 5
ENDMDL
MODEL 3
REMARK VINA RESULT:    -6.756      1.282      5.804
REMARK INTER + INTRA:          -8.904
REMARK INTER:                  -8.427
REMARK INTRA:                  -0.477
REMARK UNBOUND:                -0.372
REMARK  Name = 
REMARK  5 active torsions:
REMARK  status: ('A' for Active; 'I' for Inactive)
REMARK    1  A    between atoms: N_1  and  C_2
REMARK    2  A    between atoms: C_2  and  C_3
REMARK    3  A    between atoms: C_6  and  O_7
REMARK    4  A    between atoms: O_7  and  C_8
REMARK    5  A    between atoms: C_8  and  C_9
REMARK                            x       y       z     vdW  Elec       q    Type
REMARK                         _______ _______ _______ _____ _____    ______ ____
ROOT
ATOM      1  C   UNL     1      46.476   5.232  12.852  0.00  0.00    +0.000 A 
ATOM      2  C   UNL     1      46.022   3.905  12.865  0.00  0.00    +0.000 A 
ATOM      3  C   UNL     1      45.304   3.387  11.784  0.00  0.00    +0.000 A 
ATOM      4  C   UNL     1      45.016   4.195  10.683  0.00  0.00    +0.000 A 
ATOM      5  C   UNL     1      45.522   5.495  10.635  0.00  0.00    +0.000 A 
ATOM      6  C   UNL     1      46.234   6.015  11.717  0.00  0.00    +0.000 A 
ENDROOT
BRANCH   1   7
ATOM      7  C   UNL     1      47.186   5.825  14.040  0.00  0.00    +0.000 C 
BRANCH   7   8
ATOM      8  N   UNL     1      47.337   4.857  15.117  0.00  0.00    +0.000 NA
ATOM      9  H   UNL     1      47.593   3.956  14.718  0.00  0.00    +0.000 HD
ATOM     10  H   UNL     1      46.433   4.726  15.569  0.00  0.00    +0.000 HD
ENDBRANCH   7   8
ENDBRANCH   1   7
BRANCH   4  11
ATOM     11  O   UNL     1      44.231   3.629   9.713  0.00  0.00    +0.000 OA
BRANCH  11  12
ATOM     12  C   UNL     1      44.665   3.891   8.374  0.00  0.00    +0.000 C 
BRANCH  12  13
ATOM     13  C   UNL     1      45.767   2.953   7.970  0.00  0.00    +0.000 A 
ATOM     14  C   UNL     1      46.845   3.345   7.185  0.00  0.00    +0.000 A 
ATOM     15  C   UNL     1      47.786   2.390   6.844  0.00  0.00    +0.000 A 
ATOM     16  N   UNL     1      47.691   1.100   7.227  0.00  0.00    +0.000 NA
ATOM     17  N   UNL     1      46.633   0.706   7.978  0.00  0.00    +0.000 NA
ATOM     18  C   UNL     1      45.701   1.615   8.332  0.00  0.00    +0.000 A 
ENDBRANCH  12  13
ENDBRANCH  11  12
ENDBRANCH   4  11
TORSDOF 5
ENDMDL
MODEL 4
REMARK VINA RESULT:    -5.993      1.933      2.572
REMARK INTER + INTRA:          -7.941
REMARK INTER:                  -7.648
REMARK INTRA:                  -0.293
REMARK UNBOUND:                -0.372
REMARK  Name = 
REMARK  5 active torsions:
REMARK  status: ('A' for Active; 'I' for Inactive)
REMARK    1  A    between atoms: N_1  and  C_2
REMARK    2  A    between atoms: C_2  and  C_3
REMARK    3  A    between atoms: C_6  and  O_7
REMARK    4  A    between atoms: O_7  and  C_8
REMARK    5  A    between atoms: C_8  and  C_9
REMARK                            x       y       z     vdW  Elec       q    Type
REMARK                         _______ _______ _______ _____ _____    ______ ____
ROOT
ATOM      1  C   UNL     1      46.246   2.776   7.596  0.00  0.00    +0.000 A 
ATOM      2  C   UNL     1      45.660   1.869   8.492  0.00  0.00    +0.000 A 
ATOM      3  C   UNL     1      44.967   2.327   9.615  0.00  0.00    +0.000 A 
ATOM      4  C   UNL     1      44.864   3.695   9.866  0.00  0.00    +0.000 A 
ATOM      5  C   UNL     1      45.387   4.603   8.943  0.00  0.00    +0.000 A 
ATOM      6  C   UNL     1      46.086   4.148   7.824  0.00  0.00    +0.000 A 
ENDROOT
BRANCH   1   7
ATOM      7  C   UNL     1      47.059   2.297   6.422  0.00  0.00    +0.000 C 
BRANCH   7   8
ATOM      8  N   UNL     1      48.077   1.338   6.826  0.00  0.00    +0.000 NA
ATOM      9  H   UNL     1      48.237   0.684   6.062  0.00  0.00    +0.000 HD
ATOM     10  H   UNL     1      47.719   0.788   7.606  0.00  0.00    +0.000 HD
ENDBRANCH   7   8
ENDBRANCH   1   7
BRANCH   4  11
ATOM     11  O   UNL     1      44.245   4.046  11.037  0.00  0.00    +0.000 OA
BRANCH  11  12
ATOM     12  C   UNL     1      43.720   5.378  11.052  0.00  0.00    +0.000 C 
BRANCH  12  13
ATOM     13  C   UNL     1      44.671   6.327  11.722  0.00  0.00    +0.000 A 
ATOM     14  C   UNL     1      45.588   5.926  12.687  0.00  0.00    +0.000 A 
ATOM     15  C   UNL     1      46.394   6.890  13.264  0.00  0.00    +0.000 A 
ATOM     16  N   UNL     1      46.316   8.198  12.941  0.00  0.00    +0.000 NA
ATOM     17  N   UNL     1      45.413   8.600  12.014  0.00  0.00    +0.000 NA
ATOM     18  C   UNL     1      44.616   7.682  11.428  0.00  0.00    +0.000 A 
ENDBRANCH  12  13
ENDBRANCH  11  12
ENDBRANCH   4  11
TORSDOF 5
ENDMDL
MODEL 5
REMARK VINA RESULT:    -5.733      1.965      6.015
REMARK INTER + INTRA:          -7.613
REMARK INTER:                  -7.295
REMARK INTRA:                  -0.318
REMARK UNBOUND:                -0.372
REMARK  Name = 
REMARK  5 active torsions:
REMARK  status: ('A' for Active; 'I' for Inactive)
REMARK    1  A    between atoms: N_1  and  C_2
REMARK    2  A    between atoms: C_2  and  C_3
REMARK    3  A    between atoms: C_6  and  O_7
REMARK    4  A    between atoms: O_7  and  C_8
REMARK    5  A    between atoms: C_8  and  C_9
REMARK                            x       y       z     vdW  Elec       q    Type
REMARK                         _______ _______ _______ _____ _____    ______ ____
ROOT
ATOM      1  C   UNL     1      43.958   5.180  11.799  0.00  0.00    +0.000 A 
ATOM      2  C   UNL     1      45.210   5.812  11.767  0.00  0.00    +0.000 A 
ATOM      3  C   UNL     1      45.988   5.791  10.606  0.00  0.00    +0.000 A 
ATOM      4  C   UNL     1      45.532   5.125   9.469  0.00  0.00    +0.000 A 
ATOM      5  C   UNL     1      44.259   4.552   9.474  0.00  0.00    +0.000 A 
ATOM      6  C   UNL     1      43.484   4.566  10.634  0.00  0.00    +0.000 A 
ENDROOT
BRANCH   1   7
ATOM      7  C   UNL     1      43.143   5.130  13.064  0.00  0.00    +0.000 C 
BRANCH   7   8
ATOM      8  N   UNL     1      43.281   3.852  13.746  0.00  0.00    +0.000 NA
ATOM      9  H   UNL     1      42.390   3.607  14.173  0.00  0.00    +0.000 HD
ATOM     10  H   UNL     1      43.947   3.957  14.510  0.00  0.00    +0.000 HD
ENDBRANCH   7   8
ENDBRANCH   1   7
BRANCH   4  11
ATOM     11  O   UNL     1      46.401   5.081   8.410  0.00  0.00    +0.000 OA
BRANCH  11  12
ATOM     12  C   UNL     1      45.921   4.339   7.283  0.00  0.00    +0.000 C 
BRANCH  12  13
ATOM     13  C   UNL     1      46.510   2.957   7.256  0.00  0.00    +0.000 A 
ATOM     14  C   UNL     1      45.971   1.890   7.965  0.00  0.00    +0.000 A 
ATOM     15  C   UNL     1      46.613   0.668   7.895  0.00  0.00    +0.000 A 
ATOM     16  N   UNL     1      47.743   0.475   7.183  0.00  0.00    +0.000 NA
ATOM     17  N   UNL     1      48.285   1.514   6.502  0.00  0.00    +0.000 NA
ATOM     18  C   UNL     1      47.678   2.719   6.546  0.00  0.00    +0.000 A 
ENDBRANCH  12  13
ENDBRANCH  11  12
ENDBRANCH   4  11
TORSDOF 5
ENDMDL
MODEL 6
REMARK VINA RESULT:    -5.371      2.037      6.007
REMARK INTER + INTRA:          -7.155
REMARK INTER:                  -7.111
REMARK INTRA:                  -0.044
REMARK UNBOUND:                -0.372
REMARK  Name = 
REMARK  5 active torsions:
REMARK  status: ('A' for Active; 'I' for Inactive)
REMARK    1  A    between atoms: N_1  and  C_2
REMARK    2  A    between atoms: C_2  and  C_3
REMARK    3  A    between atoms: C_6  and  O_7
REMARK    4  A    between atoms: O_7  and  C_8
REMARK    5  A    between atoms: C_8  and  C_9
REMARK                            x       y       z     vdW  Elec       q    Type
REMARK                         _______ _______ _______ _____ _____    ______ ____
ROOT
ATOM      1  C   UNL     1      45.738   7.491  12.209  0.00  0.00    +0.000 A 
ATOM      2  C   UNL     1      44.526   7.638  11.518  0.00  0.00    +0.000 A 
ATOM      3  C   UNL     1      43.867   6.524  10.992  0.00  0.00    +0.000 A 
ATOM      4  C   UNL     1      44.420   5.251  11.135  0.00  0.00    +0.000 A 
ATOM      5  C   UNL     1      45.591   5.091  11.878  0.00  0.00    +0.000 A 
ATOM      6  C   UNL     1      46.253   6.203  12.398  0.00  0.00    +0.000 A 
ENDROOT
BRANCH   1   7
ATOM      7  C   UNL     1      46.496   8.689  12.717  0.00  0.00    +0.000 C 
BRANCH   7   8
ATOM      8  N   UNL     1      46.803   8.573  14.135  0.00  0.00    +0.000 NA
ATOM      9  H   UNL     1      47.803   8.419  14.245  0.00  0.00    +0.000 HD
ATOM     10  H   UNL     1      46.340   7.744  14.504  0.00  0.00    +0.000 HD
ENDBRANCH   7   8
ENDBRANCH   1   7
BRANCH   4  11
ATOM     11  O   UNL     1      43.751   4.232  10.508  0.00  0.00    +0.000 OA
BRANCH  11  12
ATOM     12  C   UNL     1      44.490   3.009  10.416  0.00  0.00    +0.000 C 
BRANCH  12  13
ATOM     13  C   UNL     1      45.246   2.931   9.120  0.00  0.00    +0.000 A 
ATOM     14  C   UNL     1      45.832   1.760   8.655  0.00  0.00    +0.000 A 
ATOM     15  C   UNL     1      46.534   1.808   7.465  0.00  0.00    +0.000 A 
ATOM     16  N   UNL     1      46.684   2.943   6.749  0.00  0.00    +0.000 NA
ATOM     17  N   UNL     1      46.129   4.093   7.204  0.00  0.00    +0.000 NA
ATOM     18  C   UNL     1      45.433   4.077   8.360  0.00  0.00    +0.000 A 
ENDBRANCH  12  13
ENDBRANCH  11  12
ENDBRANCH   4  11
TORSDOF 5
ENDMDL
MODEL 7
REMARK VINA RESULT:    -5.231      2.850      6.987
REMARK INTER + INTRA:          -6.978
REMARK INTER:                  -6.607
REMARK INTRA:                  -0.371
REMARK UNBOUND:                -0.372
REMARK  Name = 
REMARK  5 active torsions:
REMARK  status: ('A' for Active; 'I' for Inactive)
REMARK    1  A    between atoms: N_1  and  C_2
REMARK    2  A    between atoms: C_2  and  C_3
REMARK    3  A    between atoms: C_6  and  O_7
REMARK    4  A    between atoms: O_7  and  C_8
REMARK    5  A    between atoms: C_8  and  C_9
REMARK                            x       y       z     vdW  Elec       q    Type
REMARK                         _______ _______ _______ _____ _____    ______ ____
ROOT
ATOM      1  C   UNL     1      47.621   4.823  15.768  0.00  0.00    +0.000 A 
ATOM      2  C   UNL     1      46.767   4.015  15.003  0.00  0.00    +0.000 A 
ATOM      3  C   UNL     1      46.435   4.373  13.693  0.00  0.00    +0.000 A 
ATOM      4  C   UNL     1      46.938   5.550  13.139  0.00  0.00    +0.000 A 
ATOM      5  C   UNL     1      47.840   6.323  13.872  0.00  0.00    +0.000 A 
ATOM      6  C   UNL     1      48.168   5.971  15.182  0.00  0.00    +0.000 A 
ENDROOT
BRANCH   1   7
ATOM      7  C   UNL     1      47.929   4.489  17.204  0.00  0.00    +0.000 C 
BRANCH   7   8
ATOM      8  N   UNL     1      46.791   4.749  18.075  0.00  0.00    +0.000 NA
ATOM      9  H   UNL     1      46.390   3.861  18.367  0.00  0.00    +0.000 HD
ATOM     10  H   UNL     1      46.070   5.229  17.538  0.00  0.00    +0.000 HD
ENDBRANCH   7   8
ENDBRANCH   1   7
BRANCH   4  11
ATOM     11  O   UNL     1      46.485   5.863  11.884  0.00  0.00    +0.000 OA
BRANCH  11  12
ATOM     12  C   UNL     1      45.144   5.441  11.617  0.00  0.00    +0.000 C 
BRANCH  12  13
ATOM     13  C   UNL     1      45.077   4.606  10.371  0.00  0.00    +0.000 A 
ATOM     14  C   UNL     1      44.521   3.333  10.340  0.00  0.00    +0.000 A 
ATOM     15  C   UNL     1      44.543   2.638   9.145  0.00  0.00    +0.000 A 
ATOM     16  N   UNL     1      45.092   3.138   8.018  0.00  0.00    +0.000 NA
ATOM     17  N   UNL     1      45.651   4.372   8.043  0.00  0.00    +0.000 NA
ATOM     18  C   UNL     1      45.641   5.078   9.193  0.00  0.00    +0.000 A 
ENDBRANCH  12  13
ENDBRANCH  11  12
ENDBRANCH   4  11
TORSDOF 5
ENDMDL
MODEL 8
REMARK VINA RESULT:    -5.142      3.796      5.480
REMARK INTER + INTRA:          -6.867
REMARK INTER:                  -6.517
REMARK INTRA:                  -0.350
REMARK UNBOUND:                -0.372
REMARK  Name = 
REMARK  5 active torsions:
REMARK  status: ('A' for Active; 'I' for Inactive)
REMARK    1  A    between atoms: N_1  and  C_2
REMARK    2  A    between atoms: C_2  and  C_3
REMARK    3  A    between atoms: C_6  and  O_7
REMARK    4  A    between atoms: O_7  and  C_8
REMARK    5  A    between atoms: C_8  and  C_9
REMARK                            x       y       z     vdW  Elec       q    Type
REMARK                         _______ _______ _______ _____ _____    ______ ____
ROOT
ATOM      1  C   UNL     1      45.231   4.754  11.167  0.00  0.00    +0.000 A 
ATOM      2  C   UNL     1      45.288   3.763  12.159  0.00  0.00    +0.000 A 
ATOM      3  C   UNL     1      46.039   3.962  13.321  0.00  0.00    +0.000 A 
ATOM      4  C   UNL     1      46.756   5.146  13.498  0.00  0.00    +0.000 A 
ATOM      5  C   UNL     1      46.650   6.161  12.545  0.00  0.00    +0.000 A 
ATOM      6  C   UNL     1      45.905   5.962  11.382  0.00  0.00    +0.000 A 
ENDROOT
BRANCH   1   7
ATOM      7  C   UNL     1      44.487   4.524   9.878  0.00  0.00    +0.000 C 
BRANCH   7   8
ATOM      8  N   UNL     1      45.280   4.908   8.720  0.00  0.00    +0.000 NA
ATOM      9  H   UNL     1      46.263   4.735   8.921  0.00  0.00    +0.000 HD
ATOM     10  H   UNL     1      45.187   5.913   8.578  0.00  0.00    +0.000 HD
ENDBRANCH   7   8
ENDBRANCH   1   7
BRANCH   4  11
ATOM     11  O   UNL     1      47.534   5.213  14.623  0.00  0.00    +0.000 OA
BRANCH  11  12
ATOM     12  C   UNL     1      47.144   4.314  15.667  0.00  0.00    +0.000 C 
BRANCH  12  13
ATOM     13  C   UNL     1      48.344   3.736  16.361  0.00  0.00    +0.000 A 
ATOM     14  C   UNL     1      49.182   4.488  17.176  0.00  0.00    +0.000 A 
ATOM     15  C   UNL     1      50.280   3.863  17.739  0.00  0.00    +0.000 A 
ATOM     16  N   UNL     1      50.575   2.564  17.518  0.00  0.00    +0.000 NA
ATOM     17  N   UNL     1      49.773   1.829  16.710  0.00  0.00    +0.000 NA
ATOM     18  C   UNL     1      48.691   2.409  16.150  0.00  0.00    +0.000 A 
ENDBRANCH  12  13
ENDBRANCH  11  12
ENDBRANCH   4  11
TORSDOF 5
ENDMDL
MODEL 9
REMARK VINA RESULT:    -5.072      3.398      5.805
REMARK INTER + INTRA:          -6.778
REMARK INTER:                  -6.276
REMARK INTRA:                  -0.503
REMARK UNBOUND:                -0.372
REMARK  Name = 
REMARK  5 active torsions:
REMARK  status: ('A' for Active; 'I' for Inactive)
REMARK    1  A    between atoms: N_1  and  C_2
REMARK    2  A    between atoms: C_2  and  C_3
REMARK    3  A    between atoms: C_6  and  O_7
REMARK    4  A    between atoms: O_7  and  C_8
REMARK    5  A    between atoms: C_8  and  C_9
REMARK                            x       y       z     vdW  Elec       q    Type
REMARK                         _______ _______ _______ _____ _____    ______ ____
ROOT
ATOM      1  C   UNL     1      49.099   8.086  12.109  0.00  0.00    +0.000 A 
ATOM      2  C   UNL     1      47.981   8.932  12.074  0.00  0.00    +0.000 A 
ATOM      3  C   UNL     1      46.709   8.445  12.389  0.00  0.00    +0.000 A 
ATOM      4  C   UNL     1      46.538   7.102  12.725  0.00  0.00    +0.000 A 
ATOM      5  C   UNL     1      47.655   6.271  12.825  0.00  0.00    +0.000 A 
ATOM      6  C   UNL     1      48.924   6.755  12.506  0.00  0.00    +0.000 A 
ENDROOT
BRANCH   1   7
ATOM      7  C   UNL     1      50.462   8.579  11.701  0.00  0.00    +0.000 C 
BRANCH   7   8
ATOM      8  N   UNL     1      51.357   7.481  11.367  0.00  0.00    +0.000 NA
ATOM      9  H   UNL     1      52.312   7.831  11.332  0.00  0.00    +0.000 HD
ATOM     10  H   UNL     1      51.136   7.151  10.428  0.00  0.00    +0.000 HD
ENDBRANCH   7   8
ENDBRANCH   1   7
BRANCH   4  11
ATOM     11  O   UNL     1      45.245   6.695  12.929  0.00  0.00    +0.000 OA
BRANCH  11  12
ATOM     12  C   UNL     1      44.445   6.653  11.742  0.00  0.00    +0.000 C 
BRANCH  12  13
ATOM     13  C   UNL     1      44.286   5.244  11.246  0.00  0.00    +0.000 A 
ATOM     14  C   UNL     1      45.010   4.731  10.177  0.00  0.00    +0.000 A 
ATOM     15  C   UNL     1      44.760   3.430   9.782  0.00  0.00    +0.000 A 
ATOM     16  N   UNL     1      43.836   2.648  10.381  0.00  0.00    +0.000 NA
ATOM     17  N   UNL     1      43.114   3.146  11.414  0.00  0.00    +0.000 NA
ATOM     18  C   UNL     1      43.339   4.411  11.826  0.00  0.00    +0.000 A 
ENDBRANCH  12  13
ENDBRANCH  11  12
ENDBRANCH   4  11
TORSDOF 5
ENDMDL
