MODEL 1
REMARK VINA RESULT:    -7.222      0.000      0.000
REMARK INTER + INTRA:          -8.724
REMARK INTER:                  -8.489
REMARK INTRA:                  -0.236
REMARK UNBOUND:                -0.236
REMARK  Name = 
REMARK  3 active torsions:
REMARK  status: ('A' for Active; 'I' for Inactive)
REMARK    1  A    between atoms: C_2  and  C_3
REMARK    2  A    between atoms: N_7  and  C_8
REMARK    3  A    between atoms: C_8  and  C_9
REMARK                            x       y       z     vdW  Elec       q    Type
REMARK                         _______ _______ _______ _____ _____    ______ ____
ROOT
ATOM      1  C   UNL     1      46.231   4.600  13.287  0.00  0.00    +0.000 A 
ATOM      2  C   UNL     1      46.619   5.671  12.520  0.00  0.00    +0.000 A 
ATOM      3  N   UNL     1      46.188   5.871  11.257  0.00  0.00    +0.000 NA
ATOM      4  C   UNL     1      45.406   4.926  10.717  0.00  0.00    +0.000 A 
ATOM      5  N   UNL     1      45.103   5.092   9.390  0.00  0.00    +0.000 N 
ATOM      6  N   UNL     1      44.973   3.848  11.388  0.00  0.00    +0.000 NA
ATOM      7  C   UNL     1      45.378   3.720  12.670  0.00  0.00    +0.000 A 
ATOM      8  H   UNL     1      44.780   6.032   9.208  0.00  0.00    +0.000 HD
ENDROOT
BRANCH   1  10
ATOM      9  N   UNL     1      47.060   4.259  15.705  0.00  0.00    +0.000 NA
ATOM     10  C   UNL     1      46.686   4.415  14.619  0.00  0.00    +0.000 C 
ENDBRANCH   1  10
BRANCH   5  11
ATOM     11  C   UNL     1      44.462   4.011   8.683  0.00  0.00    +0.000 C 
BRANCH  11  12
ATOM     12  C   UNL     1      45.523   3.095   8.129  0.00  0.00    +0.000 A 
ATOM     13  C   UNL     1      46.508   3.568   7.251  0.00  0.00    +0.000 A 
ATOM     14  C   UNL     1      47.490   2.706   6.778  0.00  0.00    +0.000 A 
ATOM     15  C   UNL     1      47.465   1.391   7.209  0.00  0.00    +0.000 A 
ATOM     16  N   UNL     1      46.540   0.898   8.062  0.00  0.00    +0.000 NA
ATOM     17  C   UNL     1      45.595   1.759   8.503  0.00  0.00    +0.000 A 
ENDBRANCH  11  12
ENDBRANCH   5  11
TORSDOF 3
ENDMDL
MODEL 2
REMARK VINA RESULT:    -6.937      1.563      5.948
REMARK INTER + INTRA:          -8.389
REMARK INTER:                  -8.172
REMARK INTRA:                  -0.217
REMARK UNBOUND:                -0.236
REMARK  Name = 
REMARK  3 active torsions:
REMARK  status: ('A' for Active; 'I' for Inactive)
REMARK    1  A    between atoms: C_2  and  C_3
REMARK    2  A    between atoms: N_7  and  C_8
REMARK    3  A    between atoms: C_8  and  C_9
REMARK                            x       y       z     vdW  Elec       q    Type
REMARK                         _______ _______ _______ _____ _____    ______ ____
ROOT
ATOM      1  C   UNL     1      46.735   2.422   7.182  0.00  0.00    +0.000 A 
ATOM      2  C   UNL     1      46.228   1.506   8.071  0.00  0.00    +0.000 A 
ATOM      3  N   UNL     1      45.287   1.810   8.990  0.00  0.00    +0.000 NA
ATOM      4  C   UNL     1      44.899   3.090   9.073  0.00  0.00    +0.000 A 
ATOM      5  N   UNL     1      44.049   3.388  10.107  0.00  0.00    +0.000 N 
ATOM      6  N   UNL     1      45.336   4.053   8.247  0.00  0.00    +0.000 NA
ATOM      7  C   UNL     1      46.230   3.692   7.302  0.00  0.00    +0.000 A 
ATOM      8  H   UNL     1      43.281   2.733  10.142  0.00  0.00    +0.000 HD
ENDROOT
BRANCH   1  10
ATOM      9  N   UNL     1      48.514   1.798   5.422  0.00  0.00    +0.000 NA
ATOM     10  C   UNL     1      47.716   2.079   6.215  0.00  0.00    +0.000 C 
ENDBRANCH   1  10
BRANCH   5  11
ATOM     11  C   UNL     1      43.768   4.772  10.399  0.00  0.00    +0.000 C 
BRANCH  11  12
ATOM     12  C   UNL     1      44.806   5.284  11.365  0.00  0.00    +0.000 A 
ATOM     13  C   UNL     1      45.721   6.278  10.993  0.00  0.00    +0.000 A 
ATOM     14  C   UNL     1      46.649   6.750  11.914  0.00  0.00    +0.000 A 
ATOM     15  C   UNL     1      46.627   6.218  13.192  0.00  0.00    +0.000 A 
ATOM     16  N   UNL     1      45.756   5.266  13.594  0.00  0.00    +0.000 NA
ATOM     17  C   UNL     1      44.867   4.824  12.675  0.00  0.00    +0.000 A 
ENDBRANCH  11  12
ENDBRANCH   5  11
TORSDOF 3
ENDMDL
MODEL 3
REMARK VINA RESULT:    -6.632      1.499      2.231
REMARK INTER + INTRA:          -8.030
REMARK INTER:                  -7.924
REMARK INTRA:                  -0.106
REMARK UNBOUND:                -0.236
REMARK  Name = 
REMARK  3 active torsions:
REMARK  status: ('A' for Active; 'I' for Inactive)
REMARK    1  A    between atoms: C_2  and  C_3
REMARK    2  A    between atoms: N_7  and  C_8
REMARK    3  A    between atoms: C_8  and  C_9
REMARK                            x       y       z     vdW  Elec       q    Type
REMARK                         _______ _______ _______ _____ _____    ______ ____
ROOT
ATOM      1  C   UNL     1      45.525   6.260  12.137  0.00  0.00    +0.000 A 
ATOM      2  C   UNL     1      45.557   5.089  12.853  0.00  0.00    +0.000 A 
ATOM      3  N   UNL     1      45.431   3.871  12.284  0.00  0.00    +0.000 NA
ATOM      4  C   UNL     1      45.187   3.829  10.967  0.00  0.00    +0.000 A 
ATOM      5  N   UNL     1      44.925   2.586  10.450  0.00  0.00    +0.000 N 
ATOM      6  N   UNL     1      45.140   4.919  10.186  0.00  0.00    +0.000 NA
ATOM      7  C   UNL     1      45.334   6.113  10.786  0.00  0.00    +0.000 A 
ATOM      8  H   UNL     1      45.621   1.918  10.750  0.00  0.00    +0.000 HD
ENDROOT
BRANCH   1  10
ATOM      9  N   UNL     1      45.786   8.569  13.256  0.00  0.00    +0.000 NA
ATOM     10  C   UNL     1      45.671   7.531  12.753  0.00  0.00    +0.000 C 
ENDBRANCH   1  10
BRANCH   5  11
ATOM     11  C   UNL     1      44.433   2.486   9.098  0.00  0.00    +0.000 C 
BRANCH  11  12
ATOM     12  C   UNL     1      45.602   2.276   8.170  0.00  0.00    +0.000 A 
ATOM     13  C   UNL     1      46.081   3.311   7.355  0.00  0.00    +0.000 A 
ATOM     14  C   UNL     1      47.178   3.096   6.530  0.00  0.00    +0.000 A 
ATOM     15  C   UNL     1      47.774   1.847   6.551  0.00  0.00    +0.000 A 
ATOM     16  N   UNL     1      47.350   0.826   7.329  0.00  0.00    +0.000 NA
ATOM     17  C   UNL     1      46.279   1.064   8.119  0.00  0.00    +0.000 A 
ENDBRANCH  11  12
ENDBRANCH   5  11
TORSDOF 3
ENDMDL
MODEL 4
REMARK VINA RESULT:    -5.863      1.866      2.412
REMARK INTER + INTRA:          -7.128
REMARK INTER:                  -6.959
REMARK INTRA:                  -0.168
REMARK UNBOUND:                -0.236
REMARK  Name = 
REMARK  3 active torsions:
REMARK  status: ('A' for Active; 'I' for Inactive)
REMARK    1  A    between atoms: C_2  and  C_3
REMARK    2  A    between atoms: N_7  and  C_8
REMARK    3  A    between atoms: C_8  and  C_9
REMARK                            x       y       z     vdW  Elec       q    Type
REMARK                         _______ _______ _______ _____ _____    ______ ____
ROOT
ATOM      1  C   UNL     1      46.893   7.031  13.133  0.00  0.00    +0.000 A 
ATOM      2  C   UNL     1      46.209   7.759  12.190  0.00  0.00    +0.000 A 
ATOM      3  N   UNL     1      45.262   7.227  11.389  0.00  0.00    +0.000 NA
ATOM      4  C   UNL     1      45.049   5.908  11.480  0.00  0.00    +0.000 A 
ATOM      5  N   UNL     1      44.184   5.380  10.556  0.00  0.00    +0.000 N 
ATOM      6  N   UNL     1      45.665   5.116  12.371  0.00  0.00    +0.000 NA
ATOM      7  C   UNL     1      46.560   5.701  13.196  0.00  0.00    +0.000 A 
ATOM      8  H   UNL     1      43.332   5.921  10.510  0.00  0.00    +0.000 HD
ENDROOT
BRANCH   1  10
ATOM      9  N   UNL     1      48.683   8.082  14.664  0.00  0.00    +0.000 NA
ATOM     10  C   UNL     1      47.877   7.612  13.975  0.00  0.00    +0.000 C 
ENDBRANCH   1  10
BRANCH   5  11
ATOM     11  C   UNL     1      44.078   3.946  10.444  0.00  0.00    +0.000 C 
BRANCH  11  12
ATOM     12  C   UNL     1      44.998   3.476   9.347  0.00  0.00    +0.000 A 
ATOM     13  C   UNL     1      45.303   2.118   9.182  0.00  0.00    +0.000 A 
ATOM     14  C   UNL     1      46.133   1.712   8.144  0.00  0.00    +0.000 A 
ATOM     15  C   UNL     1      46.629   2.681   7.290  0.00  0.00    +0.000 A 
ATOM     16  N   UNL     1      46.353   3.998   7.407  0.00  0.00    +0.000 NA
ATOM     17  C   UNL     1      45.544   4.364   8.428  0.00  0.00    +0.000 A 
ENDBRANCH  11  12
ENDBRANCH   5  11
TORSDOF 3
ENDMDL
MODEL 5
REMARK VINA RESULT:    -5.746      2.779      7.079
REMARK INTER + INTRA:          -6.990
REMARK INTER:                  -6.730
REMARK INTRA:                  -0.260
REMARK UNBOUND:                -0.236
REMARK  Name = 
REMARK  3 active torsions:
REMARK  status: ('A' for Active; 'I' for Inactive)
REMARK    1  A    between atoms: C_2  and  C_3
REMARK    2  A    between atoms: N_7  and  C_8
REMARK    3  A    between atoms: C_8  and  C_9
REMARK                            x       y       z     vdW  Elec       q    Type
REMARK                         _______ _______ _______ _____ _____    ______ ____
ROOT
ATOM      1  C   UNL     1      45.383   4.568  11.660  0.00  0.00    +0.000 A 
ATOM      2  C   UNL     1      45.998   5.738  12.031  0.00  0.00    +0.000 A 
ATOM      3  N   UNL     1      46.678   5.883  13.187  0.00  0.00    +0.000 NA
ATOM      4  C   UNL     1      46.676   4.846  14.036  0.00  0.00    +0.000 A 
ATOM      5  N   UNL     1      47.255   5.076  15.258  0.00  0.00    +0.000 N 
ATOM      6  N   UNL     1      46.106   3.663  13.761  0.00  0.00    +0.000 NA
ATOM      7  C   UNL     1      45.490   3.541  12.565  0.00  0.00    +0.000 A 
ATOM      8  H   UNL     1      48.163   5.504  15.150  0.00  0.00    +0.000 HD
ENDROOT
BRANCH   1  10
ATOM      9  N   UNL     1      44.114   4.322   9.428  0.00  0.00    +0.000 NA
ATOM     10  C   UNL     1      44.682   4.432  10.433  0.00  0.00    +0.000 C 
ENDBRANCH   1  10
BRANCH   5  11
ATOM     11  C   UNL     1      47.092   4.093  16.300  0.00  0.00    +0.000 C 
BRANCH  11  12
ATOM     12  C   UNL     1      48.449   3.552  16.673  0.00  0.00    +0.000 A 
ATOM     13  C   UNL     1      49.355   4.311  17.426  0.00  0.00    +0.000 A 
ATOM     14  C   UNL     1      50.588   3.775  17.778  0.00  0.00    +0.000 A 
ATOM     15  C   UNL     1      50.876   2.483  17.373  0.00  0.00    +0.000 A 
ATOM     16  N   UNL     1      50.028   1.715  16.655  0.00  0.00    +0.000 NA
ATOM     17  C   UNL     1      48.837   2.264  16.324  0.00  0.00    +0.000 A 
ENDBRANCH  11  12
ENDBRANCH   5  11
TORSDOF 3
ENDMDL
MODEL 6
REMARK VINA RESULT:    -5.354      3.627      5.146
REMARK INTER + INTRA:          -6.529
REMARK INTER:                  -6.288
REMARK INTRA:                  -0.241
REMARK UNBOUND:                -0.236
REMARK  Name = 
REMARK  3 active torsions:
REMARK  status: ('A' for Active; 'I' for Inactive)
REMARK    1  A    between atoms: C_2  and  C_3
REMARK    2  A    between atoms: N_7  and  C_8
REMARK    3  A    between atoms: C_8  and  C_9
REMARK                            x       y       z     vdW  Elec       q    Type
REMARK                         _______ _______ _______ _____ _____    ______ ____
ROOT
ATOM      1  C   UNL     1      48.149   4.578  17.743  0.00  0.00    +0.000 A 
ATOM      2  C   UNL     1      48.648   5.485  16.841  0.00  0.00    +0.000 A 
ATOM      3  N   UNL     1      48.253   5.540  15.552  0.00  0.00    +0.000 NA
ATOM      4  C   UNL     1      47.387   4.607  15.133  0.00  0.00    +0.000 A 
ATOM      5  N   UNL     1      47.117   4.608  13.788  0.00  0.00    +0.000 N 
ATOM      6  N   UNL     1      46.844   3.684  15.940  0.00  0.00    +0.000 NA
ATOM      7  C   UNL     1      47.219   3.704  17.237  0.00  0.00    +0.000 A 
ATOM      8  H   UNL     1      46.890   5.538  13.467  0.00  0.00    +0.000 HD
ENDROOT
BRANCH   1  10
ATOM      9  N   UNL     1      48.914   4.520  20.205  0.00  0.00    +0.000 NA
ATOM     10  C   UNL     1      48.569   4.543  19.099  0.00  0.00    +0.000 C 
ENDBRANCH   1  10
BRANCH   5  11
ATOM     11  C   UNL     1      46.380   3.503  13.227  0.00  0.00    +0.000 C 
BRANCH  11  12
ATOM     12  C   UNL     1      45.190   4.044  12.477  0.00  0.00    +0.000 A 
ATOM     13  C   UNL     1      45.115   5.393  12.102  0.00  0.00    +0.000 A 
ATOM     14  C   UNL     1      44.018   5.857  11.388  0.00  0.00    +0.000 A 
ATOM     15  C   UNL     1      43.025   4.951  11.057  0.00  0.00    +0.000 A 
ATOM     16  N   UNL     1      43.063   3.642  11.390  0.00  0.00    +0.000 NA
ATOM     17  C   UNL     1      44.141   3.219  12.088  0.00  0.00    +0.000 A 
ENDBRANCH  11  12
ENDBRANCH   5  11
TORSDOF 3
ENDMDL
MODEL 7
REMARK VINA RESULT:    -5.230      1.941      3.404
REMARK INTER + INTRA:          -6.383
REMARK INTER:                  -6.175
REMARK INTRA:                  -0.208
REMARK UNBOUND:                -0.236
REMARK  Name = 
REMARK  3 active torsions:
REMARK  status: ('A' for Active; 'I' for Inactive)
REMARK    1  A    between atoms: C_2  and  C_3
REMARK    2  A    between atoms: N_7  and  C_8
REMARK    3  A    between atoms: C_8  and  C_9
REMARK                            x       y       z     vdW  Elec       q    Type
REMARK                         _______ _______ _______ _____ _____    ______ ____
ROOT
ATOM      1  C   UNL     1      48.229   5.383  15.874  0.00  0.00    +0.000 A 
ATOM      2  C   UNL     1      48.322   6.326  14.880  0.00  0.00    +0.000 A 
ATOM      3  N   UNL     1      47.519   6.339  13.795  0.00  0.00    +0.000 NA
ATOM      4  C   UNL     1      46.648   5.329  13.662  0.00  0.00    +0.000 A 
ATOM      5  N   UNL     1      45.949   5.298  12.483  0.00  0.00    +0.000 N 
ATOM      6  N   UNL     1      46.485   4.365  14.580  0.00  0.00    +0.000 NA
ATOM      7  C   UNL     1      47.265   4.426  15.681  0.00  0.00    +0.000 A 
ATOM      8  H   UNL     1      45.549   6.202  12.277  0.00  0.00    +0.000 HD
ENDROOT
BRANCH   1  10
ATOM      9  N   UNL     1      49.770   5.405  17.942  0.00  0.00    +0.000 NA
ATOM     10  C   UNL     1      49.076   5.394  17.014  0.00  0.00    +0.000 C 
ENDBRANCH   1  10
BRANCH   5  11
ATOM     11  C   UNL     1      45.167   4.127  12.169  0.00  0.00    +0.000 C 
BRANCH  11  12
ATOM     12  C   UNL     1      45.150   3.941  10.674  0.00  0.00    +0.000 A 
ATOM     13  C   UNL     1      44.654   2.768  10.090  0.00  0.00    +0.000 A 
ATOM     14  C   UNL     1      44.626   2.636   8.707  0.00  0.00    +0.000 A 
ATOM     15  C   UNL     1      45.087   3.694   7.943  0.00  0.00    +0.000 A 
ATOM     16  N   UNL     1      45.563   4.846   8.464  0.00  0.00    +0.000 NA
ATOM     17  C   UNL     1      45.582   4.944   9.813  0.00  0.00    +0.000 A 
ENDBRANCH  11  12
ENDBRANCH   5  11
TORSDOF 3
ENDMDL
MODEL 8
REMARK VINA RESULT:    -5.092      2.923      7.939
REMARK INTER + INTRA:          -6.221
REMARK INTER:                  -6.048
REMARK INTRA:                  -0.173
REMARK UNBOUND:                -0.236
REMARK  Name = 
REMARK  3 active torsions:
REMARK  status: ('A' for Active; 'I' for Inactive)
REMARK    1  A    between atoms: C_2  and  C_3
REMARK    2  A    between atoms: N_7  and  C_8
REMARK    3  A    between atoms: C_8  and  C_9
REMARK                            x       y       z     vdW  Elec       q    Type
REMARK                         _______ _______ _______ _____ _____    ______ ____
ROOT
ATOM      1  C   UNL     1      45.309   4.549  11.614  0.00  0.00    +0.000 A 
ATOM      2  C   UNL     1      45.786   5.764  12.038  0.00  0.00    +0.000 A 
ATOM      3  N   UNL     1      46.461   5.931  13.195  0.00  0.00    +0.000 NA
ATOM      4  C   UNL     1      46.592   4.861  13.991  0.00  0.00    +0.000 A 
ATOM      5  N   UNL     1      47.157   5.097  15.218  0.00  0.00    +0.000 N 
ATOM      6  N   UNL     1      46.161   3.634  13.661  0.00  0.00    +0.000 NA
ATOM      7  C   UNL     1      45.547   3.499  12.465  0.00  0.00    +0.000 A 
ATOM      8  H   UNL     1      48.007   5.635  15.125  0.00  0.00    +0.000 HD
ENDROOT
BRANCH   1  10
ATOM      9  N   UNL     1      44.041   4.260   9.386  0.00  0.00    +0.000 NA
ATOM     10  C   UNL     1      44.612   4.392  10.387  0.00  0.00    +0.000 C 
ENDBRANCH   1  10
BRANCH   5  11
ATOM     11  C   UNL     1      47.125   4.052  16.210  0.00  0.00    +0.000 C 
BRANCH  11  12
ATOM     12  C   UNL     1      47.885   4.514  17.427  0.00  0.00    +0.000 A 
ATOM     13  C   UNL     1      47.271   5.288  18.421  0.00  0.00    +0.000 A 
ATOM     14  C   UNL     1      47.990   5.676  19.545  0.00  0.00    +0.000 A 
ATOM     15  C   UNL     1      49.308   5.268  19.647  0.00  0.00    +0.000 A 
ATOM     16  N   UNL     1      49.935   4.514  18.717  0.00  0.00    +0.000 NA
ATOM     17  C   UNL     1      49.211   4.154  17.633  0.00  0.00    +0.000 A 
ENDBRANCH  11  12
ENDBRANCH   5  11
TORSDOF 3
ENDMDL
MODEL 9
REMARK VINA RESULT:    -4.961      2.673      3.931
REMARK INTER + INTRA:          -6.067
REMARK INTER:                  -5.797
REMARK INTRA:                  -0.270
REMARK UNBOUND:                -0.236
REMARK  Name = 
REMARK  3 active torsions:
REMARK  status: ('A' for Active; 'I' for Inactive)
REMARK    1  A    between atoms: C_2  and  C_3
REMARK    2  A    between atoms: N_7  and  C_8
REMARK    3  A    between atoms: C_8  and  C_9
REMARK                            x       y       z     vdW  Elec       q    Type
REMARK                         _______ _______ _______ _____ _____    ______ ____
ROOT
ATOM      1  C   UNL     1      49.065   7.741  13.232  0.00  0.00    +0.000 A 
ATOM      2  C   UNL     1      48.789   6.640  14.005  0.00  0.00    +0.000 A 
ATOM      3  N   UNL     1      47.808   5.760  13.715  0.00  0.00    +0.000 NA
ATOM      4  C   UNL     1      47.027   6.034  12.662  0.00  0.00    +0.000 A 
ATOM      5  N   UNL     1      45.956   5.196  12.481  0.00  0.00    +0.000 N 
ATOM      6  N   UNL     1      47.220   7.082  11.848  0.00  0.00    +0.000 NA
ATOM      7  C   UNL     1      48.252   7.903  12.138  0.00  0.00    +0.000 A 
ATOM      8  H   UNL     1      46.244   4.229  12.526  0.00  0.00    +0.000 HD
ENDROOT
BRANCH   1  10
ATOM      9  N   UNL     1      50.965   9.389  13.801  0.00  0.00    +0.000 NA
ATOM     10  C   UNL     1      50.110   8.649  13.547  0.00  0.00    +0.000 C 
ENDBRANCH   1  10
BRANCH   5  11
ATOM     11  C   UNL     1      44.948   5.555  11.514  0.00  0.00    +0.000 C 
BRANCH  11  12
ATOM     12  C   UNL     1      45.086   4.656  10.313  0.00  0.00    +0.000 A 
ATOM     13  C   UNL     1      44.579   3.349  10.317  0.00  0.00    +0.000 A 
ATOM     14  C   UNL     1      44.697   2.552   9.185  0.00  0.00    +0.000 A 
ATOM     15  C   UNL     1      45.314   3.093   8.070  0.00  0.00    +0.000 A 
ATOM     16  N   UNL     1      45.807   4.350   8.020  0.00  0.00    +0.000 NA
ATOM     17  C   UNL     1      45.681   5.101   9.138  0.00  0.00    +0.000 A 
ENDBRANCH  11  12
ENDBRANCH   5  11
TORSDOF 3
ENDMDL
