MODEL 1
REMARK VINA RESULT:    -8.687      0.000      0.000
REMARK INTER + INTRA:         -11.285
REMARK INTER:                 -10.719
REMARK INTRA:                  -0.566
REMARK UNBOUND:                -0.566
REMARK  Name = 
REMARK  4 active torsions:
REMARK  status: ('A' for Active; 'I' for Inactive)
REMARK    1  A    between atoms: C_2  and  C_4
REMARK    2  A    between atoms: N_8  and  C_9
REMARK    3  A    between atoms: C_9  and  C_10
REMARK    4  A    between atoms: C_14  and  C_15
REMARK                            x       y       z     vdW  Elec       q    Type
REMARK                         _______ _______ _______ _____ _____    ______ ____
ROOT
ATOM      1  C   UNL     1      43.544   4.710  11.169  0.00  0.00    +0.000 C 
ENDROOT
BRANCH   1   6
ATOM      2  C   UNL     1      46.373   2.415   7.721  0.00  0.00    +0.000 A 
ATOM      3  N   UNL     1      45.721   1.845   8.760  0.00  0.00    +0.000 NA
ATOM      4  C   UNL     1      44.893   2.691   9.422  0.00  0.00    +0.000 A 
ATOM      5  C   UNL     1      44.711   4.034   9.115  0.00  0.00    +0.000 A 
ATOM      6  N   UNL     1      43.819   4.880   9.754  0.00  0.00    +0.000 N 
ATOM      7  N   UNL     1      45.403   4.523   8.070  0.00  0.00    +0.000 NA
ATOM      8  N   UNL     1      46.252   3.706   7.354  0.00  0.00    +0.000 NA
ATOM      9  H   UNL     1      43.978   5.836   9.450  0.00  0.00    +0.000 HD
BRANCH   2  11
ATOM     10  N   UNL     1      48.383   2.154   6.358  0.00  0.00    +0.000 N 
ATOM     11  C   UNL     1      47.288   1.533   6.918  0.00  0.00    +0.000 C 
ATOM     12  O   UNL     1      47.104   0.332   6.752  0.00  0.00    +0.000 OA
ATOM     13  H   UNL     1      49.037   1.602   5.821  0.00  0.00    +0.000 HD
ATOM     14  H   UNL     1      48.549   3.143   6.506  0.00  0.00    +0.000 HD
ENDBRANCH   2  11
ENDBRANCH   1   6
BRANCH   1  15
ATOM     15  C   UNL     1      44.757   5.088  11.981  0.00  0.00    +0.000 A 
ATOM     16  C   UNL     1      45.173   4.322  13.071  0.00  0.00    +0.000 A 
ATOM     17  C   UNL     1      46.278   4.744  13.790  0.00  0.00    +0.000 A 
ATOM     18  N   UNL     1      46.989   5.852  13.497  0.00  0.00    +0.000 NA
ATOM     19  C   UNL     1      46.582   6.600  12.443  0.00  0.00    +0.000 A 
ATOM     20  C   UNL     1      45.472   6.254  11.679  0.00  0.00    +0.000 A 
BRANCH  19  21
ATOM     21  C   UNL     1      47.373   7.811  12.151  0.00  0.00    +0.000 C 
ATOM     22  C   UNL     1      48.701   7.744  11.927  0.00  0.00    +0.000 C 
ATOM     23  C   UNL     1      49.552   8.937  11.616  0.00  0.00    +0.000 C 
ATOM     24  N   UNL     1      48.793  10.159  11.327  0.00  0.00    +0.000 NA
ATOM     25  C   UNL     1      47.681  10.306  12.270  0.00  0.00    +0.000 C 
ATOM     26  C   UNL     1      46.678   9.150  12.141  0.00  0.00    +0.000 C 
ATOM     27  H   UNL     1      48.414  10.076  10.384  0.00  0.00    +0.000 HD
ENDBRANCH  19  21
ENDBRANCH   1  15
TORSDOF 4
ENDMDL
MODEL 2
REMARK VINA RESULT:    -8.108      3.150      7.141
REMARK INTER + INTRA:         -10.570
REMARK INTER:                 -10.462
REMARK INTRA:                  -0.108
REMARK UNBOUND:                -0.566
REMARK  Name = 
REMARK  4 active torsions:
REMARK  status: ('A' for Active; 'I' for Inactive)
REMARK    1  A    between atoms: C_2  and  C_4
REMARK    2  A    between atoms: N_8  and  C_9
REMARK    3  A    between atoms: C_9  and  C_10
REMARK    4  A    between atoms: C_14  and  C_15
REMARK                            x       y       z     vdW  Elec       q    Type
REMARK                         _______ _______ _______ _____ _____    ______ ____
ROOT
ATOM      1  C   UNL     1      45.588   6.811  11.417  0.00  0.00    +0.000 C 
ENDROOT
BRANCH   1   6
ATOM      2  C   UNL     1      47.332   4.513  15.520  0.00  0.00    +0.000 A 
ATOM      3  N   UNL     1      46.248   4.172  14.787  0.00  0.00    +0.000 NA
ATOM      4  C   UNL     1      46.123   4.872  13.631  0.00  0.00    +0.000 A 
ATOM      5  C   UNL     1      46.988   5.872  13.205  0.00  0.00    +0.000 A 
ATOM      6  N   UNL     1      46.892   6.542  11.996  0.00  0.00    +0.000 N 
ATOM      7  N   UNL     1      48.038   6.153  13.997  0.00  0.00    +0.000 NA
ATOM      8  N   UNL     1      48.221   5.466  15.179  0.00  0.00    +0.000 NA
ATOM      9  H   UNL     1      47.546   7.319  11.983  0.00  0.00    +0.000 HD
BRANCH   2  11
ATOM     10  N   UNL     1      48.811   3.883  17.359  0.00  0.00    +0.000 N 
ATOM     11  C   UNL     1      47.557   3.760  16.802  0.00  0.00    +0.000 C 
ATOM     12  O   UNL     1      46.702   3.072  17.347  0.00  0.00    +0.000 OA
ATOM     13  H   UNL     1      49.008   3.409  18.229  0.00  0.00    +0.000 HD
ATOM     14  H   UNL     1      49.517   4.464  16.922  0.00  0.00    +0.000 HD
ENDBRANCH   2  11
ENDBRANCH   1   6
BRANCH   1  15
ATOM     15  C   UNL     1      45.012   5.549  10.829  0.00  0.00    +0.000 A 
ATOM     16  C   UNL     1      43.759   5.069  11.215  0.00  0.00    +0.000 A 
ATOM     17  C   UNL     1      43.304   3.887  10.655  0.00  0.00    +0.000 A 
ATOM     18  N   UNL     1      43.996   3.169   9.746  0.00  0.00    +0.000 NA
ATOM     19  C   UNL     1      45.215   3.631   9.376  0.00  0.00    +0.000 A 
ATOM     20  C   UNL     1      45.752   4.801   9.903  0.00  0.00    +0.000 A 
BRANCH  19  21
ATOM     21  C   UNL     1      45.953   2.821   8.387  0.00  0.00    +0.000 C 
ATOM     22  C   UNL     1      45.997   1.476   8.476  0.00  0.00    +0.000 C 
ATOM     23  C   UNL     1      46.720   0.602   7.497  0.00  0.00    +0.000 C 
ATOM     24  N   UNL     1      47.173   1.299   6.288  0.00  0.00    +0.000 NA
ATOM     25  C   UNL     1      47.745   2.604   6.633  0.00  0.00    +0.000 C 
ATOM     26  C   UNL     1      46.697   3.523   7.279  0.00  0.00    +0.000 C 
ATOM     27  H   UNL     1      46.360   1.445   5.689  0.00  0.00    +0.000 HD
ENDBRANCH  19  21
ENDBRANCH   1  15
TORSDOF 4
ENDMDL
MODEL 3
REMARK VINA RESULT:    -7.699      2.212      3.316
REMARK INTER + INTRA:         -10.065
REMARK INTER:                  -9.696
REMARK INTRA:                  -0.369
REMARK UNBOUND:                -0.566
REMARK  Name = 
REMARK  4 active torsions:
REMARK  status: ('A' for Active; 'I' for Inactive)
REMARK    1  A    between atoms: C_2  and  C_4
REMARK    2  A    between atoms: N_8  and  C_9
REMARK    3  A    between atoms: C_9  and  C_10
REMARK    4  A    between atoms: C_14  and  C_15
REMARK                            x       y       z     vdW  Elec       q    Type
REMARK                         _______ _______ _______ _____ _____    ______ ____
ROOT
ATOM      1  C   UNL     1      43.482   3.672  11.094  0.00  0.00    +0.000 C 
ENDROOT
BRANCH   1   6
ATOM      2  C   UNL     1      46.558   2.699   7.255  0.00  0.00    +0.000 A 
ATOM      3  N   UNL     1      46.261   3.909   7.782  0.00  0.00    +0.000 NA
ATOM      4  C   UNL     1      45.535   3.847   8.926  0.00  0.00    +0.000 A 
ATOM      5  C   UNL     1      45.095   2.676   9.531  0.00  0.00    +0.000 A 
ATOM      6  N   UNL     1      44.407   2.614  10.733  0.00  0.00    +0.000 N 
ATOM      7  N   UNL     1      45.429   1.516   8.938  0.00  0.00    +0.000 NA
ATOM      8  N   UNL     1      46.175   1.518   7.777  0.00  0.00    +0.000 NA
ATOM      9  H   UNL     1      44.072   1.668  10.885  0.00  0.00    +0.000 HD
BRANCH   2  11
ATOM     10  N   UNL     1      48.736   2.461   6.173  0.00  0.00    +0.000 N 
ATOM     11  C   UNL     1      47.387   2.683   6.000  0.00  0.00    +0.000 C 
ATOM     12  O   UNL     1      46.925   2.850   4.877  0.00  0.00    +0.000 OA
ATOM     13  H   UNL     1      49.333   2.426   5.359  0.00  0.00    +0.000 HD
ATOM     14  H   UNL     1      49.121   2.306   7.097  0.00  0.00    +0.000 HD
ENDBRANCH   2  11
ENDBRANCH   1   6
BRANCH   1  15
ATOM     15  C   UNL     1      44.228   4.820  11.725  0.00  0.00    +0.000 A 
ATOM     16  C   UNL     1      44.018   6.139  11.318  0.00  0.00    +0.000 A 
ATOM     17  C   UNL     1      44.759   7.141  11.921  0.00  0.00    +0.000 A 
ATOM     18  N   UNL     1      45.672   6.923  12.890  0.00  0.00    +0.000 NA
ATOM     19  C   UNL     1      45.881   5.642  13.281  0.00  0.00    +0.000 A 
ATOM     20  C   UNL     1      45.189   4.577  12.715  0.00  0.00    +0.000 A 
BRANCH  19  21
ATOM     21  C   UNL     1      46.891   5.433  14.336  0.00  0.00    +0.000 C 
ATOM     22  C   UNL     1      46.800   4.401  15.200  0.00  0.00    +0.000 C 
ATOM     23  C   UNL     1      47.800   4.133  16.283  0.00  0.00    +0.000 C 
ATOM     24  N   UNL     1      49.026   4.934  16.182  0.00  0.00    +0.000 NA
ATOM     25  C   UNL     1      48.703   6.323  15.840  0.00  0.00    +0.000 C 
ATOM     26  C   UNL     1      48.025   6.420  14.465  0.00  0.00    +0.000 C 
ATOM     27  H   UNL     1      49.598   4.537  15.437  0.00  0.00    +0.000 HD
ENDBRANCH  19  21
ENDBRANCH   1  15
TORSDOF 4
ENDMDL
MODEL 4
REMARK VINA RESULT:    -7.528      1.856      2.453
REMARK INTER + INTRA:          -9.854
REMARK INTER:                  -9.404
REMARK INTRA:                  -0.450
REMARK UNBOUND:                -0.566
REMARK  Name = 
REMARK  4 active torsions:
REMARK  status: ('A' for Active; 'I' for Inactive)
REMARK    1  A    between atoms: C_2  and  C_4
REMARK    2  A    between atoms: N_8  and  C_9
REMARK    3  A    between atoms: C_9  and  C_10
REMARK    4  A    between atoms: C_14  and  C_15
REMARK                            x       y       z     vdW  Elec       q    Type
REMARK                         _______ _______ _______ _____ _____    ______ ____
ROOT
ATOM      1  C   UNL     1      43.555   3.703  11.004  0.00  0.00    +0.000 C 
ENDROOT
BRANCH   1   6
ATOM      2  C   UNL     1      46.662   2.422   7.281  0.00  0.00    +0.000 A 
ATOM      3  N   UNL     1      46.468   3.655   7.800  0.00  0.00    +0.000 NA
ATOM      4  C   UNL     1      45.696   3.668   8.916  0.00  0.00    +0.000 A 
ATOM      5  C   UNL     1      45.118   2.548   9.500  0.00  0.00    +0.000 A 
ATOM      6  N   UNL     1      44.382   2.557  10.674  0.00  0.00    +0.000 N 
ATOM      7  N   UNL     1      45.356   1.360   8.916  0.00  0.00    +0.000 NA
ATOM      8  N   UNL     1      46.142   1.286   7.785  0.00  0.00    +0.000 NA
ATOM      9  H   UNL     1      43.948   1.649  10.811  0.00  0.00    +0.000 HD
BRANCH   2  11
ATOM     10  N   UNL     1      47.317   3.275   5.087  0.00  0.00    +0.000 N 
ATOM     11  C   UNL     1      47.531   2.321   6.058  0.00  0.00    +0.000 C 
ATOM     12  O   UNL     1      48.388   1.458   5.901  0.00  0.00    +0.000 OA
ATOM     13  H   UNL     1      47.886   3.260   4.253  0.00  0.00    +0.000 HD
ATOM     14  H   UNL     1      46.622   4.000   5.218  0.00  0.00    +0.000 HD
ENDBRANCH   2  11
ENDBRANCH   1   6
BRANCH   1  15
ATOM     15  C   UNL     1      44.358   4.717  11.777  0.00  0.00    +0.000 A 
ATOM     16  C   UNL     1      45.186   4.338  12.835  0.00  0.00    +0.000 A 
ATOM     17  C   UNL     1      45.874   5.326  13.520  0.00  0.00    +0.000 A 
ATOM     18  N   UNL     1      45.800   6.640  13.223  0.00  0.00    +0.000 NA
ATOM     19  C   UNL     1      44.991   7.009  12.199  0.00  0.00    +0.000 A 
ATOM     20  C   UNL     1      44.255   6.080  11.471  0.00  0.00    +0.000 A 
BRANCH  19  21
ATOM     21  C   UNL     1      44.924   8.452  11.902  0.00  0.00    +0.000 C 
ATOM     22  C   UNL     1      44.001   8.951  11.054  0.00  0.00    +0.000 C 
ATOM     23  C   UNL     1      43.878  10.407  10.724  0.00  0.00    +0.000 C 
ATOM     24  N   UNL     1      44.678  11.289  11.581  0.00  0.00    +0.000 NA
ATOM     25  C   UNL     1      46.012  10.719  11.798  0.00  0.00    +0.000 C 
ATOM     26  C   UNL     1      45.934   9.375  12.537  0.00  0.00    +0.000 C 
ATOM     27  H   UNL     1      44.203  11.365  12.480  0.00  0.00    +0.000 HD
ENDBRANCH  19  21
ENDBRANCH   1  15
TORSDOF 4
ENDMDL
MODEL 5
REMARK VINA RESULT:    -7.273      4.975      7.940
REMARK INTER + INTRA:          -9.539
REMARK INTER:                  -8.941
REMARK INTRA:                  -0.599
REMARK UNBOUND:                -0.566
REMARK  Name = 
REMARK  4 active torsions:
REMARK  status: ('A' for Active; 'I' for Inactive)
REMARK    1  A    between atoms: C_2  and  C_4
REMARK    2  A    between atoms: N_8  and  C_9
REMARK    3  A    between atoms: C_9  and  C_10
REMARK    4  A    between atoms: C_14  and  C_15
REMARK                            x       y       z     vdW  Elec       q    Type
REMARK                         _______ _______ _______ _____ _____    ______ ____
ROOT
ATOM      1  C   UNL     1      47.063   4.620  16.394  0.00  0.00    +0.000 C 
ENDROOT
BRANCH   1   6
ATOM      2  C   UNL     1      51.279   2.098  17.404  0.00  0.00    +0.000 A 
ATOM      3  N   UNL     1      50.824   3.214  18.016  0.00  0.00    +0.000 NA
ATOM      4  C   UNL     1      49.568   3.572  17.648  0.00  0.00    +0.000 A 
ATOM      5  C   UNL     1      48.786   2.899  16.717  0.00  0.00    +0.000 A 
ATOM      6  N   UNL     1      47.481   3.231  16.389  0.00  0.00    +0.000 N 
ATOM      7  N   UNL     1      49.317   1.801  16.150  0.00  0.00    +0.000 NA
ATOM      8  N   UNL     1      50.587   1.385  16.493  0.00  0.00    +0.000 NA
ATOM      9  H   UNL     1      47.183   2.686  15.585  0.00  0.00    +0.000 HD
BRANCH   2  11
ATOM     10  N   UNL     1      52.752   0.292  18.136  0.00  0.00    +0.000 N 
ATOM     11  C   UNL     1      52.653   1.619  17.781  0.00  0.00    +0.000 C 
ATOM     12  O   UNL     1      53.647   2.337  17.783  0.00  0.00    +0.000 OA
ATOM     13  H   UNL     1      53.657  -0.082  18.383  0.00  0.00    +0.000 HD
ATOM     14  H   UNL     1      51.937  -0.310  18.120  0.00  0.00    +0.000 HD
ENDBRANCH   2  11
ENDBRANCH   1   6
BRANCH   1  15
ATOM     15  C   UNL     1      47.201   5.208  15.014  0.00  0.00    +0.000 A 
ATOM     16  C   UNL     1      48.159   6.183  14.728  0.00  0.00    +0.000 A 
ATOM     17  C   UNL     1      48.210   6.701  13.444  0.00  0.00    +0.000 A 
ATOM     18  N   UNL     1      47.393   6.314  12.443  0.00  0.00    +0.000 NA
ATOM     19  C   UNL     1      46.458   5.373  12.722  0.00  0.00    +0.000 A 
ATOM     20  C   UNL     1      46.330   4.814  13.989  0.00  0.00    +0.000 A 
BRANCH  19  21
ATOM     21  C   UNL     1      45.572   4.977  11.610  0.00  0.00    +0.000 C 
ATOM     22  C   UNL     1      44.620   4.037  11.774  0.00  0.00    +0.000 C 
ATOM     23  C   UNL     1      43.686   3.602  10.686  0.00  0.00    +0.000 C 
ATOM     24  N   UNL     1      43.717   4.452   9.490  0.00  0.00    +0.000 NA
ATOM     25  C   UNL     1      45.100   4.798   9.145  0.00  0.00    +0.000 C 
ATOM     26  C   UNL     1      45.769   5.617  10.258  0.00  0.00    +0.000 C 
ATOM     27  H   UNL     1      43.208   5.310   9.703  0.00  0.00    +0.000 HD
ENDBRANCH  19  21
ENDBRANCH   1  15
TORSDOF 4
ENDMDL
MODEL 6
REMARK VINA RESULT:    -7.127      3.908      7.634
REMARK INTER + INTRA:          -9.360
REMARK INTER:                  -8.899
REMARK INTRA:                  -0.461
REMARK UNBOUND:                -0.566
REMARK  Name = 
REMARK  4 active torsions:
REMARK  status: ('A' for Active; 'I' for Inactive)
REMARK    1  A    between atoms: C_2  and  C_4
REMARK    2  A    between atoms: N_8  and  C_9
REMARK    3  A    between atoms: C_9  and  C_10
REMARK    4  A    between atoms: C_14  and  C_15
REMARK                            x       y       z     vdW  Elec       q    Type
REMARK                         _______ _______ _______ _____ _____    ______ ____
ROOT
ATOM      1  C   UNL     1      45.886   5.628  13.637  0.00  0.00    +0.000 C 
ENDROOT
BRANCH   1   6
ATOM      2  C   UNL     1      49.271   3.829  16.871  0.00  0.00    +0.000 A 
ATOM      3  N   UNL     1      48.926   5.123  16.680  0.00  0.00    +0.000 NA
ATOM      4  C   UNL     1      47.856   5.292  15.863  0.00  0.00    +0.000 A 
ATOM      5  C   UNL     1      47.157   4.265  15.239  0.00  0.00    +0.000 A 
ATOM      6  N   UNL     1      46.027   4.438  14.455  0.00  0.00    +0.000 N 
ATOM      7  N   UNL     1      47.570   3.008  15.478  0.00  0.00    +0.000 NA
ATOM      8  N   UNL     1      48.647   2.776  16.309  0.00  0.00    +0.000 NA
ATOM      9  H   UNL     1      45.793   3.561  13.998  0.00  0.00    +0.000 HD
BRANCH   2  11
ATOM     10  N   UNL     1      50.912   2.266  17.785  0.00  0.00    +0.000 N 
ATOM     11  C   UNL     1      50.431   3.558  17.789  0.00  0.00    +0.000 C 
ATOM     12  O   UNL     1      50.943   4.407  18.509  0.00  0.00    +0.000 OA
ATOM     13  H   UNL     1      51.700   2.036  18.373  0.00  0.00    +0.000 HD
ATOM     14  H   UNL     1      50.503   1.564  17.179  0.00  0.00    +0.000 HD
ENDBRANCH   2  11
ENDBRANCH   1   6
BRANCH   1  15
ATOM     15  C   UNL     1      45.087   5.314  12.399  0.00  0.00    +0.000 A 
ATOM     16  C   UNL     1      43.752   5.704  12.273  0.00  0.00    +0.000 A 
ATOM     17  C   UNL     1      43.070   5.357  11.119  0.00  0.00    +0.000 A 
ATOM     18  N   UNL     1      43.619   4.668  10.098  0.00  0.00    +0.000 NA
ATOM     19  C   UNL     1      44.913   4.283  10.222  0.00  0.00    +0.000 A 
ATOM     20  C   UNL     1      45.663   4.578  11.355  0.00  0.00    +0.000 A 
BRANCH  19  21
ATOM     21  C   UNL     1      45.484   3.523   9.094  0.00  0.00    +0.000 C 
ATOM     22  C   UNL     1      45.531   2.176   9.108  0.00  0.00    +0.000 C 
ATOM     23  C   UNL     1      46.089   1.352   7.988  0.00  0.00    +0.000 C 
ATOM     24  N   UNL     1      46.358   2.108   6.760  0.00  0.00    +0.000 NA
ATOM     25  C   UNL     1      46.986   3.394   7.078  0.00  0.00    +0.000 C 
ATOM     26  C   UNL     1      46.057   4.280   7.921  0.00  0.00    +0.000 C 
ATOM     27  H   UNL     1      45.464   2.285   6.300  0.00  0.00    +0.000 HD
ENDBRANCH  19  21
ENDBRANCH   1  15
TORSDOF 4
ENDMDL
MODEL 7
REMARK VINA RESULT:    -6.629      5.351      7.456
REMARK INTER + INTRA:          -8.746
REMARK INTER:                  -8.200
REMARK INTRA:                  -0.545
REMARK UNBOUND:                -0.566
REMARK  Name = 
REMARK  4 active torsions:
REMARK  status: ('A' for Active; 'I' for Inactive)
REMARK    1  A    between atoms: C_2  and  C_4
REMARK    2  A    between atoms: N_8  and  C_9
REMARK    3  A    between atoms: C_9  and  C_10
REMARK    4  A    between atoms: C_14  and  C_15
REMARK                            x       y       z     vdW  Elec       q    Type
REMARK                         _______ _______ _______ _____ _____    ______ ____
ROOT
ATOM      1  C   UNL     1      47.145   4.326  16.423  0.00  0.00    +0.000 C 
ENDROOT
BRANCH   1   6
ATOM      2  C   UNL     1      45.578   4.726  11.676  0.00  0.00    +0.000 A 
ATOM      3  N   UNL     1      46.072   5.709  12.463  0.00  0.00    +0.000 NA
ATOM      4  C   UNL     1      46.577   5.268  13.642  0.00  0.00    +0.000 A 
ATOM      5  C   UNL     1      46.592   3.943  14.060  0.00  0.00    +0.000 A 
ATOM      6  N   UNL     1      47.164   3.489  15.238  0.00  0.00    +0.000 N 
ATOM      7  N   UNL     1      46.075   3.029  13.219  0.00  0.00    +0.000 NA
ATOM      8  N   UNL     1      45.556   3.419  12.002  0.00  0.00    +0.000 NA
ATOM      9  H   UNL     1      46.916   2.515  15.384  0.00  0.00    +0.000 HD
BRANCH   2  11
ATOM     10  N   UNL     1      43.652   5.198  10.249  0.00  0.00    +0.000 N 
ATOM     11  C   UNL     1      45.026   5.131  10.337  0.00  0.00    +0.000 C 
ATOM     12  O   UNL     1      45.723   5.393   9.364  0.00  0.00    +0.000 OA
ATOM     13  H   UNL     1      43.232   5.481   9.375  0.00  0.00    +0.000 HD
ATOM     14  H   UNL     1      43.071   4.999  11.054  0.00  0.00    +0.000 HD
ENDBRANCH   2  11
ENDBRANCH   1   6
BRANCH   1  15
ATOM     15  C   UNL     1      48.552   4.682  16.830  0.00  0.00    +0.000 A 
ATOM     16  C   UNL     1      48.988   6.007  16.865  0.00  0.00    +0.000 A 
ATOM     17  C   UNL     1      50.303   6.260  17.220  0.00  0.00    +0.000 A 
ATOM     18  N   UNL     1      51.193   5.300  17.544  0.00  0.00    +0.000 NA
ATOM     19  C   UNL     1      50.772   4.012  17.504  0.00  0.00    +0.000 A 
ATOM     20  C   UNL     1      49.472   3.672  17.142  0.00  0.00    +0.000 A 
BRANCH  19  21
ATOM     21  C   UNL     1      51.769   2.983  17.855  0.00  0.00    +0.000 C 
ATOM     22  C   UNL     1      52.900   3.299  18.517  0.00  0.00    +0.000 C 
ATOM     23  C   UNL     1      53.942   2.297  18.909  0.00  0.00    +0.000 C 
ATOM     24  N   UNL     1      53.527   0.899  18.739  0.00  0.00    +0.000 NA
ATOM     25  C   UNL     1      52.818   0.728  17.467  0.00  0.00    +0.000 C 
ATOM     26  C   UNL     1      51.525   1.556  17.428  0.00  0.00    +0.000 C 
ATOM     27  H   UNL     1      52.892   0.667  19.502  0.00  0.00    +0.000 HD
ENDBRANCH  19  21
ENDBRANCH   1  15
TORSDOF 4
ENDMDL
MODEL 8
REMARK VINA RESULT:    -6.431      4.411      8.134
REMARK INTER + INTRA:          -8.501
REMARK INTER:                  -8.019
REMARK INTRA:                  -0.482
REMARK UNBOUND:                -0.566
REMARK  Name = 
REMARK  4 active torsions:
REMARK  status: ('A' for Active; 'I' for Inactive)
REMARK    1  A    between atoms: C_2  and  C_4
REMARK    2  A    between atoms: N_8  and  C_9
REMARK    3  A    between atoms: C_9  and  C_10
REMARK    4  A    between atoms: C_14  and  C_15
REMARK                            x       y       z     vdW  Elec       q    Type
REMARK                         _______ _______ _______ _____ _____    ______ ____
ROOT
ATOM      1  C   UNL     1      48.192   7.373  14.287  0.00  0.00    +0.000 C 
ENDROOT
BRANCH   1   6
ATOM      2  C   UNL     1      50.814   4.459  17.416  0.00  0.00    +0.000 A 
ATOM      3  N   UNL     1      51.174   5.666  16.923  0.00  0.00    +0.000 NA
ATOM      4  C   UNL     1      50.187   6.298  16.240  0.00  0.00    +0.000 A 
ATOM      5  C   UNL     1      48.913   5.788  16.020  0.00  0.00    +0.000 A 
ATOM      6  N   UNL     1      47.889   6.462  15.375  0.00  0.00    +0.000 N 
ATOM      7  N   UNL     1      48.640   4.578  16.541  0.00  0.00    +0.000 NA
ATOM      8  N   UNL     1      49.602   3.893  17.253  0.00  0.00    +0.000 NA
ATOM      9  H   UNL     1      47.113   5.828  15.213  0.00  0.00    +0.000 HD
BRANCH   2  11
ATOM     10  N   UNL     1      51.892   3.995  19.559  0.00  0.00    +0.000 N 
ATOM     11  C   UNL     1      51.844   3.708  18.212  0.00  0.00    +0.000 C 
ATOM     12  O   UNL     1      52.611   2.883  17.727  0.00  0.00    +0.000 OA
ATOM     13  H   UNL     1      52.557   3.506  20.140  0.00  0.00    +0.000 HD
ATOM     14  H   UNL     1      51.250   4.664  19.969  0.00  0.00    +0.000 HD
ENDBRANCH   2  11
ENDBRANCH   1   6
BRANCH   1  15
ATOM     15  C   UNL     1      47.072   7.367  13.278  0.00  0.00    +0.000 A 
ATOM     16  C   UNL     1      46.464   8.550  12.856  0.00  0.00    +0.000 A 
ATOM     17  C   UNL     1      45.421   8.468  11.949  0.00  0.00    +0.000 A 
ATOM     18  N   UNL     1      44.958   7.310  11.436  0.00  0.00    +0.000 NA
ATOM     19  C   UNL     1      45.544   6.160  11.851  0.00  0.00    +0.000 A 
ATOM     20  C   UNL     1      46.586   6.154  12.772  0.00  0.00    +0.000 A 
BRANCH  19  21
ATOM     21  C   UNL     1      45.011   4.907  11.281  0.00  0.00    +0.000 C 
ATOM     22  C   UNL     1      45.037   4.674   9.954  0.00  0.00    +0.000 C 
ATOM     23  C   UNL     1      44.522   3.419   9.320  0.00  0.00    +0.000 C 
ATOM     24  N   UNL     1      44.208   2.348  10.273  0.00  0.00    +0.000 NA
ATOM     25  C   UNL     1      43.512   2.892  11.443  0.00  0.00    +0.000 C 
ATOM     26  C   UNL     1      44.394   3.890  12.208  0.00  0.00    +0.000 C 
ATOM     27  H   UNL     1      45.089   1.934  10.579  0.00  0.00    +0.000 HD
ENDBRANCH  19  21
ENDBRANCH   1  15
TORSDOF 4
ENDMDL
MODEL 9
REMARK VINA RESULT:    -6.419      3.314      7.485
REMARK INTER + INTRA:          -8.487
REMARK INTER:                  -8.000
REMARK INTRA:                  -0.487
REMARK UNBOUND:                -0.566
REMARK  Name = 
REMARK  4 active torsions:
REMARK  status: ('A' for Active; 'I' for Inactive)
REMARK    1  A    between atoms: C_2  and  C_4
REMARK    2  A    between atoms: N_8  and  C_9
REMARK    3  A    between atoms: C_9  and  C_10
REMARK    4  A    between atoms: C_14  and  C_15
REMARK                            x       y       z     vdW  Elec       q    Type
REMARK                         _______ _______ _______ _____ _____    ______ ____
ROOT
ATOM      1  C   UNL     1      45.383   7.106  12.581  0.00  0.00    +0.000 C 
ENDROOT
BRANCH   1   6
ATOM      2  C   UNL     1      49.977   8.317  14.190  0.00  0.00    +0.000 A 
ATOM      3  N   UNL     1      49.010   9.158  13.758  0.00  0.00    +0.000 NA
ATOM      4  C   UNL     1      47.810   8.560  13.552  0.00  0.00    +0.000 A 
ATOM      5  C   UNL     1      47.551   7.206  13.733  0.00  0.00    +0.000 A 
ATOM      6  N   UNL     1      46.309   6.610  13.582  0.00  0.00    +0.000 N 
ATOM      7  N   UNL     1      48.570   6.439  14.159  0.00  0.00    +0.000 NA
ATOM      8  N   UNL     1      49.810   6.996  14.394  0.00  0.00    +0.000 NA
ATOM      9  H   UNL     1      46.410   5.600  13.624  0.00  0.00    +0.000 HD
BRANCH   2  11
ATOM     10  N   UNL     1      51.922   9.578  13.419  0.00  0.00    +0.000 N 
ATOM     11  C   UNL     1      51.329   8.911  14.469  0.00  0.00    +0.000 C 
ATOM     12  O   UNL     1      51.899   8.828  15.552  0.00  0.00    +0.000 OA
ATOM     13  H   UNL     1      52.824  10.009  13.561  0.00  0.00    +0.000 HD
ATOM     14  H   UNL     1      51.448   9.665  12.527  0.00  0.00    +0.000 HD
ENDBRANCH   2  11
ENDBRANCH   1   6
BRANCH   1  15
ATOM     15  C   UNL     1      44.711   5.953  11.880  0.00  0.00    +0.000 A 
ATOM     16  C   UNL     1      43.449   5.500  12.267  0.00  0.00    +0.000 A 
ATOM     17  C   UNL     1      42.903   4.417  11.598  0.00  0.00    +0.000 A 
ATOM     18  N   UNL     1      43.514   3.773  10.583  0.00  0.00    +0.000 NA
ATOM     19  C   UNL     1      44.743   4.208  10.211  0.00  0.00    +0.000 A 
ATOM     20  C   UNL     1      45.368   5.278  10.842  0.00  0.00    +0.000 A 
BRANCH  19  21
ATOM     21  C   UNL     1      45.392   3.479   9.105  0.00  0.00    +0.000 C 
ATOM     22  C   UNL     1      45.508   2.136   9.123  0.00  0.00    +0.000 C 
ATOM     23  C   UNL     1      46.146   1.342   8.024  0.00  0.00    +0.000 C 
ATOM     24  N   UNL     1      46.417   2.111   6.804  0.00  0.00    +0.000 NA
ATOM     25  C   UNL     1      46.967   3.428   7.142  0.00  0.00    +0.000 C 
ATOM     26  C   UNL     1      45.964   4.265   7.951  0.00  0.00    +0.000 C 
ATOM     27  H   UNL     1      45.532   2.241   6.314  0.00  0.00    +0.000 HD
ENDBRANCH  19  21
ENDBRANCH   1  15
TORSDOF 4
ENDMDL
