MODEL 1
REMARK VINA RESULT:    -7.954      0.000      0.000
REMARK INTER + INTRA:         -11.019
REMARK INTER:                 -10.279
REMARK INTRA:                  -0.740
REMARK UNBOUND:                -0.740
REMARK  Name = 
REMARK  6 active torsions:
REMARK  status: ('A' for Active; 'I' for Inactive)
REMARK    1  A    between atoms: C_1  and  C_2
REMARK    2  A    between atoms: C_2  and  C_3
REMARK    3  A    between atoms: C_2  and  C_15
REMARK    4  A    between atoms: C_3  and  N_4
REMARK    5  A    between atoms: N_4  and  C_5
REMARK    6  A    between atoms: C_8  and  C_9
REMARK                            x       y       z     vdW  Elec       q    Type
REMARK                         _______ _______ _______ _____ _____    ______ ____
ROOT
ATOM      1  C   UNL     1      44.691   4.021   9.201  0.00  0.00    +0.000 A 
ATOM      2  N   UNL     1      45.498   4.661   8.321  0.00  0.00    +0.000 NA
ATOM      3  C   UNL     1      46.369   3.922   7.590  0.00  0.00    +0.000 A 
ATOM      4  C   UNL     1      46.500   2.549   7.685  0.00  0.00    +0.000 A 
ATOM      5  C   UNL     1      45.682   1.893   8.604  0.00  0.00    +0.000 A 
ATOM      6  C   UNL     1      44.776   2.632   9.362  0.00  0.00    +0.000 A 
ATOM      7  F   UNL     1      43.980   1.992  10.233  0.00  0.00    +0.000 F 
ENDROOT
BRANCH   4   8
ATOM      8  C   UNL     1      47.451   1.769   6.862  0.00  0.00    +0.000 C 
ATOM      9  N   UNL     1      48.583   2.380   6.391  0.00  0.00    +0.000 N 
ATOM     10  O   UNL     1      47.234   0.596   6.592  0.00  0.00    +0.000 OA
ATOM     11  H   UNL     1      48.856   3.340   6.533  0.00  0.00    +0.000 HD
ATOM     12  H   UNL     1      49.198   1.805   5.828  0.00  0.00    +0.000 HD
ENDBRANCH   4   8
BRANCH   1  13
ATOM     13  N   UNL     1      43.787   4.776   9.984  0.00  0.00    +0.000 N 
ATOM     14  H   UNL     1      43.053   5.124   9.371  0.00  0.00    +0.000 HD
BRANCH  13  15
ATOM     15  C   UNL     1      44.459   5.821  10.740  0.00  0.00    +0.000 C 
BRANCH  15  17
ATOM     16  C   UNL     1      44.350   4.388  12.885  0.00  0.00    +0.000 C 
ATOM     17  C   UNL     1      45.146   5.270  11.963  0.00  0.00    +0.000 C 
BRANCH  17  18
ATOM     18  C   UNL     1      46.186   6.206  12.583  0.00  0.00    +0.000 C 
ATOM     19  C   UNL     1      47.091   6.905  11.550  0.00  0.00    +0.000 C 
ATOM     20  C   UNL     1      48.182   7.748  12.214  0.00  0.00    +0.000 C 
ATOM     21  C   UNL     1      49.001   6.921  13.199  0.00  0.00    +0.000 C 
ATOM     22  C   UNL     1      48.106   6.311  14.269  0.00  0.00    +0.000 C 
ATOM     23  C   UNL     1      47.009   5.453  13.648  0.00  0.00    +0.000 C 
ENDBRANCH  17  18
ENDBRANCH  15  17
ENDBRANCH  13  15
ENDBRANCH   1  13
TORSDOF 5
ENDMDL
MODEL 2
REMARK VINA RESULT:    -7.038      1.894      2.242
REMARK INTER + INTRA:          -9.835
REMARK INTER:                  -9.299
REMARK INTRA:                  -0.536
REMARK UNBOUND:                -0.740
REMARK  Name = 
REMARK  6 active torsions:
REMARK  status: ('A' for Active; 'I' for Inactive)
REMARK    1  A    between atoms: C_1  and  C_2
REMARK    2  A    between atoms: C_2  and  C_3
REMARK    3  A    between atoms: C_2  and  C_15
REMARK    4  A    between atoms: C_3  and  N_4
REMARK    5  A    between atoms: N_4  and  C_5
REMARK    6  A    between atoms: C_8  and  C_9
REMARK                            x       y       z     vdW  Elec       q    Type
REMARK                         _______ _______ _______ _____ _____    ______ ____
ROOT
ATOM      1  C   UNL     1      45.133   4.214   9.179  0.00  0.00    +0.000 A 
ATOM      2  N   UNL     1      46.044   4.451   8.205  0.00  0.00    +0.000 NA
ATOM      3  C   UNL     1      46.631   3.390   7.598  0.00  0.00    +0.000 A 
ATOM      4  C   UNL     1      46.369   2.069   7.911  0.00  0.00    +0.000 A 
ATOM      5  C   UNL     1      45.445   1.826   8.925  0.00  0.00    +0.000 A 
ATOM      6  C   UNL     1      44.826   2.901   9.559  0.00  0.00    +0.000 A 
ATOM      7  F   UNL     1      43.925   2.660  10.524  0.00  0.00    +0.000 F 
ENDROOT
BRANCH   4   8
ATOM      8  C   UNL     1      47.016   0.931   7.219  0.00  0.00    +0.000 C 
ATOM      9  N   UNL     1      46.720  -0.346   7.616  0.00  0.00    +0.000 N 
ATOM     10  O   UNL     1      47.813   1.119   6.310  0.00  0.00    +0.000 OA
ATOM     11  H   UNL     1      46.097  -0.619   8.359  0.00  0.00    +0.000 HD
ATOM     12  H   UNL     1      47.193  -1.088   7.115  0.00  0.00    +0.000 HD
ENDBRANCH   4   8
BRANCH   1  13
ATOM     13  N   UNL     1      44.522   5.309   9.834  0.00  0.00    +0.000 N 
ATOM     14  H   UNL     1      43.943   5.799   9.156  0.00  0.00    +0.000 HD
BRANCH  13  15
ATOM     15  C   UNL     1      45.496   6.163  10.495  0.00  0.00    +0.000 C 
BRANCH  15  17
ATOM     16  C   UNL     1      43.894   5.766  12.481  0.00  0.00    +0.000 C 
ATOM     17  C   UNL     1      45.091   6.478  11.911  0.00  0.00    +0.000 C 
BRANCH  17  18
ATOM     18  C   UNL     1      45.331   7.930  12.332  0.00  0.00    +0.000 C 
ATOM     19  C   UNL     1      44.569   8.962  11.479  0.00  0.00    +0.000 C 
ATOM     20  C   UNL     1      44.918  10.401  11.864  0.00  0.00    +0.000 C 
ATOM     21  C   UNL     1      46.423  10.641  11.809  0.00  0.00    +0.000 C 
ATOM     22  C   UNL     1      47.158   9.675  12.728  0.00  0.00    +0.000 C 
ATOM     23  C   UNL     1      46.844   8.227  12.371  0.00  0.00    +0.000 C 
ENDBRANCH  17  18
ENDBRANCH  15  17
ENDBRANCH  13  15
ENDBRANCH   1  13
TORSDOF 5
ENDMDL
MODEL 3
REMARK VINA RESULT:    -7.009      3.383      6.711
REMARK INTER + INTRA:          -9.798
REMARK INTER:                  -9.203
REMARK INTRA:                  -0.595
REMARK UNBOUND:                -0.740
REMARK  Name = 
REMARK  6 active torsions:
REMARK  status: ('A' for Active; 'I' for Inactive)
REMARK    1  A    between atoms: C_1  and  C_2
REMARK    2  A    between atoms: C_2  and  C_3
REMARK    3  A    between atoms: C_2  and  C_15
REMARK    4  A    between atoms: C_3  and  N_4
REMARK    5  A    between atoms: N_4  and  C_5
REMARK    6  A    between atoms: C_8  and  C_9
REMARK                            x       y       z     vdW  Elec       q    Type
REMARK                         _______ _______ _______ _____ _____    ______ ____
ROOT
ATOM      1  C   UNL     1      45.374   6.273  11.476  0.00  0.00    +0.000 A 
ATOM      2  N   UNL     1      45.438   7.622  11.379  0.00  0.00    +0.000 NA
ATOM      3  C   UNL     1      46.258   8.292  12.226  0.00  0.00    +0.000 A 
ATOM      4  C   UNL     1      47.036   7.691  13.198  0.00  0.00    +0.000 A 
ATOM      5  C   UNL     1      46.956   6.303  13.309  0.00  0.00    +0.000 A 
ATOM      6  C   UNL     1      46.124   5.595  12.446  0.00  0.00    +0.000 A 
ATOM      7  F   UNL     1      46.064   4.258  12.548  0.00  0.00    +0.000 F 
ENDROOT
BRANCH   4   8
ATOM      8  C   UNL     1      47.933   8.449  14.099  0.00  0.00    +0.000 C 
ATOM      9  N   UNL     1      47.459   8.870  15.314  0.00  0.00    +0.000 N 
ATOM     10  O   UNL     1      49.082   8.710  13.768  0.00  0.00    +0.000 OA
ATOM     11  H   UNL     1      46.531   8.729  15.682  0.00  0.00    +0.000 HD
ATOM     12  H   UNL     1      48.110   9.389  15.890  0.00  0.00    +0.000 HD
ENDBRANCH   4   8
BRANCH   1  13
ATOM     13  N   UNL     1      44.513   5.558  10.611  0.00  0.00    +0.000 N 
ATOM     14  H   UNL     1      43.975   4.902  11.173  0.00  0.00    +0.000 HD
BRANCH  13  15
ATOM     15  C   UNL     1      45.235   4.934   9.514  0.00  0.00    +0.000 C 
BRANCH  15  17
ATOM     16  C   UNL     1      44.104   2.748  10.295  0.00  0.00    +0.000 C 
ATOM     17  C   UNL     1      44.671   3.578   9.176  0.00  0.00    +0.000 C 
BRANCH  17  18
ATOM     18  C   UNL     1      45.399   2.854   8.041  0.00  0.00    +0.000 C 
ATOM     19  C   UNL     1      46.084   1.543   8.474  0.00  0.00    +0.000 C 
ATOM     20  C   UNL     1      46.886   0.907   7.337  0.00  0.00    +0.000 C 
ATOM     21  C   UNL     1      47.892   1.890   6.749  0.00  0.00    +0.000 C 
ATOM     22  C   UNL     1      47.191   3.142   6.240  0.00  0.00    +0.000 C 
ATOM     23  C   UNL     1      46.387   3.813   7.347  0.00  0.00    +0.000 C 
ENDBRANCH  17  18
ENDBRANCH  15  17
ENDBRANCH  13  15
ENDBRANCH   1  13
TORSDOF 5
ENDMDL
MODEL 4
REMARK VINA RESULT:    -6.936      3.528      5.984
REMARK INTER + INTRA:          -9.704
REMARK INTER:                  -8.823
REMARK INTRA:                  -0.881
REMARK UNBOUND:                -0.740
REMARK  Name = 
REMARK  6 active torsions:
REMARK  status: ('A' for Active; 'I' for Inactive)
REMARK    1  A    between atoms: C_1  and  C_2
REMARK    2  A    between atoms: C_2  and  C_3
REMARK    3  A    between atoms: C_2  and  C_15
REMARK    4  A    between atoms: C_3  and  N_4
REMARK    5  A    between atoms: N_4  and  C_5
REMARK    6  A    between atoms: C_8  and  C_9
REMARK                            x       y       z     vdW  Elec       q    Type
REMARK                         _______ _______ _______ _____ _____    ______ ____
ROOT
ATOM      1  C   UNL     1      45.021   5.893  12.779  0.00  0.00    +0.000 A 
ATOM      2  N   UNL     1      45.200   7.229  12.651  0.00  0.00    +0.000 NA
ATOM      3  C   UNL     1      46.444   7.734  12.836  0.00  0.00    +0.000 A 
ATOM      4  C   UNL     1      47.555   6.976  13.157  0.00  0.00    +0.000 A 
ATOM      5  C   UNL     1      47.367   5.603  13.306  0.00  0.00    +0.000 A 
ATOM      6  C   UNL     1      46.098   5.062  13.116  0.00  0.00    +0.000 A 
ATOM      7  F   UNL     1      45.927   3.737  13.245  0.00  0.00    +0.000 F 
ENDROOT
BRANCH   4   8
ATOM      8  C   UNL     1      48.905   7.557  13.338  0.00  0.00    +0.000 C 
ATOM      9  N   UNL     1      49.918   7.161  12.506  0.00  0.00    +0.000 N 
ATOM     10  O   UNL     1      49.124   8.373  14.223  0.00  0.00    +0.000 OA
ATOM     11  H   UNL     1      49.859   6.487  11.759  0.00  0.00    +0.000 HD
ATOM     12  H   UNL     1      50.823   7.583  12.675  0.00  0.00    +0.000 HD
ENDBRANCH   4   8
BRANCH   1  13
ATOM     13  N   UNL     1      43.727   5.349  12.605  0.00  0.00    +0.000 N 
ATOM     14  H   UNL     1      43.650   4.522  13.193  0.00  0.00    +0.000 HD
BRANCH  13  15
ATOM     15  C   UNL     1      43.423   5.100  11.205  0.00  0.00    +0.000 C 
BRANCH  15  17
ATOM     16  C   UNL     1      43.309   2.600  11.841  0.00  0.00    +0.000 C 
ATOM     17  C   UNL     1      43.658   3.659  10.832  0.00  0.00    +0.000 C 
BRANCH  17  18
ATOM     18  C   UNL     1      44.878   3.426   9.937  0.00  0.00    +0.000 C 
ATOM     19  C   UNL     1      45.139   4.562   8.929  0.00  0.00    +0.000 C 
ATOM     20  C   UNL     1      46.301   4.242   7.987  0.00  0.00    +0.000 C 
ATOM     21  C   UNL     1      46.091   2.909   7.277  0.00  0.00    +0.000 C 
ATOM     22  C   UNL     1      45.927   1.780   8.286  0.00  0.00    +0.000 C 
ATOM     23  C   UNL     1      44.770   2.055   9.240  0.00  0.00    +0.000 C 
ENDBRANCH  17  18
ENDBRANCH  15  17
ENDBRANCH  13  15
ENDBRANCH   1  13
TORSDOF 5
ENDMDL
MODEL 5
REMARK VINA RESULT:    -6.683      3.176      6.449
REMARK INTER + INTRA:          -9.376
REMARK INTER:                  -8.835
REMARK INTRA:                  -0.541
REMARK UNBOUND:                -0.740
REMARK  Name = 
REMARK  6 active torsions:
REMARK  status: ('A' for Active; 'I' for Inactive)
REMARK    1  A    between atoms: C_1  and  C_2
REMARK    2  A    between atoms: C_2  and  C_3
REMARK    3  A    between atoms: C_2  and  C_15
REMARK    4  A    between atoms: C_3  and  N_4
REMARK    5  A    between atoms: N_4  and  C_5
REMARK    6  A    between atoms: C_8  and  C_9
REMARK                            x       y       z     vdW  Elec       q    Type
REMARK                         _______ _______ _______ _____ _____    ______ ____
ROOT
ATOM      1  C   UNL     1      45.609   5.610  11.712  0.00  0.00    +0.000 A 
ATOM      2  N   UNL     1      46.798   6.249  11.824  0.00  0.00    +0.000 NA
ATOM      3  C   UNL     1      47.490   6.125  12.983  0.00  0.00    +0.000 A 
ATOM      4  C   UNL     1      47.061   5.392  14.074  0.00  0.00    +0.000 A 
ATOM      5  C   UNL     1      45.829   4.750  13.965  0.00  0.00    +0.000 A 
ATOM      6  C   UNL     1      45.102   4.859  12.781  0.00  0.00    +0.000 A 
ATOM      7  F   UNL     1      43.925   4.225  12.677  0.00  0.00    +0.000 F 
ENDROOT
BRANCH   4   8
ATOM      8  C   UNL     1      47.848   5.264  15.322  0.00  0.00    +0.000 C 
ATOM      9  N   UNL     1      48.321   6.396  15.931  0.00  0.00    +0.000 N 
ATOM     10  O   UNL     1      48.085   4.165  15.805  0.00  0.00    +0.000 OA
ATOM     11  H   UNL     1      48.204   7.346  15.616  0.00  0.00    +0.000 HD
ATOM     12  H   UNL     1      48.858   6.253  16.778  0.00  0.00    +0.000 HD
ENDBRANCH   4   8
BRANCH   1  13
ATOM     13  N   UNL     1      44.865   5.741  10.516  0.00  0.00    +0.000 N 
ATOM     14  H   UNL     1      43.991   5.232  10.630  0.00  0.00    +0.000 HD
BRANCH  13  15
ATOM     15  C   UNL     1      45.630   5.331   9.349  0.00  0.00    +0.000 C 
BRANCH  15  17
ATOM     16  C   UNL     1      44.107   3.260   9.587  0.00  0.00    +0.000 C 
ATOM     17  C   UNL     1      45.166   4.000   8.817  0.00  0.00    +0.000 C 
BRANCH  17  18
ATOM     18  C   UNL     1      46.255   3.180   8.121  0.00  0.00    +0.000 C 
ATOM     19  C   UNL     1      46.448   3.532   6.634  0.00  0.00    +0.000 C 
ATOM     20  C   UNL     1      47.469   2.620   5.952  0.00  0.00    +0.000 C 
ATOM     21  C   UNL     1      47.108   1.149   6.130  0.00  0.00    +0.000 C 
ATOM     22  C   UNL     1      47.012   0.792   7.608  0.00  0.00    +0.000 C 
ATOM     23  C   UNL     1      45.995   1.674   8.324  0.00  0.00    +0.000 C 
ENDBRANCH  17  18
ENDBRANCH  15  17
ENDBRANCH  13  15
ENDBRANCH   1  13
TORSDOF 5
ENDMDL
MODEL 6
REMARK VINA RESULT:    -6.196      4.186      7.132
REMARK INTER + INTRA:          -8.747
REMARK INTER:                  -8.195
REMARK INTRA:                  -0.553
REMARK UNBOUND:                -0.740
REMARK  Name = 
REMARK  6 active torsions:
REMARK  status: ('A' for Active; 'I' for Inactive)
REMARK    1  A    between atoms: C_1  and  C_2
REMARK    2  A    between atoms: C_2  and  C_3
REMARK    3  A    between atoms: C_2  and  C_15
REMARK    4  A    between atoms: C_3  and  N_4
REMARK    5  A    between atoms: N_4  and  C_5
REMARK    6  A    between atoms: C_8  and  C_9
REMARK                            x       y       z     vdW  Elec       q    Type
REMARK                         _______ _______ _______ _____ _____    ______ ____
ROOT
ATOM      1  C   UNL     1      46.768   4.359  13.972  0.00  0.00    +0.000 A 
ATOM      2  N   UNL     1      46.909   3.956  15.258  0.00  0.00    +0.000 NA
ATOM      3  C   UNL     1      47.638   4.731  16.100  0.00  0.00    +0.000 A 
ATOM      4  C   UNL     1      48.259   5.910  15.735  0.00  0.00    +0.000 A 
ATOM      5  C   UNL     1      48.128   6.315  14.407  0.00  0.00    +0.000 A 
ATOM      6  C   UNL     1      47.381   5.537  13.526  0.00  0.00    +0.000 A 
ATOM      7  F   UNL     1      47.245   5.940  12.253  0.00  0.00    +0.000 F 
ENDROOT
BRANCH   4   8
ATOM      8  C   UNL     1      49.035   6.742  16.682  0.00  0.00    +0.000 C 
ATOM      9  N   UNL     1      48.367   7.491  17.615  0.00  0.00    +0.000 N 
ATOM     10  O   UNL     1      50.257   6.774  16.635  0.00  0.00    +0.000 OA
ATOM     11  H   UNL     1      47.369   7.557  17.734  0.00  0.00    +0.000 HD
ATOM     12  H   UNL     1      48.944   8.046  18.235  0.00  0.00    +0.000 HD
ENDBRANCH   4   8
BRANCH   1  13
ATOM     13  N   UNL     1      46.025   3.556  13.075  0.00  0.00    +0.000 N 
ATOM     14  H   UNL     1      46.628   3.320  12.290  0.00  0.00    +0.000 HD
BRANCH  13  15
ATOM     15  C   UNL     1      44.776   4.188  12.683  0.00  0.00    +0.000 C 
BRANCH  15  17
ATOM     16  C   UNL     1      43.201   2.467  11.576  0.00  0.00    +0.000 C 
ATOM     17  C   UNL     1      44.210   3.572  11.430  0.00  0.00    +0.000 C 
BRANCH  17  18
ATOM     18  C   UNL     1      45.195   3.497  10.260  0.00  0.00    +0.000 C 
ATOM     19  C   UNL     1      45.227   4.767   9.388  0.00  0.00    +0.000 C 
ATOM     20  C   UNL     1      46.143   4.611   8.173  0.00  0.00    +0.000 C 
ATOM     21  C   UNL     1      45.770   3.383   7.350  0.00  0.00    +0.000 C 
ATOM     22  C   UNL     1      45.832   2.122   8.201  0.00  0.00    +0.000 C 
ATOM     23  C   UNL     1      44.923   2.233   9.419  0.00  0.00    +0.000 C 
ENDBRANCH  17  18
ENDBRANCH  15  17
ENDBRANCH  13  15
ENDBRANCH   1  13
TORSDOF 5
ENDMDL
MODEL 7
REMARK VINA RESULT:    -6.153      4.785      7.521
REMARK INTER + INTRA:          -8.691
REMARK INTER:                  -8.238
REMARK INTRA:                  -0.454
REMARK UNBOUND:                -0.740
REMARK  Name = 
REMARK  6 active torsions:
REMARK  status: ('A' for Active; 'I' for Inactive)
REMARK    1  A    between atoms: C_1  and  C_2
REMARK    2  A    between atoms: C_2  and  C_3
REMARK    3  A    between atoms: C_2  and  C_15
REMARK    4  A    between atoms: C_3  and  N_4
REMARK    5  A    between atoms: N_4  and  C_5
REMARK    6  A    between atoms: C_8  and  C_9
REMARK                            x       y       z     vdW  Elec       q    Type
REMARK                         _______ _______ _______ _____ _____    ______ ____
ROOT
ATOM      1  C   UNL     1      47.188   4.791  14.525  0.00  0.00    +0.000 A 
ATOM      2  N   UNL     1      47.128   3.540  15.040  0.00  0.00    +0.000 NA
ATOM      3  C   UNL     1      47.748   3.298  16.221  0.00  0.00    +0.000 A 
ATOM      4  C   UNL     1      48.452   4.245  16.942  0.00  0.00    +0.000 A 
ATOM      5  C   UNL     1      48.529   5.528  16.403  0.00  0.00    +0.000 A 
ATOM      6  C   UNL     1      47.895   5.801  15.192  0.00  0.00    +0.000 A 
ATOM      7  F   UNL     1      47.959   7.042  14.687  0.00  0.00    +0.000 F 
ENDROOT
BRANCH   4   8
ATOM      8  C   UNL     1      49.106   3.953  18.237  0.00  0.00    +0.000 C 
ATOM      9  N   UNL     1      48.405   3.278  19.202  0.00  0.00    +0.000 N 
ATOM     10  O   UNL     1      50.254   4.313  18.457  0.00  0.00    +0.000 OA
ATOM     11  H   UNL     1      47.454   2.951  19.140  0.00  0.00    +0.000 HD
ATOM     12  H   UNL     1      48.895   3.109  20.072  0.00  0.00    +0.000 HD
ENDBRANCH   4   8
BRANCH   1  13
ATOM     13  N   UNL     1      46.561   5.059  13.286  0.00  0.00    +0.000 N 
ATOM     14  H   UNL     1      46.731   6.034  13.050  0.00  0.00    +0.000 HD
BRANCH  13  15
ATOM     15  C   UNL     1      45.152   4.699  13.298  0.00  0.00    +0.000 C 
BRANCH  15  17
ATOM     16  C   UNL     1      43.010   5.271  11.975  0.00  0.00    +0.000 C 
ATOM     17  C   UNL     1      44.489   4.999  11.979  0.00  0.00    +0.000 C 
BRANCH  17  18
ATOM     18  C   UNL     1      45.086   4.251  10.784  0.00  0.00    +0.000 C 
ATOM     19  C   UNL     1      45.438   5.160   9.591  0.00  0.00    +0.000 C 
ATOM     20  C   UNL     1      45.932   4.362   8.382  0.00  0.00    +0.000 C 
ATOM     21  C   UNL     1      44.931   3.284   7.981  0.00  0.00    +0.000 C 
ATOM     22  C   UNL     1      44.662   2.337   9.143  0.00  0.00    +0.000 C 
ATOM     23  C   UNL     1      44.158   3.092  10.367  0.00  0.00    +0.000 C 
ENDBRANCH  17  18
ENDBRANCH  15  17
ENDBRANCH  13  15
ENDBRANCH   1  13
TORSDOF 5
ENDMDL
MODEL 8
REMARK VINA RESULT:    -5.981      4.367      6.083
REMARK INTER + INTRA:          -8.469
REMARK INTER:                  -8.009
REMARK INTRA:                  -0.460
REMARK UNBOUND:                -0.740
REMARK  Name = 
REMARK  6 active torsions:
REMARK  status: ('A' for Active; 'I' for Inactive)
REMARK    1  A    between atoms: C_1  and  C_2
REMARK    2  A    between atoms: C_2  and  C_3
REMARK    3  A    between atoms: C_2  and  C_15
REMARK    4  A    between atoms: C_3  and  N_4
REMARK    5  A    between atoms: N_4  and  C_5
REMARK    6  A    between atoms: C_8  and  C_9
REMARK                            x       y       z     vdW  Elec       q    Type
REMARK                         _______ _______ _______ _____ _____    ______ ____
ROOT
ATOM      1  C   UNL     1      46.663   5.025  14.000  0.00  0.00    +0.000 A 
ATOM      2  N   UNL     1      46.053   3.874  13.629  0.00  0.00    +0.000 NA
ATOM      3  C   UNL     1      45.392   3.846  12.445  0.00  0.00    +0.000 A 
ATOM      4  C   UNL     1      45.289   4.922  11.584  0.00  0.00    +0.000 A 
ATOM      5  C   UNL     1      45.902   6.112  11.974  0.00  0.00    +0.000 A 
ATOM      6  C   UNL     1      46.590   6.162  13.184  0.00  0.00    +0.000 A 
ATOM      7  F   UNL     1      47.192   7.305  13.546  0.00  0.00    +0.000 F 
ENDROOT
BRANCH   4   8
ATOM      8  C   UNL     1      44.572   4.856  10.290  0.00  0.00    +0.000 C 
ATOM      9  N   UNL     1      45.295   4.851   9.126  0.00  0.00    +0.000 N 
ATOM     10  O   UNL     1      43.350   4.816  10.250  0.00  0.00    +0.000 OA
ATOM     11  H   UNL     1      46.298   4.899   9.038  0.00  0.00    +0.000 HD
ATOM     12  H   UNL     1      44.757   4.811   8.269  0.00  0.00    +0.000 HD
ENDBRANCH   4   8
BRANCH   1  13
ATOM     13  N   UNL     1      47.344   5.077  15.239  0.00  0.00    +0.000 N 
ATOM     14  H   UNL     1      48.225   5.565  15.094  0.00  0.00    +0.000 HD
BRANCH  13  15
ATOM     15  C   UNL     1      47.498   3.759  15.834  0.00  0.00    +0.000 C 
BRANCH  15  17
ATOM     16  C   UNL     1      47.056   4.997  18.057  0.00  0.00    +0.000 C 
ATOM     17  C   UNL     1      47.683   3.841  17.327  0.00  0.00    +0.000 C 
BRANCH  17  18
ATOM     18  C   UNL     1      49.033   3.322  17.828  0.00  0.00    +0.000 C 
ATOM     19  C   UNL     1      50.091   4.424  18.028  0.00  0.00    +0.000 C 
ATOM     20  C   UNL     1      51.453   3.852  18.427  0.00  0.00    +0.000 C 
ATOM     21  C   UNL     1      51.929   2.802  17.429  0.00  0.00    +0.000 C 
ATOM     22  C   UNL     1      50.916   1.671  17.310  0.00  0.00    +0.000 C 
ATOM     23  C   UNL     1      49.545   2.198  16.904  0.00  0.00    +0.000 C 
ENDBRANCH  17  18
ENDBRANCH  15  17
ENDBRANCH  13  15
ENDBRANCH   1  13
TORSDOF 5
ENDMDL
MODEL 9
REMARK VINA RESULT:    -5.928      3.851      6.511
REMARK INTER + INTRA:          -8.401
REMARK INTER:                  -7.549
REMARK INTRA:                  -0.852
REMARK UNBOUND:                -0.740
REMARK  Name = 
REMARK  6 active torsions:
REMARK  status: ('A' for Active; 'I' for Inactive)
REMARK    1  A    between atoms: C_1  and  C_2
REMARK    2  A    between atoms: C_2  and  C_3
REMARK    3  A    between atoms: C_2  and  C_15
REMARK    4  A    between atoms: C_3  and  N_4
REMARK    5  A    between atoms: N_4  and  C_5
REMARK    6  A    between atoms: C_8  and  C_9
REMARK                            x       y       z     vdW  Elec       q    Type
REMARK                         _______ _______ _______ _____ _____    ______ ____
ROOT
ATOM      1  C   UNL     1      45.907   7.776  12.364  0.00  0.00    +0.000 A 
ATOM      2  N   UNL     1      45.881   9.130  12.378  0.00  0.00    +0.000 NA
ATOM      3  C   UNL     1      47.039   9.800  12.155  0.00  0.00    +0.000 A 
ATOM      4  C   UNL     1      48.258   9.194  11.919  0.00  0.00    +0.000 A 
ATOM      5  C   UNL     1      48.288   7.800  11.922  0.00  0.00    +0.000 A 
ATOM      6  C   UNL     1      47.110   7.091  12.144  0.00  0.00    +0.000 A 
ATOM      7  F   UNL     1      47.142   5.750  12.129  0.00  0.00    +0.000 F 
ENDROOT
BRANCH   4   8
ATOM      8  C   UNL     1      49.503   9.954  11.664  0.00  0.00    +0.000 C 
ATOM      9  N   UNL     1      50.588   9.749  12.475  0.00  0.00    +0.000 N 
ATOM     10  O   UNL     1      49.569  10.764  10.750  0.00  0.00    +0.000 OA
ATOM     11  H   UNL     1      50.643   9.124  13.264  0.00  0.00    +0.000 HD
ATOM     12  H   UNL     1      51.412  10.297  12.262  0.00  0.00    +0.000 HD
ENDBRANCH   4   8
BRANCH   1  13
ATOM     13  N   UNL     1      44.712   7.060  12.610  0.00  0.00    +0.000 N 
ATOM     14  H   UNL     1      44.907   6.354  13.317  0.00  0.00    +0.000 HD
BRANCH  13  15
ATOM     15  C   UNL     1      44.138   6.519  11.388  0.00  0.00    +0.000 C 
BRANCH  15  17
ATOM     16  C   UNL     1      44.189   4.364  12.810  0.00  0.00    +0.000 C 
ATOM     17  C   UNL     1      43.863   5.042  11.508  0.00  0.00    +0.000 C 
BRANCH  17  18
ATOM     18  C   UNL     1      44.071   4.251  10.213  0.00  0.00    +0.000 C 
ATOM     19  C   UNL     1      44.200   2.731  10.425  0.00  0.00    +0.000 C 
ATOM     20  C   UNL     1      44.511   1.990   9.123  0.00  0.00    +0.000 C 
ATOM     21  C   UNL     1      45.749   2.561   8.441  0.00  0.00    +0.000 C 
ATOM     22  C   UNL     1      45.572   4.046   8.154  0.00  0.00    +0.000 C 
ATOM     23  C   UNL     1      45.270   4.823   9.430  0.00  0.00    +0.000 C 
ENDBRANCH  17  18
ENDBRANCH  15  17
ENDBRANCH  13  15
ENDBRANCH   1  13
TORSDOF 5
ENDMDL
