MODEL 1
REMARK VINA RESULT:    -8.018      0.000      0.000
REMARK INTER + INTRA:         -12.076
REMARK INTER:                 -11.299
REMARK INTRA:                  -0.776
REMARK UNBOUND:                -0.776
REMARK  Name = 
REMARK  7 active torsions:
REMARK  status: ('A' for Active; 'I' for Inactive)
REMARK    1  A    between atoms: C_2  and  C_4
REMARK    2  A    between atoms: C_7  and  N_8
REMARK    3  A    between atoms: N_8  and  C_9
REMARK    4  A    between atoms: C_9  and  C_10
REMARK    5  A    between atoms: C_10  and  C_11
REMARK    6  A    between atoms: C_15  and  O_16
REMARK    7  A    between atoms: O_16  and  C_17
REMARK                            x       y       z     vdW  Elec       q    Type
REMARK                         _______ _______ _______ _____ _____    ______ ____
ROOT
ATOM      1  C   UNL     1      43.107   4.411  11.245  0.00  0.00    +0.000 C 
ENDROOT
BRANCH   1   2
ATOM      2  N   UNL     1      43.736   4.864   9.998  0.00  0.00    +0.000 N 
ATOM      3  H   UNL     1      43.103   5.397   9.406  0.00  0.00    +0.000 HD
BRANCH   2   7
ATOM      4  C   UNL     1      46.306   2.361   7.877  0.00  0.00    +0.000 A 
ATOM      5  C   UNL     1      45.385   1.769   8.730  0.00  0.00    +0.000 A 
ATOM      6  C   UNL     1      44.498   2.591   9.430  0.00  0.00    +0.000 A 
ATOM      7  C   UNL     1      44.526   3.976   9.258  0.00  0.00    +0.000 A 
ATOM      8  C   UNL     1      45.516   4.460   8.389  0.00  0.00    +0.000 A 
ATOM      9  N   UNL     1      46.396   3.704   7.684  0.00  0.00    +0.000 NA
BRANCH   4  11
ATOM     10  N   UNL     1      48.374   2.152   6.623  0.00  0.00    +0.000 N 
ATOM     11  C   UNL     1      47.282   1.502   7.136  0.00  0.00    +0.000 C 
ATOM     12  O   UNL     1      47.133   0.296   6.995  0.00  0.00    +0.000 OA
ATOM     13  H   UNL     1      49.092   1.616   6.157  0.00  0.00    +0.000 HD
ATOM     14  H   UNL     1      48.504   3.139   6.807  0.00  0.00    +0.000 HD
ENDBRANCH   4  11
ENDBRANCH   2   7
ENDBRANCH   1   2
BRANCH   1  15
ATOM     15  C   UNL     1      43.356   5.440  12.360  0.00  0.00    +0.000 C 
BRANCH  15  16
ATOM     16  C   UNL     1      44.785   5.464  12.840  0.00  0.00    +0.000 A 
ATOM     17  C   UNL     1      45.594   6.565  12.562  0.00  0.00    +0.000 A 
ATOM     18  N   UNL     1      46.885   6.667  12.937  0.00  0.00    +0.000 NA
ATOM     19  C   UNL     1      47.393   5.627  13.636  0.00  0.00    +0.000 A 
ATOM     20  C   UNL     1      46.678   4.490  13.988  0.00  0.00    +0.000 A 
ATOM     21  C   UNL     1      45.353   4.401  13.564  0.00  0.00    +0.000 A 
BRANCH  20  22
ATOM     22  O   UNL     1      47.368   3.543  14.696  0.00  0.00    +0.000 OA
BRANCH  22  23
ATOM     23  C   UNL     1      47.897   3.867  16.000  0.00  0.00    +0.000 C 
ATOM     24  C   UNL     1      48.365   2.712  16.917  0.00  0.00    +0.000 C 
ATOM     25  N   UNL     1      47.695   3.369  18.062  0.00  0.00    +0.000 NA
ATOM     26  C   UNL     1      46.825   4.084  17.101  0.00  0.00    +0.000 C 
ATOM     27  H   UNL     1      48.302   3.991  18.596  0.00  0.00    +0.000 HD
ENDBRANCH  22  23
ENDBRANCH  20  22
ENDBRANCH  15  16
ENDBRANCH   1  15
TORSDOF 7
ENDMDL
MODEL 2
REMARK VINA RESULT:    -7.571      2.199      4.010
REMARK INTER + INTRA:         -11.445
REMARK INTER:                 -10.825
REMARK INTRA:                  -0.619
REMARK UNBOUND:                -0.776
REMARK  Name = 
REMARK  7 active torsions:
REMARK  status: ('A' for Active; 'I' for Inactive)
REMARK    1  A    between atoms: C_2  and  C_4
REMARK    2  A    between atoms: C_7  and  N_8
REMARK    3  A    between atoms: N_8  and  C_9
REMARK    4  A    between atoms: C_9  and  C_10
REMARK    5  A    between atoms: C_10  and  C_11
REMARK    6  A    between atoms: C_15  and  O_16
REMARK    7  A    between atoms: O_16  and  C_17
REMARK                            x       y       z     vdW  Elec       q    Type
REMARK                         _______ _______ _______ _____ _____    ______ ____
ROOT
ATOM      1  C   UNL     1      43.384   3.629  11.691  0.00  0.00    +0.000 C 
ENDROOT
BRANCH   1   2
ATOM      2  N   UNL     1      43.635   4.218  10.370  0.00  0.00    +0.000 N 
ATOM      3  H   UNL     1      42.780   4.417   9.855  0.00  0.00    +0.000 HD
BRANCH   2   7
ATOM      4  C   UNL     1      46.414   2.412   7.842  0.00  0.00    +0.000 A 
ATOM      5  C   UNL     1      46.230   3.783   7.726  0.00  0.00    +0.000 A 
ATOM      6  C   UNL     1      45.320   4.409   8.583  0.00  0.00    +0.000 A 
ATOM      7  C   UNL     1      44.629   3.674   9.547  0.00  0.00    +0.000 A 
ATOM      8  C   UNL     1      44.880   2.293   9.553  0.00  0.00    +0.000 A 
ATOM      9  N   UNL     1      45.755   1.639   8.746  0.00  0.00    +0.000 NA
BRANCH   4  11
ATOM     10  N   UNL     1      48.446   2.453   6.515  0.00  0.00    +0.000 N 
ATOM     11  C   UNL     1      47.364   1.716   6.918  0.00  0.00    +0.000 C 
ATOM     12  O   UNL     1      47.203   0.562   6.546  0.00  0.00    +0.000 OA
ATOM     13  H   UNL     1      49.147   2.021   5.931  0.00  0.00    +0.000 HD
ATOM     14  H   UNL     1      48.587   3.384   6.887  0.00  0.00    +0.000 HD
ENDBRANCH   4  11
ENDBRANCH   2   7
ENDBRANCH   1   2
BRANCH   1  15
ATOM     15  C   UNL     1      43.578   4.694  12.783  0.00  0.00    +0.000 C 
BRANCH  15  16
ATOM     16  C   UNL     1      44.995   5.198  12.878  0.00  0.00    +0.000 A 
ATOM     17  C   UNL     1      45.987   4.389  13.430  0.00  0.00    +0.000 A 
ATOM     18  N   UNL     1      47.275   4.762  13.570  0.00  0.00    +0.000 NA
ATOM     19  C   UNL     1      47.596   5.998  13.125  0.00  0.00    +0.000 A 
ATOM     20  C   UNL     1      46.698   6.882  12.540  0.00  0.00    +0.000 A 
ATOM     21  C   UNL     1      45.368   6.479  12.433  0.00  0.00    +0.000 A 
BRANCH  20  22
ATOM     22  O   UNL     1      47.213   8.091  12.154  0.00  0.00    +0.000 OA
BRANCH  22  23
ATOM     23  C   UNL     1      46.664   9.311  12.698  0.00  0.00    +0.000 C 
ATOM     24  C   UNL     1      45.344   9.857  12.103  0.00  0.00    +0.000 C 
ATOM     25  N   UNL     1      45.922  11.220  12.115  0.00  0.00    +0.000 NA
ATOM     26  C   UNL     1      47.272  10.614  12.115  0.00  0.00    +0.000 C 
ATOM     27  H   UNL     1      45.717  11.751  12.962  0.00  0.00    +0.000 HD
ENDBRANCH  22  23
ENDBRANCH  20  22
ENDBRANCH  15  16
ENDBRANCH   1  15
TORSDOF 7
ENDMDL
MODEL 3
REMARK VINA RESULT:    -7.443      1.679      7.651
REMARK INTER + INTRA:         -11.265
REMARK INTER:                 -10.619
REMARK INTRA:                  -0.646
REMARK UNBOUND:                -0.776
REMARK  Name = 
REMARK  7 active torsions:
REMARK  status: ('A' for Active; 'I' for Inactive)
REMARK    1  A    between atoms: C_2  and  C_4
REMARK    2  A    between atoms: C_7  and  N_8
REMARK    3  A    between atoms: N_8  and  C_9
REMARK    4  A    between atoms: C_9  and  C_10
REMARK    5  A    between atoms: C_10  and  C_11
REMARK    6  A    between atoms: C_15  and  O_16
REMARK    7  A    between atoms: O_16  and  C_17
REMARK                            x       y       z     vdW  Elec       q    Type
REMARK                         _______ _______ _______ _____ _____    ______ ____
ROOT
ATOM      1  C   UNL     1      46.760   6.350  11.883  0.00  0.00    +0.000 C 
ENDROOT
BRANCH   1   2
ATOM      2  N   UNL     1      46.383   6.428  13.299  0.00  0.00    +0.000 N 
ATOM      3  H   UNL     1      46.398   7.378  13.662  0.00  0.00    +0.000 HD
BRANCH   2   7
ATOM      4  C   UNL     1      48.102   3.573  15.802  0.00  0.00    +0.000 A 
ATOM      5  C   UNL     1      48.244   4.909  16.152  0.00  0.00    +0.000 A 
ATOM      6  C   UNL     1      47.652   5.878  15.338  0.00  0.00    +0.000 A 
ATOM      7  C   UNL     1      46.918   5.509  14.210  0.00  0.00    +0.000 A 
ATOM      8  C   UNL     1      46.866   4.131  13.944  0.00  0.00    +0.000 A 
ATOM      9  N   UNL     1      47.419   3.152  14.705  0.00  0.00    +0.000 NA
BRANCH   4  11
ATOM     10  N   UNL     1      48.566   2.645  17.997  0.00  0.00    +0.000 N 
ATOM     11  C   UNL     1      48.749   2.518  16.645  0.00  0.00    +0.000 C 
ATOM     12  O   UNL     1      49.396   1.594  16.172  0.00  0.00    +0.000 OA
ATOM     13  H   UNL     1      48.936   1.935  18.613  0.00  0.00    +0.000 HD
ATOM     14  H   UNL     1      47.975   3.384  18.357  0.00  0.00    +0.000 HD
ENDBRANCH   4  11
ENDBRANCH   2   7
ENDBRANCH   1   2
BRANCH   1  15
ATOM     15  C   UNL     1      45.501   6.398  11.003  0.00  0.00    +0.000 C 
BRANCH  15  16
ATOM     16  C   UNL     1      45.188   5.083  10.337  0.00  0.00    +0.000 A 
ATOM     17  C   UNL     1      44.452   4.115  11.018  0.00  0.00    +0.000 A 
ATOM     18  N   UNL     1      44.139   2.906  10.509  0.00  0.00    +0.000 NA
ATOM     19  C   UNL     1      44.567   2.653   9.251  0.00  0.00    +0.000 A 
ATOM     20  C   UNL     1      45.289   3.547   8.470  0.00  0.00    +0.000 A 
ATOM     21  C   UNL     1      45.621   4.778   9.033  0.00  0.00    +0.000 A 
BRANCH  20  22
ATOM     22  O   UNL     1      45.635   3.107   7.221  0.00  0.00    +0.000 OA
BRANCH  22  23
ATOM     23  C   UNL     1      47.029   3.020   6.852  0.00  0.00    +0.000 C 
ATOM     24  C   UNL     1      47.388   2.804   5.363  0.00  0.00    +0.000 C 
ATOM     25  N   UNL     1      48.403   1.805   5.769  0.00  0.00    +0.000 NA
ATOM     26  C   UNL     1      47.664   1.617   7.037  0.00  0.00    +0.000 C 
ATOM     27  H   UNL     1      49.337   2.194   5.900  0.00  0.00    +0.000 HD
ENDBRANCH  22  23
ENDBRANCH  20  22
ENDBRANCH  15  16
ENDBRANCH   1  15
TORSDOF 7
ENDMDL
MODEL 4
REMARK VINA RESULT:    -7.380      2.055      3.225
REMARK INTER + INTRA:         -11.176
REMARK INTER:                 -10.640
REMARK INTRA:                  -0.536
REMARK UNBOUND:                -0.776
REMARK  Name = 
REMARK  7 active torsions:
REMARK  status: ('A' for Active; 'I' for Inactive)
REMARK    1  A    between atoms: C_2  and  C_4
REMARK    2  A    between atoms: C_7  and  N_8
REMARK    3  A    between atoms: N_8  and  C_9
REMARK    4  A    between atoms: C_9  and  C_10
REMARK    5  A    between atoms: C_10  and  C_11
REMARK    6  A    between atoms: C_15  and  O_16
REMARK    7  A    between atoms: O_16  and  C_17
REMARK                            x       y       z     vdW  Elec       q    Type
REMARK                         _______ _______ _______ _____ _____    ______ ____
ROOT
ATOM      1  C   UNL     1      43.557   4.983  11.142  0.00  0.00    +0.000 C 
ENDROOT
BRANCH   1   2
ATOM      2  N   UNL     1      43.662   4.849   9.685  0.00  0.00    +0.000 N 
ATOM      3  H   UNL     1      42.757   4.779   9.226  0.00  0.00    +0.000 HD
BRANCH   2   7
ATOM      4  C   UNL     1      46.242   2.060   7.970  0.00  0.00    +0.000 A 
ATOM      5  C   UNL     1      46.416   3.395   7.631  0.00  0.00    +0.000 A 
ATOM      6  C   UNL     1      45.576   4.347   8.216  0.00  0.00    +0.000 A 
ATOM      7  C   UNL     1      44.599   3.964   9.136  0.00  0.00    +0.000 A 
ATOM      8  C   UNL     1      44.502   2.585   9.381  0.00  0.00    +0.000 A 
ATOM      9  N   UNL     1      45.295   1.623   8.842  0.00  0.00    +0.000 NA
BRANCH   4  11
ATOM     10  N   UNL     1      46.815  -0.278   7.657  0.00  0.00    +0.000 N 
ATOM     11  C   UNL     1      47.113   1.020   7.337  0.00  0.00    +0.000 C 
ATOM     12  O   UNL     1      48.029   1.295   6.575  0.00  0.00    +0.000 OA
ATOM     13  H   UNL     1      47.336  -1.025   7.221  0.00  0.00    +0.000 HD
ATOM     14  H   UNL     1      46.013  -0.481   8.242  0.00  0.00    +0.000 HD
ENDBRANCH   4  11
ENDBRANCH   2   7
ENDBRANCH   1   2
BRANCH   1  15
ATOM     15  C   UNL     1      44.374   6.195  11.616  0.00  0.00    +0.000 C 
BRANCH  15  16
ATOM     16  C   UNL     1      45.503   5.827  12.545  0.00  0.00    +0.000 A 
ATOM     17  C   UNL     1      45.333   4.804  13.476  0.00  0.00    +0.000 A 
ATOM     18  N   UNL     1      46.280   4.418  14.355  0.00  0.00    +0.000 NA
ATOM     19  C   UNL     1      47.461   5.074  14.295  0.00  0.00    +0.000 A 
ATOM     20  C   UNL     1      47.751   6.094  13.398  0.00  0.00    +0.000 A 
ATOM     21  C   UNL     1      46.744   6.490  12.519  0.00  0.00    +0.000 A 
BRANCH  20  22
ATOM     22  O   UNL     1      49.003   6.638  13.494  0.00  0.00    +0.000 OA
BRANCH  22  23
ATOM     23  C   UNL     1      49.196   7.871  14.221  0.00  0.00    +0.000 C 
ATOM     24  C   UNL     1      47.954   8.600  14.785  0.00  0.00    +0.000 C 
ATOM     25  N   UNL     1      48.514   9.887  14.313  0.00  0.00    +0.000 NA
ATOM     26  C   UNL     1      49.328   9.136  13.332  0.00  0.00    +0.000 C 
ATOM     27  H   UNL     1      49.073  10.376  15.012  0.00  0.00    +0.000 HD
ENDBRANCH  22  23
ENDBRANCH  20  22
ENDBRANCH  15  16
ENDBRANCH   1  15
TORSDOF 7
ENDMDL
MODEL 5
REMARK VINA RESULT:    -7.241      1.637      7.701
REMARK INTER + INTRA:         -10.981
REMARK INTER:                 -10.444
REMARK INTRA:                  -0.537
REMARK UNBOUND:                -0.776
REMARK  Name = 
REMARK  7 active torsions:
REMARK  status: ('A' for Active; 'I' for Inactive)
REMARK    1  A    between atoms: C_2  and  C_4
REMARK    2  A    between atoms: C_7  and  N_8
REMARK    3  A    between atoms: N_8  and  C_9
REMARK    4  A    between atoms: C_9  and  C_10
REMARK    5  A    between atoms: C_10  and  C_11
REMARK    6  A    between atoms: C_15  and  O_16
REMARK    7  A    between atoms: O_16  and  C_17
REMARK                            x       y       z     vdW  Elec       q    Type
REMARK                         _______ _______ _______ _____ _____    ______ ____
ROOT
ATOM      1  C   UNL     1      47.107   6.626  11.344  0.00  0.00    +0.000 C 
ENDROOT
BRANCH   1   2
ATOM      2  N   UNL     1      47.250   7.026  12.749  0.00  0.00    +0.000 N 
ATOM      3  H   UNL     1      47.917   7.782  12.880  0.00  0.00    +0.000 HD
BRANCH   2   7
ATOM      4  C   UNL     1      47.559   4.296  15.883  0.00  0.00    +0.000 A 
ATOM      5  C   UNL     1      46.695   3.989  14.842  0.00  0.00    +0.000 A 
ATOM      6  C   UNL     1      46.597   4.880  13.770  0.00  0.00    +0.000 A 
ATOM      7  C   UNL     1      47.368   6.043  13.740  0.00  0.00    +0.000 A 
ATOM      8  C   UNL     1      48.187   6.258  14.860  0.00  0.00    +0.000 A 
ATOM      9  N   UNL     1      48.319   5.422  15.922  0.00  0.00    +0.000 NA
BRANCH   4  11
ATOM     10  N   UNL     1      48.928   3.144  17.524  0.00  0.00    +0.000 N 
ATOM     11  C   UNL     1      47.661   3.368  17.054  0.00  0.00    +0.000 C 
ATOM     12  O   UNL     1      46.686   2.843  17.572  0.00  0.00    +0.000 OA
ATOM     13  H   UNL     1      49.055   2.567  18.343  0.00  0.00    +0.000 HD
ATOM     14  H   UNL     1      49.711   3.639  17.115  0.00  0.00    +0.000 HD
ENDBRANCH   4  11
ENDBRANCH   2   7
ENDBRANCH   1   2
BRANCH   1  15
ATOM     15  C   UNL     1      45.617   6.530  10.977  0.00  0.00    +0.000 C 
BRANCH  15  16
ATOM     16  C   UNL     1      45.248   5.226  10.318  0.00  0.00    +0.000 A 
ATOM     17  C   UNL     1      44.456   4.302  10.997  0.00  0.00    +0.000 A 
ATOM     18  N   UNL     1      44.089   3.106  10.493  0.00  0.00    +0.000 NA
ATOM     19  C   UNL     1      44.522   2.821   9.244  0.00  0.00    +0.000 A 
ATOM     20  C   UNL     1      45.298   3.671   8.466  0.00  0.00    +0.000 A 
ATOM     21  C   UNL     1      45.682   4.889   9.023  0.00  0.00    +0.000 A 
BRANCH  20  22
ATOM     22  O   UNL     1      45.639   3.202   7.225  0.00  0.00    +0.000 OA
BRANCH  22  23
ATOM     23  C   UNL     1      47.031   3.058   6.871  0.00  0.00    +0.000 C 
ATOM     24  C   UNL     1      47.395   2.802   5.389  0.00  0.00    +0.000 C 
ATOM     25  N   UNL     1      48.369   1.775   5.822  0.00  0.00    +0.000 NA
ATOM     26  C   UNL     1      47.613   1.637   7.086  0.00  0.00    +0.000 C 
ATOM     27  H   UNL     1      49.316   2.132   5.955  0.00  0.00    +0.000 HD
ENDBRANCH  22  23
ENDBRANCH  20  22
ENDBRANCH  15  16
ENDBRANCH   1  15
TORSDOF 7
ENDMDL
MODEL 6
REMARK VINA RESULT:    -6.831      3.036      7.315
REMARK INTER + INTRA:         -10.403
REMARK INTER:                  -9.777
REMARK INTRA:                  -0.626
REMARK UNBOUND:                -0.776
REMARK  Name = 
REMARK  7 active torsions:
REMARK  status: ('A' for Active; 'I' for Inactive)
REMARK    1  A    between atoms: C_2  and  C_4
REMARK    2  A    between atoms: C_7  and  N_8
REMARK    3  A    between atoms: N_8  and  C_9
REMARK    4  A    between atoms: C_9  and  C_10
REMARK    5  A    between atoms: C_10  and  C_11
REMARK    6  A    between atoms: C_15  and  O_16
REMARK    7  A    between atoms: O_16  and  C_17
REMARK                            x       y       z     vdW  Elec       q    Type
REMARK                         _______ _______ _______ _____ _____    ______ ____
ROOT
ATOM      1  C   UNL     1      44.892   6.132  12.588  0.00  0.00    +0.000 C 
ENDROOT
BRANCH   1   2
ATOM      2  N   UNL     1      45.558   7.327  13.118  0.00  0.00    +0.000 N 
ATOM      3  H   UNL     1      45.000   8.171  13.014  0.00  0.00    +0.000 HD
BRANCH   2   7
ATOM      4  C   UNL     1      49.581   7.764  12.119  0.00  0.00    +0.000 A 
ATOM      5  C   UNL     1      48.732   8.832  11.863  0.00  0.00    +0.000 A 
ATOM      6  C   UNL     1      47.384   8.713  12.215  0.00  0.00    +0.000 A 
ATOM      7  C   UNL     1      46.909   7.552  12.828  0.00  0.00    +0.000 A 
ATOM      8  C   UNL     1      47.856   6.532  13.014  0.00  0.00    +0.000 A 
ATOM      9  N   UNL     1      49.174   6.601  12.694  0.00  0.00    +0.000 NA
BRANCH   4  11
ATOM     10  N   UNL     1      51.891   8.178  12.738  0.00  0.00    +0.000 N 
ATOM     11  C   UNL     1      51.023   7.859  11.728  0.00  0.00    +0.000 C 
ATOM     12  O   UNL     1      51.416   7.661  10.587  0.00  0.00    +0.000 OA
ATOM     13  H   UNL     1      52.882   8.207  12.546  0.00  0.00    +0.000 HD
ATOM     14  H   UNL     1      51.547   8.276  13.686  0.00  0.00    +0.000 HD
ENDBRANCH   4  11
ENDBRANCH   2   7
ENDBRANCH   1   2
BRANCH   1  15
ATOM     15  C   UNL     1      44.836   6.202  11.053  0.00  0.00    +0.000 C 
BRANCH  15  16
ATOM     16  C   UNL     1      44.692   4.851  10.399  0.00  0.00    +0.000 A 
ATOM     17  C   UNL     1      44.027   3.823  11.063  0.00  0.00    +0.000 A 
ATOM     18  N   UNL     1      43.864   2.581  10.564  0.00  0.00    +0.000 NA
ATOM     19  C   UNL     1      44.378   2.355   9.333  0.00  0.00    +0.000 A 
ATOM     20  C   UNL     1      45.042   3.307   8.570  0.00  0.00    +0.000 A 
ATOM     21  C   UNL     1      45.218   4.574   9.124  0.00  0.00    +0.000 A 
BRANCH  20  22
ATOM     22  O   UNL     1      45.494   2.886   7.348  0.00  0.00    +0.000 OA
BRANCH  22  23
ATOM     23  C   UNL     1      46.913   2.833   7.087  0.00  0.00    +0.000 C 
ATOM     24  C   UNL     1      47.395   2.819   5.616  0.00  0.00    +0.000 C 
ATOM     25  N   UNL     1      48.371   1.762   5.963  0.00  0.00    +0.000 NA
ATOM     26  C   UNL     1      47.529   1.410   7.128  0.00  0.00    +0.000 C 
ATOM     27  H   UNL     1      49.292   2.117   6.223  0.00  0.00    +0.000 HD
ENDBRANCH  22  23
ENDBRANCH  20  22
ENDBRANCH  15  16
ENDBRANCH   1  15
TORSDOF 7
ENDMDL
MODEL 7
REMARK VINA RESULT:    -6.332      2.846      4.334
REMARK INTER + INTRA:          -9.699
REMARK INTER:                  -8.799
REMARK INTRA:                  -0.900
REMARK UNBOUND:                -0.776
REMARK  Name = 
REMARK  7 active torsions:
REMARK  status: ('A' for Active; 'I' for Inactive)
REMARK    1  A    between atoms: C_2  and  C_4
REMARK    2  A    between atoms: C_7  and  N_8
REMARK    3  A    between atoms: N_8  and  C_9
REMARK    4  A    between atoms: C_9  and  C_10
REMARK    5  A    between atoms: C_10  and  C_11
REMARK    6  A    between atoms: C_15  and  O_16
REMARK    7  A    between atoms: O_16  and  C_17
REMARK                            x       y       z     vdW  Elec       q    Type
REMARK                         _______ _______ _______ _____ _____    ______ ____
ROOT
ATOM      1  C   UNL     1      46.612   8.687  12.458  0.00  0.00    +0.000 C 
ENDROOT
BRANCH   1   2
ATOM      2  N   UNL     1      45.665   7.807  13.153  0.00  0.00    +0.000 N 
ATOM      3  H   UNL     1      45.866   7.713  14.146  0.00  0.00    +0.000 HD
BRANCH   2   7
ATOM      4  C   UNL     1      44.400   4.141  11.626  0.00  0.00    +0.000 A 
ATOM      5  C   UNL     1      44.451   5.221  10.755  0.00  0.00    +0.000 A 
ATOM      6  C   UNL     1      44.897   6.451  11.243  0.00  0.00    +0.000 A 
ATOM      7  C   UNL     1      45.301   6.585  12.573  0.00  0.00    +0.000 A 
ATOM      8  C   UNL     1      45.182   5.430  13.362  0.00  0.00    +0.000 A 
ATOM      9  N   UNL     1      44.759   4.213  12.935  0.00  0.00    +0.000 NA
BRANCH   4  11
ATOM     10  N   UNL     1      44.569   2.299  10.053  0.00  0.00    +0.000 N 
ATOM     11  C   UNL     1      43.901   2.818  11.131  0.00  0.00    +0.000 C 
ATOM     12  O   UNL     1      42.966   2.225  11.649  0.00  0.00    +0.000 OA
ATOM     13  H   UNL     1      44.311   1.386   9.706  0.00  0.00    +0.000 HD
ATOM     14  H   UNL     1      45.379   2.781   9.682  0.00  0.00    +0.000 HD
ENDBRANCH   4  11
ENDBRANCH   2   7
ENDBRANCH   1   2
BRANCH   1  15
ATOM     15  C   UNL     1      48.049   8.193  12.688  0.00  0.00    +0.000 C 
BRANCH  15  16
ATOM     16  C   UNL     1      48.357   7.907  14.135  0.00  0.00    +0.000 A 
ATOM     17  C   UNL     1      48.417   8.953  15.054  0.00  0.00    +0.000 A 
ATOM     18  N   UNL     1      48.700   8.794  16.363  0.00  0.00    +0.000 NA
ATOM     19  C   UNL     1      48.921   7.527  16.781  0.00  0.00    +0.000 A 
ATOM     20  C   UNL     1      48.869   6.407  15.962  0.00  0.00    +0.000 A 
ATOM     21  C   UNL     1      48.600   6.605  14.609  0.00  0.00    +0.000 A 
BRANCH  20  22
ATOM     22  O   UNL     1      49.125   5.207  16.571  0.00  0.00    +0.000 OA
BRANCH  22  23
ATOM     23  C   UNL     1      48.136   4.621  17.445  0.00  0.00    +0.000 C 
ATOM     24  C   UNL     1      48.339   3.163  17.920  0.00  0.00    +0.000 C 
ATOM     25  N   UNL     1      46.905   2.897  17.666  0.00  0.00    +0.000 NA
ATOM     26  C   UNL     1      46.894   4.038  16.723  0.00  0.00    +0.000 C 
ATOM     27  H   UNL     1      46.306   3.040  18.480  0.00  0.00    +0.000 HD
ENDBRANCH  22  23
ENDBRANCH  20  22
ENDBRANCH  15  16
ENDBRANCH   1  15
TORSDOF 7
ENDMDL
MODEL 8
REMARK VINA RESULT:    -6.297      1.732      7.186
REMARK INTER + INTRA:          -9.650
REMARK INTER:                  -8.992
REMARK INTRA:                  -0.658
REMARK UNBOUND:                -0.776
REMARK  Name = 
REMARK  7 active torsions:
REMARK  status: ('A' for Active; 'I' for Inactive)
REMARK    1  A    between atoms: C_2  and  C_4
REMARK    2  A    between atoms: C_7  and  N_8
REMARK    3  A    between atoms: N_8  and  C_9
REMARK    4  A    between atoms: C_9  and  C_10
REMARK    5  A    between atoms: C_10  and  C_11
REMARK    6  A    between atoms: C_15  and  O_16
REMARK    7  A    between atoms: O_16  and  C_17
REMARK                            x       y       z     vdW  Elec       q    Type
REMARK                         _______ _______ _______ _____ _____    ______ ____
ROOT
ATOM      1  C   UNL     1      46.030   7.897  12.850  0.00  0.00    +0.000 C 
ENDROOT
BRANCH   1   2
ATOM      2  N   UNL     1      47.327   7.235  13.025  0.00  0.00    +0.000 N 
ATOM      3  H   UNL     1      47.792   7.033  12.143  0.00  0.00    +0.000 HD
BRANCH   2   7
ATOM      4  C   UNL     1      47.647   4.269  15.936  0.00  0.00    +0.000 A 
ATOM      5  C   UNL     1      46.775   4.046  14.879  0.00  0.00    +0.000 A 
ATOM      6  C   UNL     1      46.674   5.019  13.881  0.00  0.00    +0.000 A 
ATOM      7  C   UNL     1      47.449   6.178  13.936  0.00  0.00    +0.000 A 
ATOM      8  C   UNL     1      48.275   6.303  15.064  0.00  0.00    +0.000 A 
ATOM      9  N   UNL     1      48.411   5.387  16.057  0.00  0.00    +0.000 NA
BRANCH   4  11
ATOM     10  N   UNL     1      49.026   2.897  17.388  0.00  0.00    +0.000 N 
ATOM     11  C   UNL     1      47.752   3.252  17.030  0.00  0.00    +0.000 C 
ATOM     12  O   UNL     1      46.775   2.768  17.583  0.00  0.00    +0.000 OA
ATOM     13  H   UNL     1      49.162   2.254  18.154  0.00  0.00    +0.000 HD
ATOM     14  H   UNL     1      49.817   3.359  16.957  0.00  0.00    +0.000 HD
ENDBRANCH   4  11
ENDBRANCH   2   7
ENDBRANCH   1   2
BRANCH   1  15
ATOM     15  C   UNL     1      45.553   7.737  11.398  0.00  0.00    +0.000 C 
BRANCH  15  16
ATOM     16  C   UNL     1      44.834   6.436  11.146  0.00  0.00    +0.000 A 
ATOM     17  C   UNL     1      43.465   6.338  11.389  0.00  0.00    +0.000 A 
ATOM     18  N   UNL     1      42.744   5.213  11.208  0.00  0.00    +0.000 NA
ATOM     19  C   UNL     1      43.417   4.134  10.749  0.00  0.00    +0.000 A 
ATOM     20  C   UNL     1      44.774   4.119  10.453  0.00  0.00    +0.000 A 
ATOM     21  C   UNL     1      45.499   5.289  10.675  0.00  0.00    +0.000 A 
BRANCH  20  22
ATOM     22  O   UNL     1      45.276   2.929  10.000  0.00  0.00    +0.000 OA
BRANCH  22  23
ATOM     23  C   UNL     1      45.250   2.631   8.587  0.00  0.00    +0.000 C 
ATOM     24  C   UNL     1      46.316   1.667   8.014  0.00  0.00    +0.000 C 
ATOM     25  N   UNL     1      46.499   2.579   6.862  0.00  0.00    +0.000 NA
ATOM     26  C   UNL     1      45.955   3.680   7.688  0.00  0.00    +0.000 C 
ATOM     27  H   UNL     1      45.914   2.352   6.057  0.00  0.00    +0.000 HD
ENDBRANCH  22  23
ENDBRANCH  20  22
ENDBRANCH  15  16
ENDBRANCH   1  15
TORSDOF 7
ENDMDL
MODEL 9
REMARK VINA RESULT:    -6.114      2.348      8.430
REMARK INTER + INTRA:          -9.392
REMARK INTER:                  -9.028
REMARK INTRA:                  -0.364
REMARK UNBOUND:                -0.776
REMARK  Name = 
REMARK  7 active torsions:
REMARK  status: ('A' for Active; 'I' for Inactive)
REMARK    1  A    between atoms: C_2  and  C_4
REMARK    2  A    between atoms: C_7  and  N_8
REMARK    3  A    between atoms: N_8  and  C_9
REMARK    4  A    between atoms: C_9  and  C_10
REMARK    5  A    between atoms: C_10  and  C_11
REMARK    6  A    between atoms: C_15  and  O_16
REMARK    7  A    between atoms: O_16  and  C_17
REMARK                            x       y       z     vdW  Elec       q    Type
REMARK                         _______ _______ _______ _____ _____    ______ ____
ROOT
ATOM      1  C   UNL     1      46.831   5.149  13.461  0.00  0.00    +0.000 C 
ENDROOT
BRANCH   1   2
ATOM      2  N   UNL     1      46.496   4.563  14.764  0.00  0.00    +0.000 N 
ATOM      3  H   UNL     1      45.572   4.834  15.095  0.00  0.00    +0.000 HD
BRANCH   2   7
ATOM      4  C   UNL     1      49.421   4.359  17.725  0.00  0.00    +0.000 A 
ATOM      5  C   UNL     1      49.308   5.542  17.009  0.00  0.00    +0.000 A 
ATOM      6  C   UNL     1      48.316   5.638  16.030  0.00  0.00    +0.000 A 
ATOM      7  C   UNL     1      47.446   4.573  15.792  0.00  0.00    +0.000 A 
ATOM      8  C   UNL     1      47.673   3.420  16.561  0.00  0.00    +0.000 A 
ATOM      9  N   UNL     1      48.619   3.280  17.525  0.00  0.00    +0.000 NA
BRANCH   4  11
ATOM     10  N   UNL     1      51.523   3.379  18.443  0.00  0.00    +0.000 N 
ATOM     11  C   UNL     1      50.493   4.224  18.762  0.00  0.00    +0.000 C 
ATOM     12  O   UNL     1      50.469   4.829  19.824  0.00  0.00    +0.000 OA
ATOM     13  H   UNL     1      52.300   3.287  19.081  0.00  0.00    +0.000 HD
ATOM     14  H   UNL     1      51.549   2.939  17.532  0.00  0.00    +0.000 HD
ENDBRANCH   4  11
ENDBRANCH   2   7
ENDBRANCH   1   2
BRANCH   1  15
ATOM     15  C   UNL     1      45.566   5.728  12.807  0.00  0.00    +0.000 C 
BRANCH  15  16
ATOM     16  C   UNL     1      45.028   4.873  11.688  0.00  0.00    +0.000 A 
ATOM     17  C   UNL     1      44.063   3.903  11.955  0.00  0.00    +0.000 A 
ATOM     18  N   UNL     1      43.537   3.084  11.023  0.00  0.00    +0.000 NA
ATOM     19  C   UNL     1      43.984   3.247   9.757  0.00  0.00    +0.000 A 
ATOM     20  C   UNL     1      44.926   4.192   9.369  0.00  0.00    +0.000 A 
ATOM     21  C   UNL     1      45.471   5.007  10.360  0.00  0.00    +0.000 A 
BRANCH  20  22
ATOM     22  O   UNL     1      45.252   4.202   8.040  0.00  0.00    +0.000 OA
BRANCH  22  23
ATOM     23  C   UNL     1      46.470   3.566   7.596  0.00  0.00    +0.000 C 
ATOM     24  C   UNL     1      46.619   3.218   6.096  0.00  0.00    +0.000 C 
ATOM     25  N   UNL     1      47.178   1.900   6.473  0.00  0.00    +0.000 NA
ATOM     26  C   UNL     1      46.507   2.027   7.786  0.00  0.00    +0.000 C 
ATOM     27  H   UNL     1      48.196   1.885   6.540  0.00  0.00    +0.000 HD
ENDBRANCH  22  23
ENDBRANCH  20  22
ENDBRANCH  15  16
ENDBRANCH   1  15
TORSDOF 7
ENDMDL
