MODEL 1
REMARK VINA RESULT:    -7.837      0.000      0.000
REMARK INTER + INTRA:         -10.142
REMARK INTER:                  -9.670
REMARK INTRA:                  -0.472
REMARK UNBOUND:                -0.472
REMARK  Name = 
REMARK  5 active torsions:
REMARK  status: ('A' for Active; 'I' for Inactive)
REMARK    1  A    between atoms: C_1  and  C_2
REMARK    2  A    between atoms: C_2  and  O_3
REMARK    3  A    between atoms: C_2  and  C_13
REMARK    4  A    between atoms: O_3  and  C_4
REMARK    5  A    between atoms: C_7  and  C_8
REMARK                            x       y       z     vdW  Elec       q    Type
REMARK                         _______ _______ _______ _____ _____    ______ ____
ROOT
ATOM      1  C   UNL     1      44.577   3.748   9.358  0.00  0.00    +0.000 A 
ATOM      2  C   UNL     1      45.418   4.372   8.438  0.00  0.00    +0.000 A 
ATOM      3  C   UNL     1      46.303   3.613   7.672  0.00  0.00    +0.000 A 
ATOM      4  C   UNL     1      46.328   2.240   7.868  0.00  0.00    +0.000 A 
ATOM      5  N   UNL     1      45.535   1.593   8.767  0.00  0.00    +0.000 NA
ATOM      6  C   UNL     1      44.685   2.369   9.490  0.00  0.00    +0.000 A 
ENDROOT
BRANCH   4   7
ATOM      7  C   UNL     1      47.279   1.393   7.077  0.00  0.00    +0.000 C 
ATOM      8  N   UNL     1      48.379   2.040   6.586  0.00  0.00    +0.000 N 
ATOM      9  O   UNL     1      47.088   0.200   6.872  0.00  0.00    +0.000 OA
ATOM     10  H   UNL     1      48.492   3.033   6.754  0.00  0.00    +0.000 HD
ATOM     11  H   UNL     1      49.041   1.536   6.014  0.00  0.00    +0.000 HD
ENDBRANCH   4   7
BRANCH   1  12
ATOM     12  O   UNL     1      43.746   4.579  10.055  0.00  0.00    +0.000 OA
BRANCH  12  14
ATOM     13  C   UNL     1      42.508   5.281  12.038  0.00  0.00    +0.000 C 
ATOM     14  C   UNL     1      43.604   4.374  11.471  0.00  0.00    +0.000 C 
BRANCH  14  15
ATOM     15  C   UNL     1      44.896   4.715  12.197  0.00  0.00    +0.000 A 
ATOM     16  C   UNL     1      45.356   6.023  12.315  0.00  0.00    +0.000 A 
ATOM     17  N   UNL     1      46.423   6.365  13.080  0.00  0.00    +0.000 NA
ATOM     18  C   UNL     1      47.019   5.344  13.733  0.00  0.00    +0.000 A 
ATOM     19  C   UNL     1      46.585   4.037  13.614  0.00  0.00    +0.000 A 
ATOM     20  N   UNL     1      45.523   3.694  12.848  0.00  0.00    +0.000 NA
ENDBRANCH  14  15
ENDBRANCH  12  14
ENDBRANCH   1  12
TORSDOF 4
ENDMDL
MODEL 2
REMARK VINA RESULT:    -7.198      1.504      2.090
REMARK INTER + INTRA:          -9.354
REMARK INTER:                  -8.895
REMARK INTRA:                  -0.459
REMARK UNBOUND:                -0.472
REMARK  Name = 
REMARK  5 active torsions:
REMARK  status: ('A' for Active; 'I' for Inactive)
REMARK    1  A    between atoms: C_1  and  C_2
REMARK    2  A    between atoms: C_2  and  O_3
REMARK    3  A    between atoms: C_2  and  C_13
REMARK    4  A    between atoms: O_3  and  C_4
REMARK    5  A    between atoms: C_7  and  C_8
REMARK                            x       y       z     vdW  Elec       q    Type
REMARK                         _______ _______ _______ _____ _____    ______ ____
ROOT
ATOM      1  C   UNL     1      44.862   3.555   9.442  0.00  0.00    +0.000 A 
ATOM      2  C   UNL     1      45.147   2.201   9.287  0.00  0.00    +0.000 A 
ATOM      3  C   UNL     1      46.023   1.779   8.286  0.00  0.00    +0.000 A 
ATOM      4  C   UNL     1      46.578   2.741   7.454  0.00  0.00    +0.000 A 
ATOM      5  N   UNL     1      46.314   4.074   7.562  0.00  0.00    +0.000 NA
ATOM      6  C   UNL     1      45.458   4.441   8.552  0.00  0.00    +0.000 A 
ENDROOT
BRANCH   4   7
ATOM      7  C   UNL     1      47.508   2.326   6.355  0.00  0.00    +0.000 C 
ATOM      8  N   UNL     1      47.429   3.060   5.204  0.00  0.00    +0.000 N 
ATOM      9  O   UNL     1      48.288   1.387   6.468  0.00  0.00    +0.000 OA
ATOM     10  H   UNL     1      46.755   3.814   5.137  0.00  0.00    +0.000 HD
ATOM     11  H   UNL     1      48.003   2.809   4.412  0.00  0.00    +0.000 HD
ENDBRANCH   4   7
BRANCH   1  12
ATOM     12  O   UNL     1      43.995   3.864  10.453  0.00  0.00    +0.000 OA
BRANCH  12  14
ATOM     13  C   UNL     1      43.406   3.613  12.808  0.00  0.00    +0.000 C 
ATOM     14  C   UNL     1      44.507   3.939  11.794  0.00  0.00    +0.000 C 
BRANCH  14  15
ATOM     15  C   UNL     1      45.007   5.341  12.102  0.00  0.00    +0.000 A 
ATOM     16  C   UNL     1      46.171   5.568  12.831  0.00  0.00    +0.000 A 
ATOM     17  N   UNL     1      46.713   6.801  12.992  0.00  0.00    +0.000 NA
ATOM     18  C   UNL     1      46.047   7.811  12.390  0.00  0.00    +0.000 A 
ATOM     19  C   UNL     1      44.882   7.604  11.676  0.00  0.00    +0.000 A 
ATOM     20  N   UNL     1      44.338   6.375  11.519  0.00  0.00    +0.000 NA
ENDBRANCH  14  15
ENDBRANCH  12  14
ENDBRANCH   1  12
TORSDOF 4
ENDMDL
MODEL 3
REMARK VINA RESULT:    -6.068      2.709      6.329
REMARK INTER + INTRA:          -7.959
REMARK INTER:                  -7.503
REMARK INTRA:                  -0.455
REMARK UNBOUND:                -0.472
REMARK  Name = 
REMARK  5 active torsions:
REMARK  status: ('A' for Active; 'I' for Inactive)
REMARK    1  A    between atoms: C_1  and  C_2
REMARK    2  A    between atoms: C_2  and  O_3
REMARK    3  A    between atoms: C_2  and  C_13
REMARK    4  A    between atoms: O_3  and  C_4
REMARK    5  A    between atoms: C_7  and  C_8
REMARK                            x       y       z     vdW  Elec       q    Type
REMARK                         _______ _______ _______ _____ _____    ______ ____
ROOT
ATOM      1  C   UNL     1      46.106   4.765  13.007  0.00  0.00    +0.000 A 
ATOM      2  C   UNL     1      46.355   6.088  12.646  0.00  0.00    +0.000 A 
ATOM      3  C   UNL     1      47.290   6.843  13.354  0.00  0.00    +0.000 A 
ATOM      4  C   UNL     1      47.941   6.244  14.424  0.00  0.00    +0.000 A 
ATOM      5  N   UNL     1      47.716   4.959  14.819  0.00  0.00    +0.000 NA
ATOM      6  C   UNL     1      46.799   4.259  14.100  0.00  0.00    +0.000 A 
ENDROOT
BRANCH   4   7
ATOM      7  C   UNL     1      48.938   7.028  15.221  0.00  0.00    +0.000 C 
ATOM      8  N   UNL     1      48.435   8.094  15.914  0.00  0.00    +0.000 N 
ATOM      9  O   UNL     1      50.131   6.745  15.250  0.00  0.00    +0.000 OA
ATOM     10  H   UNL     1      47.448   8.313  15.848  0.00  0.00    +0.000 HD
ATOM     11  H   UNL     1      49.060   8.685  16.443  0.00  0.00    +0.000 HD
ENDBRANCH   4   7
BRANCH   1  12
ATOM     12  O   UNL     1      45.175   4.113  12.249  0.00  0.00    +0.000 OA
BRANCH  12  14
ATOM     13  C   UNL     1      43.102   4.793  11.153  0.00  0.00    +0.000 C 
ATOM     14  C   UNL     1      44.633   4.786  11.100  0.00  0.00    +0.000 C 
BRANCH  14  15
ATOM     15  C   UNL     1      45.040   4.077   9.818  0.00  0.00    +0.000 A 
ATOM     16  C   UNL     1      45.623   4.755   8.751  0.00  0.00    +0.000 A 
ATOM     17  N   UNL     1      46.125   4.123   7.661  0.00  0.00    +0.000 NA
ATOM     18  C   UNL     1      46.027   2.775   7.675  0.00  0.00    +0.000 A 
ATOM     19  C   UNL     1      45.437   2.089   8.719  0.00  0.00    +0.000 A 
ATOM     20  N   UNL     1      44.931   2.719   9.805  0.00  0.00    +0.000 NA
ENDBRANCH  14  15
ENDBRANCH  12  14
ENDBRANCH   1  12
TORSDOF 4
ENDMDL
MODEL 4
REMARK VINA RESULT:    -5.975      2.231      5.975
REMARK INTER + INTRA:          -7.844
REMARK INTER:                  -8.666
REMARK INTRA:                   0.822
REMARK UNBOUND:                -0.472
REMARK  Name = 
REMARK  5 active torsions:
REMARK  status: ('A' for Active; 'I' for Inactive)
REMARK    1  A    between atoms: C_1  and  C_2
REMARK    2  A    between atoms: C_2  and  O_3
REMARK    3  A    between atoms: C_2  and  C_13
REMARK    4  A    between atoms: O_3  and  C_4
REMARK    5  A    between atoms: C_7  and  C_8
REMARK                            x       y       z     vdW  Elec       q    Type
REMARK                         _______ _______ _______ _____ _____    ______ ____
ROOT
ATOM      1  C   UNL     1      45.297   5.016  11.581  0.00  0.00    +0.000 A 
ATOM      2  C   UNL     1      46.275   5.963  11.877  0.00  0.00    +0.000 A 
ATOM      3  C   UNL     1      46.999   5.875  13.066  0.00  0.00    +0.000 A 
ATOM      4  C   UNL     1      46.703   4.836  13.937  0.00  0.00    +0.000 A 
ATOM      5  N   UNL     1      45.745   3.898  13.694  0.00  0.00    +0.000 NA
ATOM      6  C   UNL     1      45.066   4.020  12.523  0.00  0.00    +0.000 A 
ENDROOT
BRANCH   4   7
ATOM      7  C   UNL     1      47.446   4.719  15.234  0.00  0.00    +0.000 C 
ATOM      8  N   UNL     1      46.992   3.754  16.090  0.00  0.00    +0.000 N 
ATOM      9  O   UNL     1      48.394   5.441  15.520  0.00  0.00    +0.000 OA
ATOM     10  H   UNL     1      46.190   3.192  15.831  0.00  0.00    +0.000 HD
ATOM     11  H   UNL     1      47.425   3.647  16.996  0.00  0.00    +0.000 HD
ENDBRANCH   4   7
BRANCH   1  12
ATOM     12  O   UNL     1      44.648   5.190  10.391  0.00  0.00    +0.000 OA
BRANCH  12  14
ATOM     13  C   UNL     1      43.751   2.936  10.666  0.00  0.00    +0.000 C 
ATOM     14  C   UNL     1      44.195   4.024   9.683  0.00  0.00    +0.000 C 
BRANCH  14  15
ATOM     15  C   UNL     1      45.313   3.440   8.834  0.00  0.00    +0.000 A 
ATOM     16  C   UNL     1      45.604   2.079   8.828  0.00  0.00    +0.000 A 
ATOM     17  N   UNL     1      46.495   1.518   7.973  0.00  0.00    +0.000 NA
ATOM     18  C   UNL     1      47.092   2.373   7.113  0.00  0.00    +0.000 A 
ATOM     19  C   UNL     1      46.826   3.729   7.118  0.00  0.00    +0.000 A 
ATOM     20  N   UNL     1      45.940   4.291   7.973  0.00  0.00    +0.000 NA
ENDBRANCH  14  15
ENDBRANCH  12  14
ENDBRANCH   1  12
TORSDOF 4
ENDMDL
MODEL 5
REMARK VINA RESULT:    -5.813      3.359      5.554
REMARK INTER + INTRA:          -7.645
REMARK INTER:                  -7.239
REMARK INTRA:                  -0.406
REMARK UNBOUND:                -0.472
REMARK  Name = 
REMARK  5 active torsions:
REMARK  status: ('A' for Active; 'I' for Inactive)
REMARK    1  A    between atoms: C_1  and  C_2
REMARK    2  A    between atoms: C_2  and  O_3
REMARK    3  A    between atoms: C_2  and  C_13
REMARK    4  A    between atoms: O_3  and  C_4
REMARK    5  A    between atoms: C_7  and  C_8
REMARK                            x       y       z     vdW  Elec       q    Type
REMARK                         _______ _______ _______ _____ _____    ______ ____
ROOT
ATOM      1  C   UNL     1      47.194   5.130  13.309  0.00  0.00    +0.000 A 
ATOM      2  C   UNL     1      46.700   6.044  12.382  0.00  0.00    +0.000 A 
ATOM      3  C   UNL     1      45.594   5.718  11.597  0.00  0.00    +0.000 A 
ATOM      4  C   UNL     1      45.024   4.463  11.758  0.00  0.00    +0.000 A 
ATOM      5  N   UNL     1      45.485   3.534  12.641  0.00  0.00    +0.000 NA
ATOM      6  C   UNL     1      46.562   3.894  13.389  0.00  0.00    +0.000 A 
ENDROOT
BRANCH   4   7
ATOM      7  C   UNL     1      43.847   4.068  10.919  0.00  0.00    +0.000 C 
ATOM      8  N   UNL     1      43.759   4.677   9.698  0.00  0.00    +0.000 N 
ATOM      9  O   UNL     1      43.007   3.258  11.297  0.00  0.00    +0.000 OA
ATOM     10  H   UNL     1      44.458   5.359   9.428  0.00  0.00    +0.000 HD
ATOM     11  H   UNL     1      42.970   4.482   9.098  0.00  0.00    +0.000 HD
ENDBRANCH   4   7
BRANCH   1  12
ATOM     12  O   UNL     1      48.277   5.547  14.030  0.00  0.00    +0.000 OA
BRANCH  12  14
ATOM     13  C   UNL     1      49.028   7.255  15.605  0.00  0.00    +0.000 C 
ATOM     14  C   UNL     1      48.057   6.100  15.339  0.00  0.00    +0.000 C 
BRANCH  14  15
ATOM     15  C   UNL     1      48.293   5.051  16.414  0.00  0.00    +0.000 A 
ATOM     16  C   UNL     1      47.265   4.253  16.908  0.00  0.00    +0.000 A 
ATOM     17  N   UNL     1      47.478   3.216  17.756  0.00  0.00    +0.000 NA
ATOM     18  C   UNL     1      48.767   2.999  18.096  0.00  0.00    +0.000 A 
ATOM     19  C   UNL     1      49.797   3.792  17.626  0.00  0.00    +0.000 A 
ATOM     20  N   UNL     1      49.586   4.829  16.783  0.00  0.00    +0.000 NA
ENDBRANCH  14  15
ENDBRANCH  12  14
ENDBRANCH   1  12
TORSDOF 4
ENDMDL
MODEL 6
REMARK VINA RESULT:    -5.768      2.890      5.865
REMARK INTER + INTRA:          -7.590
REMARK INTER:                  -7.108
REMARK INTRA:                  -0.482
REMARK UNBOUND:                -0.472
REMARK  Name = 
REMARK  5 active torsions:
REMARK  status: ('A' for Active; 'I' for Inactive)
REMARK    1  A    between atoms: C_1  and  C_2
REMARK    2  A    between atoms: C_2  and  O_3
REMARK    3  A    between atoms: C_2  and  C_13
REMARK    4  A    between atoms: O_3  and  C_4
REMARK    5  A    between atoms: C_7  and  C_8
REMARK                            x       y       z     vdW  Elec       q    Type
REMARK                         _______ _______ _______ _____ _____    ______ ____
ROOT
ATOM      1  C   UNL     1      45.916   6.003  12.841  0.00  0.00    +0.000 A 
ATOM      2  C   UNL     1      46.143   7.221  12.205  0.00  0.00    +0.000 A 
ATOM      3  C   UNL     1      47.422   7.780  12.196  0.00  0.00    +0.000 A 
ATOM      4  C   UNL     1      48.439   7.097  12.848  0.00  0.00    +0.000 A 
ATOM      5  N   UNL     1      48.256   5.911  13.495  0.00  0.00    +0.000 NA
ATOM      6  C   UNL     1      46.997   5.401  13.476  0.00  0.00    +0.000 A 
ENDROOT
BRANCH   4   7
ATOM      7  C   UNL     1      49.821   7.674  12.877  0.00  0.00    +0.000 C 
ATOM      8  N   UNL     1      50.518   7.481  14.038  0.00  0.00    +0.000 N 
ATOM      9  O   UNL     1      50.303   8.286  11.931  0.00  0.00    +0.000 OA
ATOM     10  H   UNL     1      50.080   6.991  14.809  0.00  0.00    +0.000 HD
ATOM     11  H   UNL     1      51.442   7.876  14.137  0.00  0.00    +0.000 HD
ENDBRANCH   4   7
BRANCH   1  12
ATOM     12  O   UNL     1      44.631   5.541  12.789  0.00  0.00    +0.000 OA
BRANCH  12  14
ATOM     13  C   UNL     1      42.409   5.506  11.779  0.00  0.00    +0.000 C 
ATOM     14  C   UNL     1      43.917   5.643  11.546  0.00  0.00    +0.000 C 
BRANCH  14  15
ATOM     15  C   UNL     1      44.331   4.532  10.593  0.00  0.00    +0.000 A 
ATOM     16  C   UNL     1      43.866   3.227  10.731  0.00  0.00    +0.000 A 
ATOM     17  N   UNL     1      44.104   2.258   9.814  0.00  0.00    +0.000 NA
ATOM     18  C   UNL     1      44.828   2.641   8.739  0.00  0.00    +0.000 A 
ATOM     19  C   UNL     1      45.311   3.928   8.595  0.00  0.00    +0.000 A 
ATOM     20  N   UNL     1      45.077   4.895   9.512  0.00  0.00    +0.000 NA
ENDBRANCH  14  15
ENDBRANCH  12  14
ENDBRANCH   1  12
TORSDOF 4
ENDMDL
MODEL 7
REMARK VINA RESULT:    -5.652      3.071      6.311
REMARK INTER + INTRA:          -7.447
REMARK INTER:                  -7.560
REMARK INTRA:                   0.113
REMARK UNBOUND:                -0.472
REMARK  Name = 
REMARK  5 active torsions:
REMARK  status: ('A' for Active; 'I' for Inactive)
REMARK    1  A    between atoms: C_1  and  C_2
REMARK    2  A    between atoms: C_2  and  O_3
REMARK    3  A    between atoms: C_2  and  C_13
REMARK    4  A    between atoms: O_3  and  C_4
REMARK    5  A    between atoms: C_7  and  C_8
REMARK                            x       y       z     vdW  Elec       q    Type
REMARK                         _______ _______ _______ _____ _____    ______ ____
ROOT
ATOM      1  C   UNL     1      46.950   5.301  13.183  0.00  0.00    +0.000 A 
ATOM      2  C   UNL     1      47.382   5.979  14.321  0.00  0.00    +0.000 A 
ATOM      3  C   UNL     1      47.745   5.268  15.465  0.00  0.00    +0.000 A 
ATOM      4  C   UNL     1      47.644   3.884  15.435  0.00  0.00    +0.000 A 
ATOM      5  N   UNL     1      47.212   3.183  14.349  0.00  0.00    +0.000 NA
ATOM      6  C   UNL     1      46.872   3.915  13.255  0.00  0.00    +0.000 A 
ENDROOT
BRANCH   4   7
ATOM      7  C   UNL     1      48.006   3.086  16.651  0.00  0.00    +0.000 C 
ATOM      8  N   UNL     1      47.022   2.964  17.593  0.00  0.00    +0.000 N 
ATOM      9  O   UNL     1      49.111   2.578  16.804  0.00  0.00    +0.000 OA
ATOM     10  H   UNL     1      46.129   3.418  17.445  0.00  0.00    +0.000 HD
ATOM     11  H   UNL     1      47.213   2.469  18.452  0.00  0.00    +0.000 HD
ENDBRANCH   4   7
BRANCH   1  12
ATOM     12  O   UNL     1      46.622   6.089  12.116  0.00  0.00    +0.000 OA
BRANCH  12  14
ATOM     13  C   UNL     1      44.288   5.789  12.766  0.00  0.00    +0.000 C 
ATOM     14  C   UNL     1      45.273   6.043  11.621  0.00  0.00    +0.000 C 
BRANCH  14  15
ATOM     15  C   UNL     1      45.105   4.912  10.618  0.00  0.00    +0.000 A 
ATOM     16  C   UNL     1      44.292   3.812  10.873  0.00  0.00    +0.000 A 
ATOM     17  N   UNL     1      44.013   2.868   9.940  0.00  0.00    +0.000 NA
ATOM     18  C   UNL     1      44.579   3.064   8.729  0.00  0.00    +0.000 A 
ATOM     19  C   UNL     1      45.402   4.142   8.465  0.00  0.00    +0.000 A 
ATOM     20  N   UNL     1      45.684   5.082   9.396  0.00  0.00    +0.000 NA
ENDBRANCH  14  15
ENDBRANCH  12  14
ENDBRANCH   1  12
TORSDOF 4
ENDMDL
MODEL 8
REMARK VINA RESULT:    -5.498      3.860      5.824
REMARK INTER + INTRA:          -7.256
REMARK INTER:                  -6.835
REMARK INTRA:                  -0.421
REMARK UNBOUND:                -0.472
REMARK  Name = 
REMARK  5 active torsions:
REMARK  status: ('A' for Active; 'I' for Inactive)
REMARK    1  A    between atoms: C_1  and  C_2
REMARK    2  A    between atoms: C_2  and  O_3
REMARK    3  A    between atoms: C_2  and  C_13
REMARK    4  A    between atoms: O_3  and  C_4
REMARK    5  A    between atoms: C_7  and  C_8
REMARK                            x       y       z     vdW  Elec       q    Type
REMARK                         _______ _______ _______ _____ _____    ______ ____
ROOT
ATOM      1  C   UNL     1      47.069   5.385  13.152  0.00  0.00    +0.000 A 
ATOM      2  C   UNL     1      46.458   6.121  12.139  0.00  0.00    +0.000 A 
ATOM      3  C   UNL     1      45.196   5.755  11.671  0.00  0.00    +0.000 A 
ATOM      4  C   UNL     1      44.588   4.640  12.230  0.00  0.00    +0.000 A 
ATOM      5  N   UNL     1      45.157   3.884  13.211  0.00  0.00    +0.000 NA
ATOM      6  C   UNL     1      46.385   4.277  13.640  0.00  0.00    +0.000 A 
ENDROOT
BRANCH   4   7
ATOM      7  C   UNL     1      43.240   4.204  11.741  0.00  0.00    +0.000 C 
ATOM      8  N   UNL     1      42.273   5.171  11.730  0.00  0.00    +0.000 N 
ATOM      9  O   UNL     1      43.008   3.057  11.379  0.00  0.00    +0.000 OA
ATOM     10  H   UNL     1      42.495   6.104  12.059  0.00  0.00    +0.000 HD
ATOM     11  H   UNL     1      41.334   4.934  11.446  0.00  0.00    +0.000 HD
ENDBRANCH   4   7
BRANCH   1  12
ATOM     12  O   UNL     1      48.303   5.827  13.540  0.00  0.00    +0.000 OA
BRANCH  12  14
ATOM     13  C   UNL     1      49.399   8.004  13.676  0.00  0.00    +0.000 C 
ATOM     14  C   UNL     1      48.384   7.043  14.303  0.00  0.00    +0.000 C 
BRANCH  14  15
ATOM     15  C   UNL     1      48.847   6.758  15.723  0.00  0.00    +0.000 A 
ATOM     16  C   UNL     1      49.024   7.771  16.662  0.00  0.00    +0.000 A 
ATOM     17  N   UNL     1      49.293   7.528  17.968  0.00  0.00    +0.000 NA
ATOM     18  C   UNL     1      49.378   6.224  18.311  0.00  0.00    +0.000 A 
ATOM     19  C   UNL     1      49.222   5.207  17.388  0.00  0.00    +0.000 A 
ATOM     20  N   UNL     1      48.957   5.448  16.084  0.00  0.00    +0.000 NA
ENDBRANCH  14  15
ENDBRANCH  12  14
ENDBRANCH   1  12
TORSDOF 4
ENDMDL
MODEL 9
REMARK VINA RESULT:    -4.993      3.546      6.814
REMARK INTER + INTRA:          -6.633
REMARK INTER:                  -6.668
REMARK INTRA:                   0.035
REMARK UNBOUND:                -0.472
REMARK  Name = 
REMARK  5 active torsions:
REMARK  status: ('A' for Active; 'I' for Inactive)
REMARK    1  A    between atoms: C_1  and  C_2
REMARK    2  A    between atoms: C_2  and  O_3
REMARK    3  A    between atoms: C_2  and  C_13
REMARK    4  A    between atoms: O_3  and  C_4
REMARK    5  A    between atoms: C_7  and  C_8
REMARK                            x       y       z     vdW  Elec       q    Type
REMARK                         _______ _______ _______ _____ _____    ______ ____
ROOT
ATOM      1  C   UNL     1      47.509   5.887  13.351  0.00  0.00    +0.000 A 
ATOM      2  C   UNL     1      46.934   4.685  13.756  0.00  0.00    +0.000 A 
ATOM      3  C   UNL     1      47.094   4.238  15.068  0.00  0.00    +0.000 A 
ATOM      4  C   UNL     1      47.850   5.013  15.936  0.00  0.00    +0.000 A 
ATOM      5  N   UNL     1      48.443   6.186  15.577  0.00  0.00    +0.000 NA
ATOM      6  C   UNL     1      48.258   6.587  14.291  0.00  0.00    +0.000 A 
ENDROOT
BRANCH   4   7
ATOM      7  C   UNL     1      48.061   4.557  17.348  0.00  0.00    +0.000 C 
ATOM      8  N   UNL     1      47.079   4.902  18.235  0.00  0.00    +0.000 N 
ATOM      9  O   UNL     1      49.049   3.921  17.697  0.00  0.00    +0.000 OA
ATOM     10  H   UNL     1      46.288   5.449  17.917  0.00  0.00    +0.000 HD
ATOM     11  H   UNL     1      47.178   4.657  19.209  0.00  0.00    +0.000 HD
ENDBRANCH   4   7
BRANCH   1  12
ATOM     12  O   UNL     1      47.291   6.237  12.049  0.00  0.00    +0.000 OA
BRANCH  12  14
ATOM     13  C   UNL     1      45.679   7.897  12.828  0.00  0.00    +0.000 C 
ATOM     14  C   UNL     1      46.066   6.914  11.718  0.00  0.00    +0.000 C 
BRANCH  14  15
ATOM     15  C   UNL     1      44.924   5.921  11.573  0.00  0.00    +0.000 A 
ATOM     16  C   UNL     1      44.935   4.916  10.610  0.00  0.00    +0.000 A 
ATOM     17  N   UNL     1      44.001   3.934  10.557  0.00  0.00    +0.000 NA
ATOM     18  C   UNL     1      43.047   3.988  11.512  0.00  0.00    +0.000 A 
ATOM     19  C   UNL     1      43.013   4.988  12.465  0.00  0.00    +0.000 A 
ATOM     20  N   UNL     1      43.941   5.971  12.516  0.00  0.00    +0.000 NA
ENDBRANCH  14  15
ENDBRANCH  12  14
ENDBRANCH   1  12
TORSDOF 4
ENDMDL
