MODEL 1
REMARK VINA RESULT:    -8.460      0.000      0.000
REMARK INTER + INTRA:         -13.339
REMARK INTER:                 -12.169
REMARK INTRA:                  -1.170
REMARK UNBOUND:                -1.170
REMARK  Name = 
REMARK  8 active torsions:
REMARK  status: ('A' for Active; 'I' for Inactive)
REMARK    1  A    between atoms: N_1  and  C_2
REMARK    2  A    between atoms: C_2  and  C_3
REMARK    3  A    between atoms: C_3  and  N_4
REMARK    4  A    between atoms: C_3  and  C_17
REMARK    5  A    between atoms: C_5  and  C_7
REMARK    6  A    between atoms: C_20  and  O_21
REMARK    7  A    between atoms: O_21  and  C_22
REMARK    8  A    between atoms: C_22  and  C_23
REMARK                            x       y       z     vdW  Elec       q    Type
REMARK                         _______ _______ _______ _____ _____    ______ ____
ROOT
ATOM      1  C   UNL     1      46.627   7.793  12.744  0.00  0.00    +0.000 C 
ENDROOT
BRANCH   1   2
ATOM      2  C   UNL     1      45.991   6.564  12.101  0.00  0.00    +0.000 A 
ATOM      3  N   UNL     1      46.149   6.369  10.775  0.00  0.00    +0.000 NA
ATOM      4  C   UNL     1      45.629   5.230  10.271  0.00  0.00    +0.000 A 
ATOM      5  C   UNL     1      44.978   4.279  11.026  0.00  0.00    +0.000 A 
ATOM      6  C   UNL     1      44.806   4.613  12.351  0.00  0.00    +0.000 A 
ATOM      7  N   UNL     1      45.280   5.744  12.907  0.00  0.00    +0.000 NA
BRANCH   5   8
ATOM      8  O   UNL     1      44.576   3.133  10.413  0.00  0.00    +0.000 OA
BRANCH   8   9
ATOM      9  C   UNL     1      44.390   3.253   8.996  0.00  0.00    +0.000 C 
BRANCH   9  10
ATOM     10  C   UNL     1      45.526   2.612   8.237  0.00  0.00    +0.000 A 
ATOM     11  C   UNL     1      46.268   3.325   7.298  0.00  0.00    +0.000 A 
ATOM     12  C   UNL     1      47.296   2.674   6.621  0.00  0.00    +0.000 A 
ATOM     13  C   UNL     1      47.549   1.334   6.887  0.00  0.00    +0.000 A 
ATOM     14  C   UNL     1      46.754   0.693   7.820  0.00  0.00    +0.000 A 
ATOM     15  N   UNL     1      45.751   1.296   8.492  0.00  0.00    +0.000 NA
ENDBRANCH   9  10
ENDBRANCH   8   9
ENDBRANCH   5   8
ENDBRANCH   1   2
BRANCH   1  16
ATOM     16  N   UNL     1      47.148   7.436  14.071  0.00  0.00    +0.000 N 
ATOM     17  C   UNL     1      48.273   6.691  14.268  0.00  0.00    +0.000 C 
ATOM     18  O   UNL     1      49.008   6.358  13.343  0.00  0.00    +0.000 OA
ATOM     19  H   UNL     1      46.513   7.630  14.842  0.00  0.00    +0.000 HD
BRANCH  17  20
ATOM     20  C   UNL     1      48.583   6.331  15.660  0.00  0.00    +0.000 A 
ATOM     21  C   UNL     1      49.345   7.187  16.444  0.00  0.00    +0.000 A 
ATOM     22  S   UNL     1      49.645   6.592  18.015  0.00  0.00    +0.000 S 
ATOM     23  C   UNL     1      48.803   5.151  17.690  0.00  0.00    +0.000 A 
ATOM     24  N   UNL     1      48.725   4.157  18.618  0.00  0.00    +0.000 NA
ATOM     25  C   UNL     1      48.088   3.105  18.225  0.00  0.00    +0.000 A 
ATOM     26  N   UNL     1      47.500   2.963  16.995  0.00  0.00    +0.000 N 
ATOM     27  C   UNL     1      47.504   3.960  16.053  0.00  0.00    +0.000 A 
ATOM     28  O   UNL     1      46.881   3.833  15.005  0.00  0.00    +0.000 OA
ATOM     29  C   UNL     1      48.257   5.144  16.420  0.00  0.00    +0.000 A 
ATOM     30  H   UNL     1      46.985   2.129  16.758  0.00  0.00    +0.000 HD
ENDBRANCH  17  20
ENDBRANCH   1  16
BRANCH   1  31
ATOM     31  C   UNL     1      45.568   8.920  12.838  0.00  0.00    +0.000 C 
BRANCH  31  32
ATOM     32  N   UNL     1      44.417   8.786  11.929  0.00  0.00    +0.000 NA
ATOM     33  H   UNL     1      44.669   9.150  11.011  0.00  0.00    +0.000 HD
ATOM     34  H   UNL     1      43.642   9.364  12.265  0.00  0.00    +0.000 HD
ENDBRANCH  31  32
ENDBRANCH   1  31
TORSDOF 8
ENDMDL
MODEL 2
REMARK VINA RESULT:    -7.860      2.732      4.105
REMARK INTER + INTRA:         -12.477
REMARK INTER:                 -11.234
REMARK INTRA:                  -1.243
REMARK UNBOUND:                -1.170
REMARK  Name = 
REMARK  8 active torsions:
REMARK  status: ('A' for Active; 'I' for Inactive)
REMARK    1  A    between atoms: N_1  and  C_2
REMARK    2  A    between atoms: C_2  and  C_3
REMARK    3  A    between atoms: C_3  and  N_4
REMARK    4  A    between atoms: C_3  and  C_17
REMARK    5  A    between atoms: C_5  and  C_7
REMARK    6  A    between atoms: C_20  and  O_21
REMARK    7  A    between atoms: O_21  and  C_22
REMARK    8  A    between atoms: C_22  and  C_23
REMARK                            x       y       z     vdW  Elec       q    Type
REMARK                         _______ _______ _______ _____ _____    ______ ____
ROOT
ATOM      1  C   UNL     1      46.570   5.597  14.178  0.00  0.00    +0.000 C 
ENDROOT
BRANCH   1   2
ATOM      2  C   UNL     1      45.822   5.076  12.954  0.00  0.00    +0.000 A 
ATOM      3  N   UNL     1      46.003   5.695  11.769  0.00  0.00    +0.000 NA
ATOM      4  C   UNL     1      45.376   5.149  10.706  0.00  0.00    +0.000 A 
ATOM      5  C   UNL     1      44.595   4.015  10.769  0.00  0.00    +0.000 A 
ATOM      6  C   UNL     1      44.416   3.508  12.036  0.00  0.00    +0.000 A 
ATOM      7  N   UNL     1      44.995   4.022  13.138  0.00  0.00    +0.000 NA
BRANCH   5   8
ATOM      8  O   UNL     1      44.088   3.516   9.610  0.00  0.00    +0.000 OA
BRANCH   8   9
ATOM      9  C   UNL     1      44.526   2.187   9.295  0.00  0.00    +0.000 C 
BRANCH   9  10
ATOM     10  C   UNL     1      45.616   2.202   8.250  0.00  0.00    +0.000 A 
ATOM     11  C   UNL     1      45.795   3.290   7.399  0.00  0.00    +0.000 A 
ATOM     12  C   UNL     1      46.809   3.238   6.448  0.00  0.00    +0.000 A 
ATOM     13  C   UNL     1      47.607   2.104   6.361  0.00  0.00    +0.000 A 
ATOM     14  C   UNL     1      47.353   1.058   7.229  0.00  0.00    +0.000 A 
ATOM     15  N   UNL     1      46.377   1.079   8.162  0.00  0.00    +0.000 NA
ENDBRANCH   9  10
ENDBRANCH   8   9
ENDBRANCH   5   8
ENDBRANCH   1   2
BRANCH   1  16
ATOM     16  N   UNL     1      47.764   6.335  13.744  0.00  0.00    +0.000 N 
ATOM     17  C   UNL     1      47.800   7.689  13.581  0.00  0.00    +0.000 C 
ATOM     18  O   UNL     1      46.861   8.411  13.901  0.00  0.00    +0.000 OA
ATOM     19  H   UNL     1      48.521   5.751  13.396  0.00  0.00    +0.000 HD
BRANCH  17  20
ATOM     20  C   UNL     1      49.043   8.249  13.028  0.00  0.00    +0.000 A 
ATOM     21  C   UNL     1      49.020   8.924  11.815  0.00  0.00    +0.000 A 
ATOM     22  S   UNL     1      50.555   9.466  11.305  0.00  0.00    +0.000 S 
ATOM     23  C   UNL     1      51.311   8.782  12.665  0.00  0.00    +0.000 A 
ATOM     24  N   UNL     1      52.663   8.837  12.821  0.00  0.00    +0.000 NA
ATOM     25  C   UNL     1      53.105   8.246  13.880  0.00  0.00    +0.000 A 
ATOM     26  N   UNL     1      52.318   7.621  14.812  0.00  0.00    +0.000 N 
ATOM     27  C   UNL     1      50.949   7.592  14.724  0.00  0.00    +0.000 A 
ATOM     28  O   UNL     1      50.274   7.114  15.628  0.00  0.00    +0.000 OA
ATOM     29  C   UNL     1      50.401   8.193  13.523  0.00  0.00    +0.000 A 
ATOM     30  H   UNL     1      52.720   7.206  15.638  0.00  0.00    +0.000 HD
ENDBRANCH  17  20
ENDBRANCH   1  16
BRANCH   1  31
ATOM     31  C   UNL     1      46.947   4.399  15.087  0.00  0.00    +0.000 C 
BRANCH  31  32
ATOM     32  N   UNL     1      47.496   3.223  14.391  0.00  0.00    +0.000 NA
ATOM     33  H   UNL     1      48.500   3.171  14.558  0.00  0.00    +0.000 HD
ATOM     34  H   UNL     1      47.378   3.333  13.381  0.00  0.00    +0.000 HD
ENDBRANCH  31  32
ENDBRANCH   1  31
TORSDOF 8
ENDMDL
MODEL 3
REMARK VINA RESULT:    -7.848      2.039      2.671
REMARK INTER + INTRA:         -12.459
REMARK INTER:                 -11.242
REMARK INTRA:                  -1.217
REMARK UNBOUND:                -1.170
REMARK  Name = 
REMARK  8 active torsions:
REMARK  status: ('A' for Active; 'I' for Inactive)
REMARK    1  A    between atoms: N_1  and  C_2
REMARK    2  A    between atoms: C_2  and  C_3
REMARK    3  A    between atoms: C_3  and  N_4
REMARK    4  A    between atoms: C_3  and  C_17
REMARK    5  A    between atoms: C_5  and  C_7
REMARK    6  A    between atoms: C_20  and  O_21
REMARK    7  A    between atoms: O_21  and  C_22
REMARK    8  A    between atoms: C_22  and  C_23
REMARK                            x       y       z     vdW  Elec       q    Type
REMARK                         _______ _______ _______ _____ _____    ______ ____
ROOT
ATOM      1  C   UNL     1      47.936   6.792  13.535  0.00  0.00    +0.000 C 
ENDROOT
BRANCH   1   2
ATOM      2  C   UNL     1      46.864   6.009  12.782  0.00  0.00    +0.000 A 
ATOM      3  N   UNL     1      46.288   6.572  11.699  0.00  0.00    +0.000 NA
ATOM      4  C   UNL     1      45.401   5.808  11.028  0.00  0.00    +0.000 A 
ATOM      5  C   UNL     1      45.076   4.515  11.376  0.00  0.00    +0.000 A 
ATOM      6  C   UNL     1      45.664   4.067  12.538  0.00  0.00    +0.000 A 
ATOM      7  N   UNL     1      46.538   4.789  13.264  0.00  0.00    +0.000 NA
BRANCH   5   8
ATOM      8  O   UNL     1      44.232   3.822  10.566  0.00  0.00    +0.000 OA
BRANCH   8   9
ATOM      9  C   UNL     1      44.298   4.195   9.183  0.00  0.00    +0.000 C 
BRANCH   9  10
ATOM     10  C   UNL     1      45.306   3.355   8.436  0.00  0.00    +0.000 A 
ATOM     11  C   UNL     1      45.471   1.999   8.711  0.00  0.00    +0.000 A 
ATOM     12  C   UNL     1      46.426   1.281   7.996  0.00  0.00    +0.000 A 
ATOM     13  C   UNL     1      47.196   1.931   7.041  0.00  0.00    +0.000 A 
ATOM     14  C   UNL     1      46.985   3.284   6.841  0.00  0.00    +0.000 A 
ATOM     15  N   UNL     1      46.067   4.007   7.518  0.00  0.00    +0.000 NA
ENDBRANCH   9  10
ENDBRANCH   8   9
ENDBRANCH   5   8
ENDBRANCH   1   2
BRANCH   1  16
ATOM     16  N   UNL     1      47.902   6.424  14.958  0.00  0.00    +0.000 N 
ATOM     17  C   UNL     1      49.010   6.359  15.750  0.00  0.00    +0.000 C 
ATOM     18  O   UNL     1      50.116   6.721  15.359  0.00  0.00    +0.000 OA
ATOM     19  H   UNL     1      47.014   6.042  15.276  0.00  0.00    +0.000 HD
BRANCH  17  20
ATOM     20  C   UNL     1      48.807   5.860  17.119  0.00  0.00    +0.000 A 
ATOM     21  C   UNL     1      48.997   4.514  17.402  0.00  0.00    +0.000 A 
ATOM     22  S   UNL     1      48.675   4.104  19.027  0.00  0.00    +0.000 S 
ATOM     23  C   UNL     1      48.230   5.702  19.400  0.00  0.00    +0.000 A 
ATOM     24  N   UNL     1      47.783   6.035  20.643  0.00  0.00    +0.000 NA
ATOM     25  C   UNL     1      47.445   7.274  20.776  0.00  0.00    +0.000 A 
ATOM     26  N   UNL     1      47.533   8.218  19.786  0.00  0.00    +0.000 N 
ATOM     27  C   UNL     1      48.032   7.939  18.539  0.00  0.00    +0.000 A 
ATOM     28  O   UNL     1      48.190   8.831  17.715  0.00  0.00    +0.000 OA
ATOM     29  C   UNL     1      48.374   6.547  18.316  0.00  0.00    +0.000 A 
ATOM     30  H   UNL     1      47.286   9.180  19.962  0.00  0.00    +0.000 HD
ENDBRANCH  17  20
ENDBRANCH   1  16
BRANCH   1  31
ATOM     31  C   UNL     1      47.685   8.309  13.340  0.00  0.00    +0.000 C 
BRANCH  31  32
ATOM     32  N   UNL     1      46.387   8.805  13.826  0.00  0.00    +0.000 NA
ATOM     33  H   UNL     1      46.543   9.497  14.557  0.00  0.00    +0.000 HD
ATOM     34  H   UNL     1      45.865   8.040  14.261  0.00  0.00    +0.000 HD
ENDBRANCH  31  32
ENDBRANCH   1  31
TORSDOF 8
ENDMDL
MODEL 4
REMARK VINA RESULT:    -7.618      2.465      4.462
REMARK INTER + INTRA:         -12.128
REMARK INTER:                 -10.839
REMARK INTRA:                  -1.289
REMARK UNBOUND:                -1.170
REMARK  Name = 
REMARK  8 active torsions:
REMARK  status: ('A' for Active; 'I' for Inactive)
REMARK    1  A    between atoms: N_1  and  C_2
REMARK    2  A    between atoms: C_2  and  C_3
REMARK    3  A    between atoms: C_3  and  N_4
REMARK    4  A    between atoms: C_3  and  C_17
REMARK    5  A    between atoms: C_5  and  C_7
REMARK    6  A    between atoms: C_20  and  O_21
REMARK    7  A    between atoms: O_21  and  C_22
REMARK    8  A    between atoms: C_22  and  C_23
REMARK                            x       y       z     vdW  Elec       q    Type
REMARK                         _______ _______ _______ _____ _____    ______ ____
ROOT
ATOM      1  C   UNL     1      47.021   5.314  14.552  0.00  0.00    +0.000 C 
ENDROOT
BRANCH   1   2
ATOM      2  C   UNL     1      46.193   4.883  13.345  0.00  0.00    +0.000 A 
ATOM      3  N   UNL     1      45.878   5.804  12.411  0.00  0.00    +0.000 NA
ATOM      4  C   UNL     1      45.208   5.354  11.328  0.00  0.00    +0.000 A 
ATOM      5  C   UNL     1      44.855   4.037  11.132  0.00  0.00    +0.000 A 
ATOM      6  C   UNL     1      45.159   3.196  12.179  0.00  0.00    +0.000 A 
ATOM      7  N   UNL     1      45.803   3.589  13.294  0.00  0.00    +0.000 NA
BRANCH   5   8
ATOM      8  O   UNL     1      44.258   3.698   9.958  0.00  0.00    +0.000 OA
BRANCH   8   9
ATOM      9  C   UNL     1      44.523   2.357   9.524  0.00  0.00    +0.000 C 
BRANCH   9  10
ATOM     10  C   UNL     1      45.553   2.330   8.421  0.00  0.00    +0.000 A 
ATOM     11  C   UNL     1      45.742   3.420   7.575  0.00  0.00    +0.000 A 
ATOM     12  C   UNL     1      46.699   3.329   6.568  0.00  0.00    +0.000 A 
ATOM     13  C   UNL     1      47.430   2.158   6.423  0.00  0.00    +0.000 A 
ATOM     14  C   UNL     1      47.168   1.113   7.291  0.00  0.00    +0.000 A 
ATOM     15  N   UNL     1      46.247   1.171   8.277  0.00  0.00    +0.000 NA
ENDBRANCH   9  10
ENDBRANCH   8   9
ENDBRANCH   5   8
ENDBRANCH   1   2
BRANCH   1  16
ATOM     16  N   UNL     1      48.176   6.100  14.098  0.00  0.00    +0.000 N 
ATOM     17  C   UNL     1      48.822   7.017  14.874  0.00  0.00    +0.000 C 
ATOM     18  O   UNL     1      48.555   7.171  16.062  0.00  0.00    +0.000 OA
ATOM     19  H   UNL     1      48.358   6.048  13.098  0.00  0.00    +0.000 HD
BRANCH  17  20
ATOM     20  C   UNL     1      49.884   7.796  14.220  0.00  0.00    +0.000 A 
ATOM     21  C   UNL     1      51.169   7.794  14.746  0.00  0.00    +0.000 A 
ATOM     22  S   UNL     1      52.262   8.785  13.889  0.00  0.00    +0.000 S 
ATOM     23  C   UNL     1      51.048   9.284  12.808  0.00  0.00    +0.000 A 
ATOM     24  N   UNL     1      51.306  10.199  11.833  0.00  0.00    +0.000 NA
ATOM     25  C   UNL     1      50.285  10.514  11.109  0.00  0.00    +0.000 A 
ATOM     26  N   UNL     1      49.031   9.981  11.255  0.00  0.00    +0.000 N 
ATOM     27  C   UNL     1      48.740   9.016  12.185  0.00  0.00    +0.000 A 
ATOM     28  O   UNL     1      47.633   8.491  12.217  0.00  0.00    +0.000 OA
ATOM     29  C   UNL     1      49.838   8.666  13.065  0.00  0.00    +0.000 A 
ATOM     30  H   UNL     1      48.280  10.242  10.634  0.00  0.00    +0.000 HD
ENDBRANCH  17  20
ENDBRANCH   1  16
BRANCH   1  31
ATOM     31  C   UNL     1      47.469   4.053  15.333  0.00  0.00    +0.000 C 
BRANCH  31  32
ATOM     32  N   UNL     1      46.719   3.772  16.569  0.00  0.00    +0.000 NA
ATOM     33  H   UNL     1      47.327   3.290  17.230  0.00  0.00    +0.000 HD
ATOM     34  H   UNL     1      45.948   3.131  16.368  0.00  0.00    +0.000 HD
ENDBRANCH  31  32
ENDBRANCH   1  31
TORSDOF 8
ENDMDL
MODEL 5
REMARK VINA RESULT:    -7.133      3.346      5.086
REMARK INTER + INTRA:         -11.431
REMARK INTER:                  -9.904
REMARK INTRA:                  -1.527
REMARK UNBOUND:                -1.170
REMARK  Name = 
REMARK  8 active torsions:
REMARK  status: ('A' for Active; 'I' for Inactive)
REMARK    1  A    between atoms: N_1  and  C_2
REMARK    2  A    between atoms: C_2  and  C_3
REMARK    3  A    between atoms: C_3  and  N_4
REMARK    4  A    between atoms: C_3  and  C_17
REMARK    5  A    between atoms: C_5  and  C_7
REMARK    6  A    between atoms: C_20  and  O_21
REMARK    7  A    between atoms: O_21  and  C_22
REMARK    8  A    between atoms: C_22  and  C_23
REMARK                            x       y       z     vdW  Elec       q    Type
REMARK                         _______ _______ _______ _____ _____    ______ ____
ROOT
ATOM      1  C   UNL     1      49.683   6.508  17.365  0.00  0.00    +0.000 C 
ENDROOT
BRANCH   1   2
ATOM      2  C   UNL     1      48.738   5.792  16.404  0.00  0.00    +0.000 A 
ATOM      3  N   UNL     1      48.048   4.721  16.849  0.00  0.00    +0.000 NA
ATOM      4  C   UNL     1      47.172   4.171  15.981  0.00  0.00    +0.000 A 
ATOM      5  C   UNL     1      46.946   4.645  14.708  0.00  0.00    +0.000 A 
ATOM      6  C   UNL     1      47.756   5.693  14.331  0.00  0.00    +0.000 A 
ATOM      7  N   UNL     1      48.664   6.269  15.141  0.00  0.00    +0.000 NA
BRANCH   5   8
ATOM      8  O   UNL     1      45.974   4.054  13.962  0.00  0.00    +0.000 OA
BRANCH   8   9
ATOM      9  C   UNL     1      45.173   4.968  13.201  0.00  0.00    +0.000 C 
BRANCH   9  10
ATOM     10  C   UNL     1      45.080   4.543  11.755  0.00  0.00    +0.000 A 
ATOM     11  C   UNL     1      45.500   5.378  10.722  0.00  0.00    +0.000 A 
ATOM     12  C   UNL     1      45.377   4.934   9.409  0.00  0.00    +0.000 A 
ATOM     13  C   UNL     1      44.829   3.682   9.159  0.00  0.00    +0.000 A 
ATOM     14  C   UNL     1      44.418   2.922  10.239  0.00  0.00    +0.000 A 
ATOM     15  N   UNL     1      44.525   3.325  11.523  0.00  0.00    +0.000 NA
ENDBRANCH   9  10
ENDBRANCH   8   9
ENDBRANCH   5   8
ENDBRANCH   1   2
BRANCH   1  16
ATOM     16  N   UNL     1      50.664   5.550  17.892  0.00  0.00    +0.000 N 
ATOM     17  C   UNL     1      51.915   5.384  17.373  0.00  0.00    +0.000 C 
ATOM     18  O   UNL     1      52.360   6.114  16.492  0.00  0.00    +0.000 OA
ATOM     19  H   UNL     1      50.288   4.883  18.562  0.00  0.00    +0.000 HD
BRANCH  17  20
ATOM     20  C   UNL     1      52.723   4.299  17.950  0.00  0.00    +0.000 A 
ATOM     21  C   UNL     1      53.916   4.592  18.597  0.00  0.00    +0.000 A 
ATOM     22  S   UNL     1      54.745   3.213  19.165  0.00  0.00    +0.000 S 
ATOM     23  C   UNL     1      53.560   2.171  18.529  0.00  0.00    +0.000 A 
ATOM     24  N   UNL     1      53.690   0.819  18.620  0.00  0.00    +0.000 NA
ATOM     25  C   UNL     1      52.737   0.150  18.063  0.00  0.00    +0.000 A 
ATOM     26  N   UNL     1      51.651   0.709  17.441  0.00  0.00    +0.000 N 
ATOM     27  C   UNL     1      51.451   2.065  17.377  0.00  0.00    +0.000 A 
ATOM     28  O   UNL     1      50.418   2.523  16.903  0.00  0.00    +0.000 OA
ATOM     29  C   UNL     1      52.522   2.867  17.937  0.00  0.00    +0.000 A 
ATOM     30  H   UNL     1      50.920   0.132  17.054  0.00  0.00    +0.000 HD
ENDBRANCH  17  20
ENDBRANCH   1  16
BRANCH   1  31
ATOM     31  C   UNL     1      48.852   7.149  18.506  0.00  0.00    +0.000 C 
BRANCH  31  32
ATOM     32  N   UNL     1      47.506   7.611  18.128  0.00  0.00    +0.000 NA
ATOM     33  H   UNL     1      46.810   7.090  18.659  0.00  0.00    +0.000 HD
ATOM     34  H   UNL     1      47.332   7.400  17.142  0.00  0.00    +0.000 HD
ENDBRANCH  31  32
ENDBRANCH   1  31
TORSDOF 8
ENDMDL
MODEL 6
REMARK VINA RESULT:    -7.081      2.474      4.086
REMARK INTER + INTRA:         -11.355
REMARK INTER:                 -10.138
REMARK INTRA:                  -1.217
REMARK UNBOUND:                -1.170
REMARK  Name = 
REMARK  8 active torsions:
REMARK  status: ('A' for Active; 'I' for Inactive)
REMARK    1  A    between atoms: N_1  and  C_2
REMARK    2  A    between atoms: C_2  and  C_3
REMARK    3  A    between atoms: C_3  and  N_4
REMARK    4  A    between atoms: C_3  and  C_17
REMARK    5  A    between atoms: C_5  and  C_7
REMARK    6  A    between atoms: C_20  and  O_21
REMARK    7  A    between atoms: O_21  and  C_22
REMARK    8  A    between atoms: C_22  and  C_23
REMARK                            x       y       z     vdW  Elec       q    Type
REMARK                         _______ _______ _______ _____ _____    ______ ____
ROOT
ATOM      1  C   UNL     1      47.128   4.331  15.756  0.00  0.00    +0.000 C 
ENDROOT
BRANCH   1   2
ATOM      2  C   UNL     1      46.693   4.614  14.321  0.00  0.00    +0.000 A 
ATOM      3  N   UNL     1      45.957   3.689  13.670  0.00  0.00    +0.000 NA
ATOM      4  C   UNL     1      45.537   4.021  12.431  0.00  0.00    +0.000 A 
ATOM      5  C   UNL     1      45.804   5.229  11.824  0.00  0.00    +0.000 A 
ATOM      6  C   UNL     1      46.624   6.068  12.544  0.00  0.00    +0.000 A 
ATOM      7  N   UNL     1      47.095   5.783  13.773  0.00  0.00    +0.000 NA
BRANCH   5   8
ATOM      8  O   UNL     1      45.250   5.474  10.606  0.00  0.00    +0.000 OA
BRANCH   8   9
ATOM      9  C   UNL     1      44.498   4.379  10.065  0.00  0.00    +0.000 C 
BRANCH   9  10
ATOM     10  C   UNL     1      45.296   3.625   9.029  0.00  0.00    +0.000 A 
ATOM     11  C   UNL     1      45.419   2.238   9.073  0.00  0.00    +0.000 A 
ATOM     12  C   UNL     1      46.178   1.601   8.096  0.00  0.00    +0.000 A 
ATOM     13  C   UNL     1      46.802   2.358   7.113  0.00  0.00    +0.000 A 
ATOM     14  C   UNL     1      46.647   3.732   7.150  0.00  0.00    +0.000 A 
ATOM     15  N   UNL     1      45.917   4.379   8.085  0.00  0.00    +0.000 NA
ENDBRANCH   9  10
ENDBRANCH   8   9
ENDBRANCH   5   8
ENDBRANCH   1   2
BRANCH   1  16
ATOM     16  N   UNL     1      47.950   5.445  16.247  0.00  0.00    +0.000 N 
ATOM     17  C   UNL     1      47.993   5.837  17.553  0.00  0.00    +0.000 C 
ATOM     18  O   UNL     1      47.432   5.207  18.444  0.00  0.00    +0.000 OA
ATOM     19  H   UNL     1      48.353   6.028  15.517  0.00  0.00    +0.000 HD
BRANCH  17  20
ATOM     20  C   UNL     1      48.780   7.045  17.847  0.00  0.00    +0.000 A 
ATOM     21  C   UNL     1      48.165   8.148  18.426  0.00  0.00    +0.000 A 
ATOM     22  S   UNL     1      49.215   9.473  18.657  0.00  0.00    +0.000 S 
ATOM     23  C   UNL     1      50.517   8.636  17.953  0.00  0.00    +0.000 A 
ATOM     24  N   UNL     1      51.729   9.233  17.785  0.00  0.00    +0.000 NA
ATOM     25  C   UNL     1      52.615   8.495  17.206  0.00  0.00    +0.000 A 
ATOM     26  N   UNL     1      52.408   7.203  16.796  0.00  0.00    +0.000 N 
ATOM     27  C   UNL     1      51.222   6.544  16.998  0.00  0.00    +0.000 A 
ATOM     28  O   UNL     1      51.109   5.358  16.710  0.00  0.00    +0.000 OA
ATOM     29  C   UNL     1      50.171   7.346  17.594  0.00  0.00    +0.000 A 
ATOM     30  H   UNL     1      53.152   6.665  16.379  0.00  0.00    +0.000 HD
ENDBRANCH  17  20
ENDBRANCH   1  16
BRANCH   1  31
ATOM     31  C   UNL     1      47.911   2.994  15.792  0.00  0.00    +0.000 C 
BRANCH  31  32
ATOM     32  N   UNL     1      49.119   2.989  16.634  0.00  0.00    +0.000 NA
ATOM     33  H   UNL     1      49.190   3.878  17.127  0.00  0.00    +0.000 HD
ATOM     34  H   UNL     1      49.952   2.921  16.043  0.00  0.00    +0.000 HD
ENDBRANCH  31  32
ENDBRANCH   1  31
TORSDOF 8
ENDMDL
MODEL 7
REMARK VINA RESULT:    -6.707      4.101      8.709
REMARK INTER + INTRA:         -10.818
REMARK INTER:                  -9.882
REMARK INTRA:                  -0.936
REMARK UNBOUND:                -1.170
REMARK  Name = 
REMARK  8 active torsions:
REMARK  status: ('A' for Active; 'I' for Inactive)
REMARK    1  A    between atoms: N_1  and  C_2
REMARK    2  A    between atoms: C_2  and  C_3
REMARK    3  A    between atoms: C_3  and  N_4
REMARK    4  A    between atoms: C_3  and  C_17
REMARK    5  A    between atoms: C_5  and  C_7
REMARK    6  A    between atoms: C_20  and  O_21
REMARK    7  A    between atoms: O_21  and  C_22
REMARK    8  A    between atoms: C_22  and  C_23
REMARK                            x       y       z     vdW  Elec       q    Type
REMARK                         _______ _______ _______ _____ _____    ______ ____
ROOT
ATOM      1  C   UNL     1      47.539   4.262  17.245  0.00  0.00    +0.000 C 
ENDROOT
BRANCH   1   2
ATOM      2  C   UNL     1      49.046   4.035  17.310  0.00  0.00    +0.000 A 
ATOM      3  N   UNL     1      49.860   5.104  17.431  0.00  0.00    +0.000 NA
ATOM      4  C   UNL     1      51.178   4.842  17.559  0.00  0.00    +0.000 A 
ATOM      5  C   UNL     1      51.714   3.573  17.586  0.00  0.00    +0.000 A 
ATOM      6  C   UNL     1      50.805   2.559  17.379  0.00  0.00    +0.000 A 
ATOM      7  N   UNL     1      49.483   2.758  17.222  0.00  0.00    +0.000 NA
BRANCH   5   8
ATOM      8  O   UNL     1      53.049   3.441  17.807  0.00  0.00    +0.000 OA
BRANCH   8   9
ATOM      9  C   UNL     1      53.392   2.470  18.805  0.00  0.00    +0.000 C 
BRANCH   9  10
ATOM     10  C   UNL     1      53.993   1.233  18.182  0.00  0.00    +0.000 A 
ATOM     11  C   UNL     1      54.646   1.280  16.952  0.00  0.00    +0.000 A 
ATOM     12  C   UNL     1      55.168   0.103  16.425  0.00  0.00    +0.000 A 
ATOM     13  C   UNL     1      55.017  -1.087  17.126  0.00  0.00    +0.000 A 
ATOM     14  C   UNL     1      54.339  -1.053  18.331  0.00  0.00    +0.000 A 
ATOM     15  N   UNL     1      53.821   0.072  18.868  0.00  0.00    +0.000 NA
ENDBRANCH   9  10
ENDBRANCH   8   9
ENDBRANCH   5   8
ENDBRANCH   1   2
BRANCH   1  16
ATOM     16  N   UNL     1      47.197   4.915  15.974  0.00  0.00    +0.000 N 
ATOM     17  C   UNL     1      47.229   4.284  14.765  0.00  0.00    +0.000 C 
ATOM     18  O   UNL     1      47.434   3.078  14.662  0.00  0.00    +0.000 OA
ATOM     19  H   UNL     1      47.107   5.927  16.028  0.00  0.00    +0.000 HD
BRANCH  17  20
ATOM     20  C   UNL     1      46.970   5.120  13.583  0.00  0.00    +0.000 A 
ATOM     21  C   UNL     1      47.708   6.278  13.378  0.00  0.00    +0.000 A 
ATOM     22  S   UNL     1      47.245   7.148  11.985  0.00  0.00    +0.000 S 
ATOM     23  C   UNL     1      46.014   6.030  11.628  0.00  0.00    +0.000 A 
ATOM     24  N   UNL     1      45.181   6.216  10.568  0.00  0.00    +0.000 NA
ATOM     25  C   UNL     1      44.270   5.311  10.437  0.00  0.00    +0.000 A 
ATOM     26  N   UNL     1      44.128   4.222  11.257  0.00  0.00    +0.000 N 
ATOM     27  C   UNL     1      44.980   3.965  12.301  0.00  0.00    +0.000 A 
ATOM     28  O   UNL     1      44.883   2.929  12.947  0.00  0.00    +0.000 OA
ATOM     29  C   UNL     1      45.989   4.982  12.529  0.00  0.00    +0.000 A 
ATOM     30  H   UNL     1      43.416   3.529  11.082  0.00  0.00    +0.000 HD
ENDBRANCH  17  20
ENDBRANCH   1  16
BRANCH   1  31
ATOM     31  C   UNL     1      47.105   5.125  18.457  0.00  0.00    +0.000 C 
BRANCH  31  32
ATOM     32  N   UNL     1      47.829   4.864  19.712  0.00  0.00    +0.000 NA
ATOM     33  H   UNL     1      48.491   5.619  19.882  0.00  0.00    +0.000 HD
ATOM     34  H   UNL     1      48.384   4.010  19.620  0.00  0.00    +0.000 HD
ENDBRANCH  31  32
ENDBRANCH   1  31
TORSDOF 8
ENDMDL
MODEL 8
REMARK VINA RESULT:    -6.673      3.192      5.008
REMARK INTER + INTRA:         -10.769
REMARK INTER:                  -9.472
REMARK INTRA:                  -1.297
REMARK UNBOUND:                -1.170
REMARK  Name = 
REMARK  8 active torsions:
REMARK  status: ('A' for Active; 'I' for Inactive)
REMARK    1  A    between atoms: N_1  and  C_2
REMARK    2  A    between atoms: C_2  and  C_3
REMARK    3  A    between atoms: C_3  and  N_4
REMARK    4  A    between atoms: C_3  and  C_17
REMARK    5  A    between atoms: C_5  and  C_7
REMARK    6  A    between atoms: C_20  and  O_21
REMARK    7  A    between atoms: O_21  and  C_22
REMARK    8  A    between atoms: C_22  and  C_23
REMARK                            x       y       z     vdW  Elec       q    Type
REMARK                         _______ _______ _______ _____ _____    ______ ____
ROOT
ATOM      1  C   UNL     1      48.141   3.876  16.899  0.00  0.00    +0.000 C 
ENDROOT
BRANCH   1   2
ATOM      2  C   UNL     1      47.664   4.516  15.598  0.00  0.00    +0.000 A 
ATOM      3  N   UNL     1      48.208   5.689  15.213  0.00  0.00    +0.000 NA
ATOM      4  C   UNL     1      47.805   6.174  14.020  0.00  0.00    +0.000 A 
ATOM      5  C   UNL     1      46.902   5.539  13.194  0.00  0.00    +0.000 A 
ATOM      6  C   UNL     1      46.353   4.389  13.717  0.00  0.00    +0.000 A 
ATOM      7  N   UNL     1      46.697   3.869  14.910  0.00  0.00    +0.000 NA
BRANCH   5   8
ATOM      8  O   UNL     1      46.644   6.088  11.978  0.00  0.00    +0.000 OA
BRANCH   8   9
ATOM      9  C   UNL     1      45.281   5.967  11.550  0.00  0.00    +0.000 C 
BRANCH   9  10
ATOM     10  C   UNL     1      45.131   4.903  10.489  0.00  0.00    +0.000 A 
ATOM     11  C   UNL     1      45.636   5.080   9.203  0.00  0.00    +0.000 A 
ATOM     12  C   UNL     1      45.455   4.067   8.266  0.00  0.00    +0.000 A 
ATOM     13  C   UNL     1      44.769   2.915   8.628  0.00  0.00    +0.000 A 
ATOM     14  C   UNL     1      44.283   2.824   9.920  0.00  0.00    +0.000 A 
ATOM     15  N   UNL     1      44.442   3.789  10.851  0.00  0.00    +0.000 NA
ENDBRANCH   9  10
ENDBRANCH   8   9
ENDBRANCH   5   8
ENDBRANCH   1   2
BRANCH   1  16
ATOM     16  N   UNL     1      49.407   4.496  17.314  0.00  0.00    +0.000 N 
ATOM     17  C   UNL     1      49.688   4.859  18.598  0.00  0.00    +0.000 C 
ATOM     18  O   UNL     1      48.942   4.585  19.534  0.00  0.00    +0.000 OA
ATOM     19  H   UNL     1      49.999   4.806  16.547  0.00  0.00    +0.000 HD
BRANCH  17  20
ATOM     20  C   UNL     1      50.956   5.573  18.814  0.00  0.00    +0.000 A 
ATOM     21  C   UNL     1      50.949   6.850  19.358  0.00  0.00    +0.000 A 
ATOM     22  S   UNL     1      52.502   7.544  19.497  0.00  0.00    +0.000 S 
ATOM     23  C   UNL     1      53.235   6.179  18.796  0.00  0.00    +0.000 A 
ATOM     24  N   UNL     1      54.576   6.142  18.566  0.00  0.00    +0.000 NA
ATOM     25  C   UNL     1      54.993   5.061  17.996  0.00  0.00    +0.000 A 
ATOM     26  N   UNL     1      54.193   4.002  17.653  0.00  0.00    +0.000 N 
ATOM     27  C   UNL     1      52.848   3.973  17.918  0.00  0.00    +0.000 A 
ATOM     28  O   UNL     1      52.186   2.968  17.690  0.00  0.00    +0.000 OA
ATOM     29  C   UNL     1      52.316   5.187  18.507  0.00  0.00    +0.000 A 
ATOM     30  H   UNL     1      54.583   3.168  17.240  0.00  0.00    +0.000 HD
ENDBRANCH  17  20
ENDBRANCH   1  16
BRANCH   1  31
ATOM     31  C   UNL     1      48.304   2.351  16.681  0.00  0.00    +0.000 C 
BRANCH  31  32
ATOM     32  N   UNL     1      49.610   1.922  16.153  0.00  0.00    +0.000 NA
ATOM     33  H   UNL     1      49.644   2.103  15.151  0.00  0.00    +0.000 HD
ATOM     34  H   UNL     1      49.713   0.911  16.266  0.00  0.00    +0.000 HD
ENDBRANCH  31  32
ENDBRANCH   1  31
TORSDOF 8
ENDMDL
MODEL 9
REMARK VINA RESULT:    -6.578      3.328      5.188
REMARK INTER + INTRA:         -10.631
REMARK INTER:                  -9.417
REMARK INTRA:                  -1.215
REMARK UNBOUND:                -1.170
REMARK  Name = 
REMARK  8 active torsions:
REMARK  status: ('A' for Active; 'I' for Inactive)
REMARK    1  A    between atoms: N_1  and  C_2
REMARK    2  A    between atoms: C_2  and  C_3
REMARK    3  A    between atoms: C_3  and  N_4
REMARK    4  A    between atoms: C_3  and  C_17
REMARK    5  A    between atoms: C_5  and  C_7
REMARK    6  A    between atoms: C_20  and  O_21
REMARK    7  A    between atoms: O_21  and  C_22
REMARK    8  A    between atoms: C_22  and  C_23
REMARK                            x       y       z     vdW  Elec       q    Type
REMARK                         _______ _______ _______ _____ _____    ______ ____
ROOT
ATOM      1  C   UNL     1      48.436   4.369  17.052  0.00  0.00    +0.000 C 
ENDROOT
BRANCH   1   2
ATOM      2  C   UNL     1      47.873   4.819  15.707  0.00  0.00    +0.000 A 
ATOM      3  N   UNL     1      48.271   6.004  15.200  0.00  0.00    +0.000 NA
ATOM      4  C   UNL     1      47.800   6.318  13.974  0.00  0.00    +0.000 A 
ATOM      5  C   UNL     1      46.970   5.506  13.234  0.00  0.00    +0.000 A 
ATOM      6  C   UNL     1      46.566   4.356  13.876  0.00  0.00    +0.000 A 
ATOM      7  N   UNL     1      46.981   3.999  15.106  0.00  0.00    +0.000 NA
BRANCH   5   8
ATOM      8  O   UNL     1      46.636   5.900  11.976  0.00  0.00    +0.000 OA
BRANCH   8   9
ATOM      9  C   UNL     1      45.261   5.681  11.632  0.00  0.00    +0.000 C 
BRANCH   9  10
ATOM     10  C   UNL     1      45.128   4.673  10.516  0.00  0.00    +0.000 A 
ATOM     11  C   UNL     1      45.519   4.974   9.213  0.00  0.00    +0.000 A 
ATOM     12  C   UNL     1      45.359   4.006   8.225  0.00  0.00    +0.000 A 
ATOM     13  C   UNL     1      44.807   2.776   8.556  0.00  0.00    +0.000 A 
ATOM     14  C   UNL     1      44.427   2.562   9.868  0.00  0.00    +0.000 A 
ATOM     15  N   UNL     1      44.568   3.480  10.848  0.00  0.00    +0.000 NA
ENDBRANCH   9  10
ENDBRANCH   8   9
ENDBRANCH   5   8
ENDBRANCH   1   2
BRANCH   1  16
ATOM     16  N   UNL     1      49.904   4.420  17.010  0.00  0.00    +0.000 N 
ATOM     17  C   UNL     1      50.653   5.296  17.739  0.00  0.00    +0.000 C 
ATOM     18  O   UNL     1      50.156   6.038  18.582  0.00  0.00    +0.000 OA
ATOM     19  H   UNL     1      50.326   3.875  16.262  0.00  0.00    +0.000 HD
BRANCH  17  20
ATOM     20  C   UNL     1      52.102   5.286  17.486  0.00  0.00    +0.000 A 
ATOM     21  C   UNL     1      52.921   4.407  18.183  0.00  0.00    +0.000 A 
ATOM     22  S   UNL     1      54.576   4.562  17.797  0.00  0.00    +0.000 S 
ATOM     23  C   UNL     1      54.262   5.837  16.716  0.00  0.00    +0.000 A 
ATOM     24  N   UNL     1      55.276   6.478  16.072  0.00  0.00    +0.000 NA
ATOM     25  C   UNL     1      54.897   7.450  15.311  0.00  0.00    +0.000 A 
ATOM     26  N   UNL     1      53.594   7.827  15.117  0.00  0.00    +0.000 N 
ATOM     27  C   UNL     1      52.539   7.173  15.700  0.00  0.00    +0.000 A 
ATOM     28  O   UNL     1      51.385   7.475  15.422  0.00  0.00    +0.000 OA
ATOM     29  C   UNL     1      52.910   6.108  16.612  0.00  0.00    +0.000 A 
ATOM     30  H   UNL     1      53.358   8.574  14.482  0.00  0.00    +0.000 HD
ENDBRANCH  17  20
ENDBRANCH   1  16
BRANCH   1  31
ATOM     31  C   UNL     1      47.930   2.936  17.358  0.00  0.00    +0.000 C 
BRANCH  31  32
ATOM     32  N   UNL     1      46.506   2.830  17.717  0.00  0.00    +0.000 NA
ATOM     33  H   UNL     1      46.139   1.940  17.382  0.00  0.00    +0.000 HD
ATOM     34  H   UNL     1      45.973   3.559  17.237  0.00  0.00    +0.000 HD
ENDBRANCH  31  32
ENDBRANCH   1  31
TORSDOF 8
ENDMDL
