MODEL 1
REMARK VINA RESULT:    -8.445      0.000      0.000
REMARK INTER + INTRA:         -13.385
REMARK INTER:                 -12.148
REMARK INTRA:                  -1.237
REMARK UNBOUND:                -1.237
REMARK  Name = 
REMARK  9 active torsions:
REMARK  status: ('A' for Active; 'I' for Inactive)
REMARK    1  A    between atoms: C_1  and  C_2
REMARK    2  A    between atoms: C_2  and  C_3
REMARK    3  A    between atoms: C_2  and  C_26
REMARK    4  A    between atoms: C_3  and  C_4
REMARK    5  A    between atoms: C_7  and  C_8
REMARK    6  A    between atoms: C_8  and  O_9
REMARK    7  A    between atoms: C_8  and  C_10
REMARK    8  A    between atoms: C_10  and  N_11
REMARK    9  A    between atoms: C_12  and  C_14
REMARK                            x       y       z     vdW  Elec       q    Type
REMARK                         _______ _______ _______ _____ _____    ______ ____
ROOT
ATOM      1  C   UNL     1      47.254   5.917  14.216  0.00  0.00    +0.000 C 
ENDROOT
BRANCH   1   5
ATOM      2  C   UNL     1      45.226   4.522  10.645  0.00  0.00    +0.000 A 
ATOM      3  C   UNL     1      45.880   5.754  10.685  0.00  0.00    +0.000 A 
ATOM      4  C   UNL     1      46.540   6.154  11.843  0.00  0.00    +0.000 A 
ATOM      5  C   UNL     1      46.448   5.419  13.033  0.00  0.00    +0.000 A 
ATOM      6  C   UNL     1      45.644   4.267  13.033  0.00  0.00    +0.000 A 
ATOM      7  C   UNL     1      45.055   3.813  11.842  0.00  0.00    +0.000 A 
BRANCH   2   8
ATOM      8  C   UNL     1      44.819   3.931   9.313  0.00  0.00    +0.000 C 
BRANCH   8  10
ATOM      9  C   UNL     1      44.219   1.430   9.014  0.00  0.00    +0.000 C 
ATOM     10  C   UNL     1      45.340   2.479   9.100  0.00  0.00    +0.000 C 
BRANCH  10  11
ATOM     11  C   UNL     1      46.207   2.416   7.858  0.00  0.00    +0.000 A 
ATOM     12  C   UNL     1      46.181   3.420   6.899  0.00  0.00    +0.000 A 
ATOM     13  C   UNL     1      46.964   3.285   5.754  0.00  0.00    +0.000 A 
ATOM     14  C   UNL     1      47.743   2.149   5.637  0.00  0.00    +0.000 A 
ATOM     15  N   UNL     1      47.776   1.196   6.586  0.00  0.00    +0.000 NA
ATOM     16  N   UNL     1      47.004   1.330   7.703  0.00  0.00    +0.000 NA
ENDBRANCH  10  11
ENDBRANCH   8  10
ENDBRANCH   2   8
ENDBRANCH   1   5
BRANCH   1  17
ATOM     17  O   UNL     1      48.625   6.056  13.814  0.00  0.00    +0.000 OA
ATOM     18  H   UNL     1      48.764   6.975  13.536  0.00  0.00    +0.000 HD
ENDBRANCH   1  17
BRANCH   1  19
ATOM     19  C   UNL     1      47.166   5.066  15.493  0.00  0.00    +0.000 C 
BRANCH  19  20
ATOM     20  N   UNL     1      48.474   4.813  16.087  0.00  0.00    +0.000 N 
ATOM     21  C   UNL     1      48.630   4.598  17.438  0.00  0.00    +0.000 C 
ATOM     22  O   UNL     1      47.676   4.625  18.212  0.00  0.00    +0.000 OA
ATOM     23  H   UNL     1      49.282   5.136  15.562  0.00  0.00    +0.000 HD
BRANCH  21  24
ATOM     24  C   UNL     1      49.981   4.249  17.903  0.00  0.00    +0.000 A 
ATOM     25  C   UNL     1      50.688   5.142  18.699  0.00  0.00    +0.000 A 
ATOM     26  S   UNL     1      52.223   4.568  19.175  0.00  0.00    +0.000 S 
ATOM     27  C   UNL     1      52.013   3.122  18.306  0.00  0.00    +0.000 A 
ATOM     28  N   UNL     1      52.987   2.171  18.277  0.00  0.00    +0.000 NA
ATOM     29  C   UNL     1      52.698   1.136  17.560  0.00  0.00    +0.000 A 
ATOM     30  N   UNL     1      51.520   0.957  16.873  0.00  0.00    +0.000 N 
ATOM     31  C   UNL     1      50.507   1.888  16.893  0.00  0.00    +0.000 A 
ATOM     32  O   UNL     1      49.454   1.690  16.299  0.00  0.00    +0.000 OA
ATOM     33  C   UNL     1      50.780   3.067  17.680  0.00  0.00    +0.000 A 
ATOM     34  H   UNL     1      51.353   0.123  16.343  0.00  0.00    +0.000 HD
ENDBRANCH  21  24
ENDBRANCH  19  20
ENDBRANCH   1  19
TORSDOF 8
ENDMDL
MODEL 2
REMARK VINA RESULT:    -8.120      2.291      3.051
REMARK INTER + INTRA:         -12.917
REMARK INTER:                 -11.404
REMARK INTRA:                  -1.513
REMARK UNBOUND:                -1.237
REMARK  Name = 
REMARK  9 active torsions:
REMARK  status: ('A' for Active; 'I' for Inactive)
REMARK    1  A    between atoms: C_1  and  C_2
REMARK    2  A    between atoms: C_2  and  C_3
REMARK    3  A    between atoms: C_2  and  C_26
REMARK    4  A    between atoms: C_3  and  C_4
REMARK    5  A    between atoms: C_7  and  C_8
REMARK    6  A    between atoms: C_8  and  O_9
REMARK    7  A    between atoms: C_8  and  C_10
REMARK    8  A    between atoms: C_10  and  N_11
REMARK    9  A    between atoms: C_12  and  C_14
REMARK                            x       y       z     vdW  Elec       q    Type
REMARK                         _______ _______ _______ _____ _____    ______ ____
ROOT
ATOM      1  C   UNL     1      46.033   8.536  13.224  0.00  0.00    +0.000 C 
ENDROOT
BRANCH   1   5
ATOM      2  C   UNL     1      45.024   5.238  10.593  0.00  0.00    +0.000 A 
ATOM      3  C   UNL     1      44.264   5.535  11.725  0.00  0.00    +0.000 A 
ATOM      4  C   UNL     1      44.607   6.616  12.530  0.00  0.00    +0.000 A 
ATOM      5  C   UNL     1      45.789   7.341  12.322  0.00  0.00    +0.000 A 
ATOM      6  C   UNL     1      46.639   6.928  11.283  0.00  0.00    +0.000 A 
ATOM      7  C   UNL     1      46.248   5.897  10.414  0.00  0.00    +0.000 A 
BRANCH   2   8
ATOM      8  C   UNL     1      44.468   4.307   9.538  0.00  0.00    +0.000 C 
BRANCH   8  10
ATOM      9  C   UNL     1      44.030   1.766   9.777  0.00  0.00    +0.000 C 
ATOM     10  C   UNL     1      45.079   2.876   9.598  0.00  0.00    +0.000 C 
BRANCH  10  11
ATOM     11  C   UNL     1      45.907   2.613   8.355  0.00  0.00    +0.000 A 
ATOM     12  C   UNL     1      46.132   3.603   7.406  0.00  0.00    +0.000 A 
ATOM     13  C   UNL     1      46.861   3.289   6.260  0.00  0.00    +0.000 A 
ATOM     14  C   UNL     1      47.334   1.998   6.131  0.00  0.00    +0.000 A 
ATOM     15  N   UNL     1      47.129   1.056   7.070  0.00  0.00    +0.000 NA
ATOM     16  N   UNL     1      46.411   1.365   8.188  0.00  0.00    +0.000 NA
ENDBRANCH  10  11
ENDBRANCH   8  10
ENDBRANCH   2   8
ENDBRANCH   1   5
BRANCH   1  17
ATOM     17  O   UNL     1      45.643   9.727  12.525  0.00  0.00    +0.000 OA
ATOM     18  H   UNL     1      45.782  10.482  13.118  0.00  0.00    +0.000 HD
ENDBRANCH   1  17
BRANCH   1  19
ATOM     19  C   UNL     1      47.465   8.688  13.760  0.00  0.00    +0.000 C 
BRANCH  19  20
ATOM     20  N   UNL     1      47.773   7.724  14.812  0.00  0.00    +0.000 N 
ATOM     21  C   UNL     1      49.025   7.168  14.944  0.00  0.00    +0.000 C 
ATOM     22  O   UNL     1      49.941   7.442  14.172  0.00  0.00    +0.000 OA
ATOM     23  H   UNL     1      46.985   7.222  15.212  0.00  0.00    +0.000 HD
BRANCH  21  24
ATOM     24  C   UNL     1      49.243   6.291  16.104  0.00  0.00    +0.000 A 
ATOM     25  C   UNL     1      50.274   6.567  16.994  0.00  0.00    +0.000 A 
ATOM     26  S   UNL     1      50.366   5.470  18.298  0.00  0.00    +0.000 S 
ATOM     27  C   UNL     1      49.055   4.566  17.703  0.00  0.00    +0.000 A 
ATOM     28  N   UNL     1      48.616   3.453  18.351  0.00  0.00    +0.000 NA
ATOM     29  C   UNL     1      47.628   2.855  17.772  0.00  0.00    +0.000 A 
ATOM     30  N   UNL     1      47.029   3.271  16.606  0.00  0.00    +0.000 N 
ATOM     31  C   UNL     1      47.434   4.400  15.933  0.00  0.00    +0.000 A 
ATOM     32  O   UNL     1      46.863   4.768  14.913  0.00  0.00    +0.000 OA
ATOM     33  C   UNL     1      48.539   5.106  16.537  0.00  0.00    +0.000 A 
ATOM     34  H   UNL     1      46.256   2.767  16.215  0.00  0.00    +0.000 HD
ENDBRANCH  21  24
ENDBRANCH  19  20
ENDBRANCH   1  19
TORSDOF 8
ENDMDL
MODEL 3
REMARK VINA RESULT:    -7.999      1.582      2.525
REMARK INTER + INTRA:         -12.743
REMARK INTER:                 -11.668
REMARK INTRA:                  -1.075
REMARK UNBOUND:                -1.237
REMARK  Name = 
REMARK  9 active torsions:
REMARK  status: ('A' for Active; 'I' for Inactive)
REMARK    1  A    between atoms: C_1  and  C_2
REMARK    2  A    between atoms: C_2  and  C_3
REMARK    3  A    between atoms: C_2  and  C_26
REMARK    4  A    between atoms: C_3  and  C_4
REMARK    5  A    between atoms: C_7  and  C_8
REMARK    6  A    between atoms: C_8  and  O_9
REMARK    7  A    between atoms: C_8  and  C_10
REMARK    8  A    between atoms: C_10  and  N_11
REMARK    9  A    between atoms: C_12  and  C_14
REMARK                            x       y       z     vdW  Elec       q    Type
REMARK                         _______ _______ _______ _____ _____    ______ ____
ROOT
ATOM      1  C   UNL     1      49.282   7.136  15.137  0.00  0.00    +0.000 C 
ENDROOT
BRANCH   1   5
ATOM      2  C   UNL     1      46.536   6.394  11.862  0.00  0.00    +0.000 A 
ATOM      3  C   UNL     1      46.620   5.537  12.959  0.00  0.00    +0.000 A 
ATOM      4  C   UNL     1      47.496   5.823  14.001  0.00  0.00    +0.000 A 
ATOM      5  C   UNL     1      48.415   6.880  13.919  0.00  0.00    +0.000 A 
ATOM      6  C   UNL     1      48.444   7.635  12.735  0.00  0.00    +0.000 A 
ATOM      7  C   UNL     1      47.497   7.405  11.724  0.00  0.00    +0.000 A 
BRANCH   2   8
ATOM      8  C   UNL     1      45.362   6.289  10.913  0.00  0.00    +0.000 C 
BRANCH   8  10
ATOM      9  C   UNL     1      43.186   4.883  10.924  0.00  0.00    +0.000 C 
ATOM     10  C   UNL     1      44.724   4.868  10.881  0.00  0.00    +0.000 C 
BRANCH  10  11
ATOM     11  C   UNL     1      45.203   4.112   9.658  0.00  0.00    +0.000 A 
ATOM     12  C   UNL     1      45.119   2.728   9.578  0.00  0.00    +0.000 A 
ATOM     13  C   UNL     1      45.620   2.084   8.448  0.00  0.00    +0.000 A 
ATOM     14  C   UNL     1      46.171   2.866   7.451  0.00  0.00    +0.000 A 
ATOM     15  N   UNL     1      46.224   4.207   7.532  0.00  0.00    +0.000 NA
ATOM     16  N   UNL     1      45.736   4.834   8.642  0.00  0.00    +0.000 NA
ENDBRANCH  10  11
ENDBRANCH   8  10
ENDBRANCH   2   8
ENDBRANCH   1   5
BRANCH   1  17
ATOM     17  O   UNL     1      50.657   6.960  14.767  0.00  0.00    +0.000 OA
ATOM     18  H   UNL     1      50.879   6.021  14.874  0.00  0.00    +0.000 HD
ENDBRANCH   1  17
BRANCH   1  19
ATOM     19  C   UNL     1      48.960   6.290  16.378  0.00  0.00    +0.000 C 
BRANCH  19  20
ATOM     20  N   UNL     1      50.141   5.636  16.931  0.00  0.00    +0.000 N 
ATOM     21  C   UNL     1      50.062   4.776  18.002  0.00  0.00    +0.000 C 
ATOM     22  O   UNL     1      48.994   4.528  18.557  0.00  0.00    +0.000 OA
ATOM     23  H   UNL     1      51.036   6.083  16.746  0.00  0.00    +0.000 HD
BRANCH  21  24
ATOM     24  C   UNL     1      51.304   4.098  18.403  0.00  0.00    +0.000 A 
ATOM     25  C   UNL     1      52.215   4.753  19.223  0.00  0.00    +0.000 A 
ATOM     26  S   UNL     1      53.584   3.814  19.615  0.00  0.00    +0.000 S 
ATOM     27  C   UNL     1      53.028   2.511  18.675  0.00  0.00    +0.000 A 
ATOM     28  N   UNL     1      53.754   1.365  18.561  0.00  0.00    +0.000 NA
ATOM     29  C   UNL     1      53.220   0.471  17.797  0.00  0.00    +0.000 A 
ATOM     30  N   UNL     1      52.019   0.610  17.140  0.00  0.00    +0.000 N 
ATOM     31  C   UNL     1      51.250   1.746  17.246  0.00  0.00    +0.000 A 
ATOM     32  O   UNL     1      50.168   1.832  16.677  0.00  0.00    +0.000 OA
ATOM     33  C   UNL     1      51.803   2.780  18.088  0.00  0.00    +0.000 A 
ATOM     34  H   UNL     1      51.654  -0.129  16.571  0.00  0.00    +0.000 HD
ENDBRANCH  21  24
ENDBRANCH  19  20
ENDBRANCH   1  19
TORSDOF 8
ENDMDL
MODEL 4
REMARK VINA RESULT:    -7.986      1.918      3.287
REMARK INTER + INTRA:         -12.724
REMARK INTER:                 -11.384
REMARK INTRA:                  -1.340
REMARK UNBOUND:                -1.237
REMARK  Name = 
REMARK  9 active torsions:
REMARK  status: ('A' for Active; 'I' for Inactive)
REMARK    1  A    between atoms: C_1  and  C_2
REMARK    2  A    between atoms: C_2  and  C_3
REMARK    3  A    between atoms: C_2  and  C_26
REMARK    4  A    between atoms: C_3  and  C_4
REMARK    5  A    between atoms: C_7  and  C_8
REMARK    6  A    between atoms: C_8  and  O_9
REMARK    7  A    between atoms: C_8  and  C_10
REMARK    8  A    between atoms: C_10  and  N_11
REMARK    9  A    between atoms: C_12  and  C_14
REMARK                            x       y       z     vdW  Elec       q    Type
REMARK                         _______ _______ _______ _____ _____    ______ ____
ROOT
ATOM      1  C   UNL     1      47.734   3.594  16.913  0.00  0.00    +0.000 C 
ENDROOT
BRANCH   1   5
ATOM      2  C   UNL     1      46.869   5.444  13.087  0.00  0.00    +0.000 A 
ATOM      3  C   UNL     1      46.665   4.082  13.308  0.00  0.00    +0.000 A 
ATOM      4  C   UNL     1      46.932   3.531  14.557  0.00  0.00    +0.000 A 
ATOM      5  C   UNL     1      47.543   4.278  15.574  0.00  0.00    +0.000 A 
ATOM      6  C   UNL     1      47.905   5.605  15.287  0.00  0.00    +0.000 A 
ATOM      7  C   UNL     1      47.551   6.188  14.060  0.00  0.00    +0.000 A 
BRANCH   2   8
ATOM      8  C   UNL     1      46.261   6.107  11.870  0.00  0.00    +0.000 C 
BRANCH   8  10
ATOM      9  C   UNL     1      43.759   6.465  11.303  0.00  0.00    +0.000 C 
ATOM     10  C   UNL     1      44.916   5.460  11.425  0.00  0.00    +0.000 C 
BRANCH  10  11
ATOM     11  C   UNL     1      45.105   4.722  10.114  0.00  0.00    +0.000 A 
ATOM     12  C   UNL     1      44.576   3.454   9.908  0.00  0.00    +0.000 A 
ATOM     13  C   UNL     1      44.823   2.806   8.699  0.00  0.00    +0.000 A 
ATOM     14  C   UNL     1      45.582   3.470   7.755  0.00  0.00    +0.000 A 
ATOM     15  N   UNL     1      46.068   4.708   7.959  0.00  0.00    +0.000 NA
ATOM     16  N   UNL     1      45.828   5.338   9.146  0.00  0.00    +0.000 NA
ENDBRANCH  10  11
ENDBRANCH   8  10
ENDBRANCH   2   8
ENDBRANCH   1   5
BRANCH   1  17
ATOM     17  O   UNL     1      46.451   3.183  17.407  0.00  0.00    +0.000 OA
ATOM     18  H   UNL     1      45.834   3.160  16.658  0.00  0.00    +0.000 HD
ENDBRANCH   1  17
BRANCH   1  19
ATOM     19  C   UNL     1      48.471   4.413  17.984  0.00  0.00    +0.000 C 
BRANCH  19  20
ATOM     20  N   UNL     1      49.759   3.832  18.346  0.00  0.00    +0.000 N 
ATOM     21  C   UNL     1      50.929   4.217  17.732  0.00  0.00    +0.000 C 
ATOM     22  O   UNL     1      50.944   5.059  16.837  0.00  0.00    +0.000 OA
ATOM     23  H   UNL     1      49.736   2.918  18.792  0.00  0.00    +0.000 HD
BRANCH  21  24
ATOM     24  C   UNL     1      52.175   3.637  18.254  0.00  0.00    +0.000 A 
ATOM     25  C   UNL     1      53.125   4.460  18.846  0.00  0.00    +0.000 A 
ATOM     26  S   UNL     1      54.495   3.622  19.424  0.00  0.00    +0.000 S 
ATOM     27  C   UNL     1      53.885   2.134  18.873  0.00  0.00    +0.000 A 
ATOM     28  N   UNL     1      54.590   0.981  19.037  0.00  0.00    +0.000 NA
ATOM     29  C   UNL     1      54.015  -0.068  18.549  0.00  0.00    +0.000 A 
ATOM     30  N   UNL     1      52.792  -0.075  17.918  0.00  0.00    +0.000 N 
ATOM     31  C   UNL     1      52.044   1.067  17.750  0.00  0.00    +0.000 A 
ATOM     32  O   UNL     1      50.943   1.029  17.214  0.00  0.00    +0.000 OA
ATOM     33  C   UNL     1      52.643   2.270  18.277  0.00  0.00    +0.000 A 
ATOM     34  H   UNL     1      52.395  -0.928  17.572  0.00  0.00    +0.000 HD
ENDBRANCH  21  24
ENDBRANCH  19  20
ENDBRANCH   1  19
TORSDOF 8
ENDMDL
MODEL 5
REMARK VINA RESULT:    -7.877      3.550     10.221
REMARK INTER + INTRA:         -12.567
REMARK INTER:                 -11.112
REMARK INTRA:                  -1.454
REMARK UNBOUND:                -1.237
REMARK  Name = 
REMARK  9 active torsions:
REMARK  status: ('A' for Active; 'I' for Inactive)
REMARK    1  A    between atoms: C_1  and  C_2
REMARK    2  A    between atoms: C_2  and  C_3
REMARK    3  A    between atoms: C_2  and  C_26
REMARK    4  A    between atoms: C_3  and  C_4
REMARK    5  A    between atoms: C_7  and  C_8
REMARK    6  A    between atoms: C_8  and  O_9
REMARK    7  A    between atoms: C_8  and  C_10
REMARK    8  A    between atoms: C_10  and  N_11
REMARK    9  A    between atoms: C_12  and  C_14
REMARK                            x       y       z     vdW  Elec       q    Type
REMARK                         _______ _______ _______ _____ _____    ______ ____
ROOT
ATOM      1  C   UNL     1      48.340   3.604  16.654  0.00  0.00    +0.000 C 
ENDROOT
BRANCH   1   5
ATOM      2  C   UNL     1      52.291   2.273  17.847  0.00  0.00    +0.000 A 
ATOM      3  C   UNL     1      51.335   1.386  17.352  0.00  0.00    +0.000 A 
ATOM      4  C   UNL     1      50.087   1.856  16.957  0.00  0.00    +0.000 A 
ATOM      5  C   UNL     1      49.700   3.186  17.176  0.00  0.00    +0.000 A 
ATOM      6  C   UNL     1      50.606   4.034  17.834  0.00  0.00    +0.000 A 
ATOM      7  C   UNL     1      51.899   3.585  18.147  0.00  0.00    +0.000 A 
BRANCH   2   8
ATOM      8  C   UNL     1      53.739   1.841  17.943  0.00  0.00    +0.000 C 
BRANCH   8  10
ATOM      9  C   UNL     1      55.030   0.317  16.295  0.00  0.00    +0.000 C 
ATOM     10  C   UNL     1      53.984   0.395  17.419  0.00  0.00    +0.000 C 
BRANCH  10  11
ATOM     11  C   UNL     1      54.386  -0.511  18.567  0.00  0.00    +0.000 A 
ATOM     12  C   UNL     1      54.407  -1.893  18.432  0.00  0.00    +0.000 A 
ATOM     13  C   UNL     1      54.738  -2.677  19.536  0.00  0.00    +0.000 A 
ATOM     14  C   UNL     1      55.041  -2.029  20.718  0.00  0.00    +0.000 A 
ATOM     15  N   UNL     1      55.040  -0.688  20.827  0.00  0.00    +0.000 NA
ATOM     16  N   UNL     1      54.711   0.076  19.746  0.00  0.00    +0.000 NA
ENDBRANCH  10  11
ENDBRANCH   8  10
ENDBRANCH   2   8
ENDBRANCH   1   5
BRANCH   1  17
ATOM     17  O   UNL     1      48.018   2.798  15.510  0.00  0.00    +0.000 OA
ATOM     18  H   UNL     1      48.367   3.244  14.722  0.00  0.00    +0.000 HD
ENDBRANCH   1  17
BRANCH   1  19
ATOM     19  C   UNL     1      48.184   5.093  16.307  0.00  0.00    +0.000 C 
BRANCH  19  20
ATOM     20  N   UNL     1      47.168   5.326  15.286  0.00  0.00    +0.000 N 
ATOM     21  C   UNL     1      47.482   5.851  14.054  0.00  0.00    +0.000 C 
ATOM     22  O   UNL     1      48.632   6.165  13.757  0.00  0.00    +0.000 OA
ATOM     23  H   UNL     1      46.209   5.423  15.614  0.00  0.00    +0.000 HD
BRANCH  21  24
ATOM     24  C   UNL     1      46.389   5.942  13.073  0.00  0.00    +0.000 A 
ATOM     25  C   UNL     1      45.973   7.187  12.617  0.00  0.00    +0.000 A 
ATOM     26  S   UNL     1      44.719   7.110  11.462  0.00  0.00    +0.000 S 
ATOM     27  C   UNL     1      44.663   5.413  11.555  0.00  0.00    +0.000 A 
ATOM     28  N   UNL     1      43.773   4.697  10.815  0.00  0.00    +0.000 NA
ATOM     29  C   UNL     1      43.829   3.421  11.004  0.00  0.00    +0.000 A 
ATOM     30  N   UNL     1      44.700   2.788  11.860  0.00  0.00    +0.000 N 
ATOM     31  C   UNL     1      45.624   3.477  12.611  0.00  0.00    +0.000 A 
ATOM     32  O   UNL     1      46.412   2.888  13.342  0.00  0.00    +0.000 OA
ATOM     33  C   UNL     1      45.603   4.910  12.438  0.00  0.00    +0.000 A 
ATOM     34  H   UNL     1      44.700   1.790  11.952  0.00  0.00    +0.000 HD
ENDBRANCH  21  24
ENDBRANCH  19  20
ENDBRANCH   1  19
TORSDOF 8
ENDMDL
MODEL 6
REMARK VINA RESULT:    -7.689      1.918      2.396
REMARK INTER + INTRA:         -12.297
REMARK INTER:                 -11.074
REMARK INTRA:                  -1.223
REMARK UNBOUND:                -1.237
REMARK  Name = 
REMARK  9 active torsions:
REMARK  status: ('A' for Active; 'I' for Inactive)
REMARK    1  A    between atoms: C_1  and  C_2
REMARK    2  A    between atoms: C_2  and  C_3
REMARK    3  A    between atoms: C_2  and  C_26
REMARK    4  A    between atoms: C_3  and  C_4
REMARK    5  A    between atoms: C_7  and  C_8
REMARK    6  A    between atoms: C_8  and  O_9
REMARK    7  A    between atoms: C_8  and  C_10
REMARK    8  A    between atoms: C_10  and  N_11
REMARK    9  A    between atoms: C_12  and  C_14
REMARK                            x       y       z     vdW  Elec       q    Type
REMARK                         _______ _______ _______ _____ _____    ______ ____
ROOT
ATOM      1  C   UNL     1      46.883   6.704  13.699  0.00  0.00    +0.000 C 
ENDROOT
BRANCH   1   5
ATOM      2  C   UNL     1      44.911   4.807  10.333  0.00  0.00    +0.000 A 
ATOM      3  C   UNL     1      45.875   5.799  10.156  0.00  0.00    +0.000 A 
ATOM      4  C   UNL     1      46.502   6.366  11.261  0.00  0.00    +0.000 A 
ATOM      5  C   UNL     1      46.091   6.074  12.569  0.00  0.00    +0.000 A 
ATOM      6  C   UNL     1      45.001   5.204  12.737  0.00  0.00    +0.000 A 
ATOM      7  C   UNL     1      44.430   4.560  11.627  0.00  0.00    +0.000 A 
BRANCH   2   8
ATOM      8  C   UNL     1      44.488   3.952   9.158  0.00  0.00    +0.000 C 
BRANCH   8  10
ATOM      9  C   UNL     1      44.201   1.378   9.118  0.00  0.00    +0.000 C 
ATOM     10  C   UNL     1      45.186   2.560   9.130  0.00  0.00    +0.000 C 
BRANCH  10  11
ATOM     11  C   UNL     1      46.119   2.471   7.939  0.00  0.00    +0.000 A 
ATOM     12  C   UNL     1      46.171   3.472   6.978  0.00  0.00    +0.000 A 
ATOM     13  C   UNL     1      47.014   3.313   5.879  0.00  0.00    +0.000 A 
ATOM     14  C   UNL     1      47.769   2.158   5.808  0.00  0.00    +0.000 A 
ATOM     15  N   UNL     1      47.725   1.208   6.759  0.00  0.00    +0.000 NA
ATOM     16  N   UNL     1      46.896   1.365   7.831  0.00  0.00    +0.000 NA
ENDBRANCH  10  11
ENDBRANCH   8  10
ENDBRANCH   2   8
ENDBRANCH   1   5
BRANCH   1  17
ATOM     17  O   UNL     1      47.372   7.981  13.261  0.00  0.00    +0.000 OA
ATOM     18  H   UNL     1      46.884   8.230  12.460  0.00  0.00    +0.000 HD
ENDBRANCH   1  17
BRANCH   1  19
ATOM     19  C   UNL     1      48.040   5.862  14.256  0.00  0.00    +0.000 C 
BRANCH  19  20
ATOM     20  N   UNL     1      48.172   5.979  15.704  0.00  0.00    +0.000 N 
ATOM     21  C   UNL     1      47.614   5.059  16.562  0.00  0.00    +0.000 C 
ATOM     22  O   UNL     1      46.964   4.101  16.151  0.00  0.00    +0.000 OA
ATOM     23  H   UNL     1      48.371   6.908  16.068  0.00  0.00    +0.000 HD
BRANCH  21  24
ATOM     24  C   UNL     1      47.903   5.226  17.994  0.00  0.00    +0.000 A 
ATOM     25  C   UNL     1      46.924   5.732  18.841  0.00  0.00    +0.000 A 
ATOM     26  S   UNL     1      47.415   5.832  20.473  0.00  0.00    +0.000 S 
ATOM     27  C   UNL     1      48.963   5.237  20.101  0.00  0.00    +0.000 A 
ATOM     28  N   UNL     1      49.911   5.088  21.068  0.00  0.00    +0.000 NA
ATOM     29  C   UNL     1      51.046   4.649  20.637  0.00  0.00    +0.000 A 
ATOM     30  N   UNL     1      51.323   4.333  19.327  0.00  0.00    +0.000 N 
ATOM     31  C   UNL     1      50.387   4.454  18.327  0.00  0.00    +0.000 A 
ATOM     32  O   UNL     1      50.648   4.135  17.173  0.00  0.00    +0.000 OA
ATOM     33  C   UNL     1      49.098   4.944  18.755  0.00  0.00    +0.000 A 
ATOM     34  H   UNL     1      52.224   3.984  19.060  0.00  0.00    +0.000 HD
ENDBRANCH  21  24
ENDBRANCH  19  20
ENDBRANCH   1  19
TORSDOF 8
ENDMDL
MODEL 7
REMARK VINA RESULT:    -7.503      2.556      3.687
REMARK INTER + INTRA:         -12.029
REMARK INTER:                 -10.468
REMARK INTRA:                  -1.561
REMARK UNBOUND:                -1.237
REMARK  Name = 
REMARK  9 active torsions:
REMARK  status: ('A' for Active; 'I' for Inactive)
REMARK    1  A    between atoms: C_1  and  C_2
REMARK    2  A    between atoms: C_2  and  C_3
REMARK    3  A    between atoms: C_2  and  C_26
REMARK    4  A    between atoms: C_3  and  C_4
REMARK    5  A    between atoms: C_7  and  C_8
REMARK    6  A    between atoms: C_8  and  O_9
REMARK    7  A    between atoms: C_8  and  C_10
REMARK    8  A    between atoms: C_10  and  N_11
REMARK    9  A    between atoms: C_12  and  C_14
REMARK                            x       y       z     vdW  Elec       q    Type
REMARK                         _______ _______ _______ _____ _____    ______ ____
ROOT
ATOM      1  C   UNL     1      48.490   9.561  13.558  0.00  0.00    +0.000 C 
ENDROOT
BRANCH   1   5
ATOM      2  C   UNL     1      45.710   6.773  11.738  0.00  0.00    +0.000 A 
ATOM      3  C   UNL     1      45.324   7.626  12.773  0.00  0.00    +0.000 A 
ATOM      4  C   UNL     1      46.240   8.523  13.314  0.00  0.00    +0.000 A 
ATOM      5  C   UNL     1      47.594   8.500  12.949  0.00  0.00    +0.000 A 
ATOM      6  C   UNL     1      48.011   7.522  12.032  0.00  0.00    +0.000 A 
ATOM      7  C   UNL     1      47.071   6.679  11.417  0.00  0.00    +0.000 A 
BRANCH   2   8
ATOM      8  C   UNL     1      44.655   6.061  10.920  0.00  0.00    +0.000 C 
BRANCH   8  10
ATOM      9  C   UNL     1      43.420   3.844  11.439  0.00  0.00    +0.000 C 
ATOM     10  C   UNL     1      44.743   4.509  11.022  0.00  0.00    +0.000 C 
BRANCH  10  11
ATOM     11  C   UNL     1      45.223   3.929   9.706  0.00  0.00    +0.000 A 
ATOM     12  C   UNL     1      45.259   2.558   9.483  0.00  0.00    +0.000 A 
ATOM     13  C   UNL     1      45.756   2.082   8.272  0.00  0.00    +0.000 A 
ATOM     14  C   UNL     1      46.184   3.009   7.342  0.00  0.00    +0.000 A 
ATOM     15  N   UNL     1      46.122   4.335   7.562  0.00  0.00    +0.000 NA
ATOM     16  N   UNL     1      45.639   4.798   8.751  0.00  0.00    +0.000 NA
ENDBRANCH  10  11
ENDBRANCH   8  10
ENDBRANCH   2   8
ENDBRANCH   1   5
BRANCH   1  17
ATOM     17  O   UNL     1      48.873  10.486  12.530  0.00  0.00    +0.000 OA
ATOM     18  H   UNL     1      48.719  11.384  12.862  0.00  0.00    +0.000 HD
ENDBRANCH   1  17
BRANCH   1  19
ATOM     19  C   UNL     1      49.739   9.043  14.289  0.00  0.00    +0.000 C 
BRANCH  19  20
ATOM     20  N   UNL     1      49.426   8.000  15.261  0.00  0.00    +0.000 N 
ATOM     21  C   UNL     1      50.391   7.151  15.752  0.00  0.00    +0.000 C 
ATOM     22  O   UNL     1      51.562   7.217  15.383  0.00  0.00    +0.000 OA
ATOM     23  H   UNL     1      48.457   7.693  15.301  0.00  0.00    +0.000 HD
BRANCH  21  24
ATOM     24  C   UNL     1      49.975   6.211  16.804  0.00  0.00    +0.000 A 
ATOM     25  C   UNL     1      50.647   6.195  18.020  0.00  0.00    +0.000 A 
ATOM     26  S   UNL     1      50.018   5.068  19.137  0.00  0.00    +0.000 S 
ATOM     27  C   UNL     1      48.847   4.537  18.024  0.00  0.00    +0.000 A 
ATOM     28  N   UNL     1      47.970   3.546  18.345  0.00  0.00    +0.000 NA
ATOM     29  C   UNL     1      47.155   3.230  17.395  0.00  0.00    +0.000 A 
ATOM     30  N   UNL     1      47.126   3.818  16.152  0.00  0.00    +0.000 N 
ATOM     31  C   UNL     1      47.985   4.832  15.798  0.00  0.00    +0.000 A 
ATOM     32  O   UNL     1      47.917   5.362  14.695  0.00  0.00    +0.000 OA
ATOM     33  C   UNL     1      48.921   5.224  16.825  0.00  0.00    +0.000 A 
ATOM     34  H   UNL     1      46.457   3.534  15.462  0.00  0.00    +0.000 HD
ENDBRANCH  21  24
ENDBRANCH  19  20
ENDBRANCH   1  19
TORSDOF 8
ENDMDL
MODEL 8
REMARK VINA RESULT:    -7.489      2.639      3.904
REMARK INTER + INTRA:         -12.010
REMARK INTER:                 -10.787
REMARK INTRA:                  -1.222
REMARK UNBOUND:                -1.237
REMARK  Name = 
REMARK  9 active torsions:
REMARK  status: ('A' for Active; 'I' for Inactive)
REMARK    1  A    between atoms: C_1  and  C_2
REMARK    2  A    between atoms: C_2  and  C_3
REMARK    3  A    between atoms: C_2  and  C_26
REMARK    4  A    between atoms: C_3  and  C_4
REMARK    5  A    between atoms: C_7  and  C_8
REMARK    6  A    between atoms: C_8  and  O_9
REMARK    7  A    between atoms: C_8  and  C_10
REMARK    8  A    between atoms: C_10  and  N_11
REMARK    9  A    between atoms: C_12  and  C_14
REMARK                            x       y       z     vdW  Elec       q    Type
REMARK                         _______ _______ _______ _____ _____    ______ ____
ROOT
ATOM      1  C   UNL     1      47.276   6.601  13.703  0.00  0.00    +0.000 C 
ENDROOT
BRANCH   1   5
ATOM      2  C   UNL     1      45.094   4.707  10.468  0.00  0.00    +0.000 A 
ATOM      3  C   UNL     1      45.691   5.959  10.318  0.00  0.00    +0.000 A 
ATOM      4  C   UNL     1      46.403   6.522  11.372  0.00  0.00    +0.000 A 
ATOM      5  C   UNL     1      46.421   5.932  12.644  0.00  0.00    +0.000 A 
ATOM      6  C   UNL     1      45.673   4.759  12.835  0.00  0.00    +0.000 A 
ATOM      7  C   UNL     1      45.032   4.141  11.749  0.00  0.00    +0.000 A 
BRANCH   2   8
ATOM      8  C   UNL     1      44.632   3.944   9.246  0.00  0.00    +0.000 C 
BRANCH   8  10
ATOM      9  C   UNL     1      44.223   1.392   9.082  0.00  0.00    +0.000 C 
ATOM     10  C   UNL     1      45.262   2.524   9.133  0.00  0.00    +0.000 C 
BRANCH  10  11
ATOM     11  C   UNL     1      46.167   2.454   7.919  0.00  0.00    +0.000 A 
ATOM     12  C   UNL     1      46.160   3.445   6.945  0.00  0.00    +0.000 A 
ATOM     13  C   UNL     1      46.979   3.303   5.827  0.00  0.00    +0.000 A 
ATOM     14  C   UNL     1      47.772   2.174   5.749  0.00  0.00    +0.000 A 
ATOM     15  N   UNL     1      47.786   1.234   6.711  0.00  0.00    +0.000 NA
ATOM     16  N   UNL     1      46.979   1.374   7.802  0.00  0.00    +0.000 NA
ENDBRANCH  10  11
ENDBRANCH   8  10
ENDBRANCH   2   8
ENDBRANCH   1   5
BRANCH   1  17
ATOM     17  O   UNL     1      48.140   7.552  13.063  0.00  0.00    +0.000 OA
ATOM     18  H   UNL     1      47.625   8.356  12.888  0.00  0.00    +0.000 HD
ENDBRANCH   1  17
BRANCH   1  19
ATOM     19  C   UNL     1      48.102   5.658  14.591  0.00  0.00    +0.000 C 
BRANCH  19  20
ATOM     20  N   UNL     1      47.874   5.887  16.014  0.00  0.00    +0.000 N 
ATOM     21  C   UNL     1      48.743   5.421  16.974  0.00  0.00    +0.000 C 
ATOM     22  O   UNL     1      49.746   4.774  16.680  0.00  0.00    +0.000 OA
ATOM     23  H   UNL     1      46.917   6.083  16.295  0.00  0.00    +0.000 HD
BRANCH  21  24
ATOM     24  C   UNL     1      48.464   5.806  18.366  0.00  0.00    +0.000 A 
ATOM     25  C   UNL     1      48.480   4.840  19.365  0.00  0.00    +0.000 A 
ATOM     26  S   UNL     1      48.165   5.461  20.923  0.00  0.00    +0.000 S 
ATOM     27  C   UNL     1      47.962   7.036  20.315  0.00  0.00    +0.000 A 
ATOM     28  N   UNL     1      47.650   8.073  21.139  0.00  0.00    +0.000 NA
ATOM     29  C   UNL     1      47.503   9.205  20.536  0.00  0.00    +0.000 A 
ATOM     30  N   UNL     1      47.648   9.403  19.182  0.00  0.00    +0.000 N 
ATOM     31  C   UNL     1      47.979   8.382  18.321  0.00  0.00    +0.000 A 
ATOM     32  O   UNL     1      48.134   8.590  17.123  0.00  0.00    +0.000 OA
ATOM     33  C   UNL     1      48.153   7.092  18.945  0.00  0.00    +0.000 A 
ATOM     34  H   UNL     1      47.532  10.312  18.778  0.00  0.00    +0.000 HD
ENDBRANCH  21  24
ENDBRANCH  19  20
ENDBRANCH   1  19
TORSDOF 8
ENDMDL
MODEL 9
REMARK VINA RESULT:    -7.009      4.348      6.671
REMARK INTER + INTRA:         -11.318
REMARK INTER:                  -8.801
REMARK INTRA:                  -2.517
REMARK UNBOUND:                -1.237
REMARK  Name = 
REMARK  9 active torsions:
REMARK  status: ('A' for Active; 'I' for Inactive)
REMARK    1  A    between atoms: C_1  and  C_2
REMARK    2  A    between atoms: C_2  and  C_3
REMARK    3  A    between atoms: C_2  and  C_26
REMARK    4  A    between atoms: C_3  and  C_4
REMARK    5  A    between atoms: C_7  and  C_8
REMARK    6  A    between atoms: C_8  and  O_9
REMARK    7  A    between atoms: C_8  and  C_10
REMARK    8  A    between atoms: C_10  and  N_11
REMARK    9  A    between atoms: C_12  and  C_14
REMARK                            x       y       z     vdW  Elec       q    Type
REMARK                         _______ _______ _______ _____ _____    ______ ____
ROOT
ATOM      1  C   UNL     1      45.058   5.688  12.535  0.00  0.00    +0.000 C 
ENDROOT
BRANCH   1   5
ATOM      2  C   UNL     1      47.896   8.942  12.124  0.00  0.00    +0.000 A 
ATOM      3  C   UNL     1      46.667   9.114  12.762  0.00  0.00    +0.000 A 
ATOM      4  C   UNL     1      45.795   8.039  12.895  0.00  0.00    +0.000 A 
ATOM      5  C   UNL     1      46.048   6.807  12.275  0.00  0.00    +0.000 A 
ATOM      6  C   UNL     1      47.205   6.693  11.488  0.00  0.00    +0.000 A 
ATOM      7  C   UNL     1      48.131   7.747  11.431  0.00  0.00    +0.000 A 
BRANCH   2   8
ATOM      8  C   UNL     1      48.978   9.988  12.283  0.00  0.00    +0.000 C 
BRANCH   8  10
ATOM      9  C   UNL     1      50.787  10.835  10.635  0.00  0.00    +0.000 C 
ATOM     10  C   UNL     1      50.272   9.659  11.482  0.00  0.00    +0.000 C 
BRANCH  10  11
ATOM     11  C   UNL     1      51.359   9.182  12.425  0.00  0.00    +0.000 A 
ATOM     12  C   UNL     1      52.583   8.722  11.955  0.00  0.00    +0.000 A 
ATOM     13  C   UNL     1      53.525   8.251  12.867  0.00  0.00    +0.000 A 
ATOM     14  C   UNL     1      53.193   8.276  14.208  0.00  0.00    +0.000 A 
ATOM     15  N   UNL     1      52.013   8.747  14.651  0.00  0.00    +0.000 NA
ATOM     16  N   UNL     1      51.091   9.203  13.754  0.00  0.00    +0.000 NA
ENDBRANCH  10  11
ENDBRANCH   8  10
ENDBRANCH   2   8
ENDBRANCH   1   5
BRANCH   1  17
ATOM     17  O   UNL     1      43.943   6.220  13.266  0.00  0.00    +0.000 OA
ATOM     18  H   UNL     1      44.224   7.052  13.678  0.00  0.00    +0.000 HD
ENDBRANCH   1  17
BRANCH   1  19
ATOM     19  C   UNL     1      45.618   4.453  13.258  0.00  0.00    +0.000 C 
BRANCH  19  20
ATOM     20  N   UNL     1      46.207   4.782  14.552  0.00  0.00    +0.000 N 
ATOM     21  C   UNL     1      47.158   3.982  15.143  0.00  0.00    +0.000 C 
ATOM     22  O   UNL     1      47.547   2.942  14.617  0.00  0.00    +0.000 OA
ATOM     23  H   UNL     1      45.667   5.400  15.152  0.00  0.00    +0.000 HD
BRANCH  21  24
ATOM     24  C   UNL     1      47.753   4.471  16.396  0.00  0.00    +0.000 A 
ATOM     25  C   UNL     1      47.489   3.810  17.589  0.00  0.00    +0.000 A 
ATOM     26  S   UNL     1      48.281   4.491  18.939  0.00  0.00    +0.000 S 
ATOM     27  C   UNL     1      48.976   5.714  17.984  0.00  0.00    +0.000 A 
ATOM     28  N   UNL     1      49.775   6.668  18.536  0.00  0.00    +0.000 NA
ATOM     29  C   UNL     1      50.213   7.545  17.696  0.00  0.00    +0.000 A 
ATOM     30  N   UNL     1      49.934   7.555  16.348  0.00  0.00    +0.000 N 
ATOM     31  C   UNL     1      49.145   6.598  15.754  0.00  0.00    +0.000 A 
ATOM     32  O   UNL     1      48.939   6.610  14.546  0.00  0.00    +0.000 OA
ATOM     33  C   UNL     1      48.627   5.593  16.650  0.00  0.00    +0.000 A 
ATOM     34  H   UNL     1      50.317   8.259  15.747  0.00  0.00    +0.000 HD
ENDBRANCH  21  24
ENDBRANCH  19  20
ENDBRANCH   1  19
TORSDOF 8
ENDMDL
