MODEL 1
REMARK VINA RESULT:    -7.459      0.000      0.000
REMARK INTER + INTRA:          -9.787
REMARK INTER:                  -9.421
REMARK INTRA:                  -0.366
REMARK UNBOUND:                -0.366
REMARK  Name = 
REMARK  5 active torsions:
REMARK  status: ('A' for Active; 'I' for Inactive)
REMARK    1  A    between atoms: N_1  and  C_2
REMARK    2  A    between atoms: C_2  and  C_3
REMARK    3  A    between atoms: N_7  and  C_8
REMARK    4  A    between atoms: C_8  and  C_9
REMARK    5  A    between atoms: C_9  and  C_10
REMARK                            x       y       z     vdW  Elec       q    Type
REMARK                         _______ _______ _______ _____ _____    ______ ____
ROOT
ATOM      1  C   UNL     1      46.585   2.187   7.637  0.00  0.00    +0.000 A 
ATOM      2  C   UNL     1      45.671   1.787   8.584  0.00  0.00    +0.000 A 
ATOM      3  N   UNL     1      44.795   2.617   9.181  0.00  0.00    +0.000 NA
ATOM      4  C   UNL     1      44.827   3.907   8.821  0.00  0.00    +0.000 A 
ATOM      5  N   UNL     1      43.968   4.819   9.427  0.00  0.00    +0.000 N 
ATOM      6  N   UNL     1      45.679   4.404   7.915  0.00  0.00    +0.000 NA
ATOM      7  C   UNL     1      46.534   3.530   7.337  0.00  0.00    +0.000 A 
ATOM      8  H   UNL     1      44.390   5.730   9.285  0.00  0.00    +0.000 HD
ENDROOT
BRANCH   1   9
ATOM      9  C   UNL     1      47.567   1.244   7.026  0.00  0.00    +0.000 C 
BRANCH   9  10
ATOM     10  N   UNL     1      48.337   1.878   5.962  0.00  0.00    +0.000 NA
ATOM     11  H   UNL     1      47.993   1.558   5.058  0.00  0.00    +0.000 HD
ATOM     12  H   UNL     1      49.309   1.577   6.019  0.00  0.00    +0.000 HD
ENDBRANCH   9  10
ENDBRANCH   1   9
BRANCH   5  13
ATOM     13  C   UNL     1      43.636   4.466  10.802  0.00  0.00    +0.000 C 
BRANCH  13  14
ATOM     14  C   UNL     1      43.881   5.654  11.737  0.00  0.00    +0.000 C 
BRANCH  14  15
ATOM     15  C   UNL     1      45.260   5.614  12.348  0.00  0.00    +0.000 A 
ATOM     16  C   UNL     1      45.541   4.773  13.429  0.00  0.00    +0.000 A 
ATOM     17  C   UNL     1      46.819   4.783  13.967  0.00  0.00    +0.000 A 
ATOM     18  N   UNL     1      47.821   5.563  13.512  0.00  0.00    +0.000 NA
ATOM     19  C   UNL     1      47.530   6.375  12.473  0.00  0.00    +0.000 A 
ATOM     20  C   UNL     1      46.283   6.439  11.869  0.00  0.00    +0.000 A 
ENDBRANCH  14  15
ENDBRANCH  13  14
ENDBRANCH   5  13
TORSDOF 5
ENDMDL
MODEL 2
REMARK VINA RESULT:    -7.093      1.626      5.961
REMARK INTER + INTRA:          -9.325
REMARK INTER:                  -8.976
REMARK INTRA:                  -0.348
REMARK UNBOUND:                -0.366
REMARK  Name = 
REMARK  5 active torsions:
REMARK  status: ('A' for Active; 'I' for Inactive)
REMARK    1  A    between atoms: N_1  and  C_2
REMARK    2  A    between atoms: C_2  and  C_3
REMARK    3  A    between atoms: N_7  and  C_8
REMARK    4  A    between atoms: C_8  and  C_9
REMARK    5  A    between atoms: C_9  and  C_10
REMARK                            x       y       z     vdW  Elec       q    Type
REMARK                         _______ _______ _______ _____ _____    ______ ____
ROOT
ATOM      1  C   UNL     1      47.044   5.506  13.392  0.00  0.00    +0.000 A 
ATOM      2  C   UNL     1      46.241   5.894  12.344  0.00  0.00    +0.000 A 
ATOM      3  N   UNL     1      45.364   5.080  11.727  0.00  0.00    +0.000 NA
ATOM      4  C   UNL     1      45.278   3.819  12.172  0.00  0.00    +0.000 A 
ATOM      5  N   UNL     1      44.412   2.921  11.554  0.00  0.00    +0.000 N 
ATOM      6  N   UNL     1      46.016   3.335  13.181  0.00  0.00    +0.000 NA
ATOM      7  C   UNL     1      46.877   4.193  13.773  0.00  0.00    +0.000 A 
ATOM      8  H   UNL     1      44.759   1.998  11.792  0.00  0.00    +0.000 HD
ENDROOT
BRANCH   1   9
ATOM      9  C   UNL     1      48.033   6.427  14.023  0.00  0.00    +0.000 C 
BRANCH   9  10
ATOM     10  N   UNL     1      49.217   6.604  13.191  0.00  0.00    +0.000 NA
ATOM     11  H   UNL     1      49.010   7.262  12.441  0.00  0.00    +0.000 HD
ATOM     12  H   UNL     1      49.450   5.721  12.739  0.00  0.00    +0.000 HD
ENDBRANCH   9  10
ENDBRANCH   1   9
BRANCH   5  13
ATOM     13  C   UNL     1      44.221   3.196  10.136  0.00  0.00    +0.000 C 
BRANCH  13  14
ATOM     14  C   UNL     1      44.547   1.956   9.298  0.00  0.00    +0.000 C 
BRANCH  14  15
ATOM     15  C   UNL     1      45.678   2.211   8.332  0.00  0.00    +0.000 A 
ATOM     16  C   UNL     1      46.532   1.176   7.939  0.00  0.00    +0.000 A 
ATOM     17  C   UNL     1      47.566   1.463   7.061  0.00  0.00    +0.000 A 
ATOM     18  N   UNL     1      47.809   2.691   6.558  0.00  0.00    +0.000 NA
ATOM     19  C   UNL     1      46.980   3.680   6.955  0.00  0.00    +0.000 A 
ATOM     20  C   UNL     1      45.919   3.494   7.830  0.00  0.00    +0.000 A 
ENDBRANCH  14  15
ENDBRANCH  13  14
ENDBRANCH   5  13
TORSDOF 5
ENDMDL
MODEL 3
REMARK VINA RESULT:    -6.724      1.906      6.285
REMARK INTER + INTRA:          -8.859
REMARK INTER:                  -8.833
REMARK INTRA:                  -0.026
REMARK UNBOUND:                -0.366
REMARK  Name = 
REMARK  5 active torsions:
REMARK  status: ('A' for Active; 'I' for Inactive)
REMARK    1  A    between atoms: N_1  and  C_2
REMARK    2  A    between atoms: C_2  and  C_3
REMARK    3  A    between atoms: N_7  and  C_8
REMARK    4  A    between atoms: C_8  and  C_9
REMARK    5  A    between atoms: C_9  and  C_10
REMARK                            x       y       z     vdW  Elec       q    Type
REMARK                         _______ _______ _______ _____ _____    ______ ____
ROOT
ATOM      1  C   UNL     1      45.508   7.441  12.324  0.00  0.00    +0.000 A 
ATOM      2  C   UNL     1      44.475   7.104  11.480  0.00  0.00    +0.000 A 
ATOM      3  N   UNL     1      44.229   5.851  11.056  0.00  0.00    +0.000 NA
ATOM      4  C   UNL     1      45.047   4.883  11.490  0.00  0.00    +0.000 A 
ATOM      5  N   UNL     1      44.862   3.572  11.060  0.00  0.00    +0.000 N 
ATOM      6  N   UNL     1      46.086   5.100  12.308  0.00  0.00    +0.000 NA
ATOM      7  C   UNL     1      46.287   6.374  12.713  0.00  0.00    +0.000 A 
ATOM      8  H   UNL     1      45.753   3.108  11.204  0.00  0.00    +0.000 HD
ENDROOT
BRANCH   1   9
ATOM      9  C   UNL     1      45.773   8.849  12.741  0.00  0.00    +0.000 C 
BRANCH   9  10
ATOM     10  N   UNL     1      44.563   9.661  12.709  0.00  0.00    +0.000 NA
ATOM     11  H   UNL     1      44.456  10.074  11.783  0.00  0.00    +0.000 HD
ATOM     12  H   UNL     1      44.658  10.440  13.359  0.00  0.00    +0.000 HD
ENDBRANCH   9  10
ENDBRANCH   1   9
BRANCH   5  13
ATOM     13  C   UNL     1      44.295   3.484   9.721  0.00  0.00    +0.000 C 
BRANCH  13  14
ATOM     14  C   UNL     1      45.248   4.097   8.690  0.00  0.00    +0.000 C 
BRANCH  14  15
ATOM     15  C   UNL     1      46.088   3.046   8.005  0.00  0.00    +0.000 A 
ATOM     16  C   UNL     1      45.954   1.695   8.336  0.00  0.00    +0.000 A 
ATOM     17  C   UNL     1      46.759   0.768   7.690  0.00  0.00    +0.000 A 
ATOM     18  N   UNL     1      47.678   1.089   6.756  0.00  0.00    +0.000 NA
ATOM     19  C   UNL     1      47.800   2.400   6.456  0.00  0.00    +0.000 A 
ATOM     20  C   UNL     1      47.043   3.401   7.046  0.00  0.00    +0.000 A 
ENDBRANCH  14  15
ENDBRANCH  13  14
ENDBRANCH   5  13
TORSDOF 5
ENDMDL
MODEL 4
REMARK VINA RESULT:    -6.357      1.595      6.023
REMARK INTER + INTRA:          -8.394
REMARK INTER:                  -8.051
REMARK INTRA:                  -0.344
REMARK UNBOUND:                -0.366
REMARK  Name = 
REMARK  5 active torsions:
REMARK  status: ('A' for Active; 'I' for Inactive)
REMARK    1  A    between atoms: N_1  and  C_2
REMARK    2  A    between atoms: C_2  and  C_3
REMARK    3  A    between atoms: N_7  and  C_8
REMARK    4  A    between atoms: C_8  and  C_9
REMARK    5  A    between atoms: C_9  and  C_10
REMARK                            x       y       z     vdW  Elec       q    Type
REMARK                         _______ _______ _______ _____ _____    ______ ____
ROOT
ATOM      1  C   UNL     1      46.572   4.774  13.942  0.00  0.00    +0.000 A 
ATOM      2  C   UNL     1      46.466   3.710  13.077  0.00  0.00    +0.000 A 
ATOM      3  N   UNL     1      46.002   3.808  11.817  0.00  0.00    +0.000 NA
ATOM      4  C   UNL     1      45.626   5.022  11.394  0.00  0.00    +0.000 A 
ATOM      5  N   UNL     1      45.109   5.181  10.111  0.00  0.00    +0.000 N 
ATOM      6  N   UNL     1      45.682   6.124  12.154  0.00  0.00    +0.000 NA
ATOM      7  C   UNL     1      46.162   5.976  13.409  0.00  0.00    +0.000 A 
ATOM      8  H   UNL     1      44.581   6.047  10.134  0.00  0.00    +0.000 HD
ENDROOT
BRANCH   1   9
ATOM      9  C   UNL     1      47.053   4.618  15.346  0.00  0.00    +0.000 C 
BRANCH   9  10
ATOM     10  N   UNL     1      47.533   3.267  15.608  0.00  0.00    +0.000 NA
ATOM     11  H   UNL     1      47.245   2.979  16.542  0.00  0.00    +0.000 HD
ATOM     12  H   UNL     1      48.552   3.262  15.610  0.00  0.00    +0.000 HD
ENDBRANCH   9  10
ENDBRANCH   1   9
BRANCH   5  13
ATOM     13  C   UNL     1      44.400   4.002   9.630  0.00  0.00    +0.000 C 
BRANCH  13  14
ATOM     14  C   UNL     1      44.520   3.885   8.108  0.00  0.00    +0.000 C 
BRANCH  14  15
ATOM     15  C   UNL     1      45.637   2.956   7.701  0.00  0.00    +0.000 A 
ATOM     16  C   UNL     1      45.754   1.684   8.270  0.00  0.00    +0.000 A 
ATOM     17  C   UNL     1      46.807   0.872   7.875  0.00  0.00    +0.000 A 
ATOM     18  N   UNL     1      47.740   1.235   6.971  0.00  0.00    +0.000 NA
ATOM     19  C   UNL     1      47.617   2.469   6.439  0.00  0.00    +0.000 A 
ATOM     20  C   UNL     1      46.601   3.355   6.769  0.00  0.00    +0.000 A 
ENDBRANCH  14  15
ENDBRANCH  13  14
ENDBRANCH   5  13
TORSDOF 5
ENDMDL
MODEL 5
REMARK VINA RESULT:    -5.849      1.312      6.109
REMARK INTER + INTRA:          -7.754
REMARK INTER:                  -8.190
REMARK INTRA:                   0.437
REMARK UNBOUND:                -0.366
REMARK  Name = 
REMARK  5 active torsions:
REMARK  status: ('A' for Active; 'I' for Inactive)
REMARK    1  A    between atoms: N_1  and  C_2
REMARK    2  A    between atoms: C_2  and  C_3
REMARK    3  A    between atoms: N_7  and  C_8
REMARK    4  A    between atoms: C_8  and  C_9
REMARK    5  A    between atoms: C_9  and  C_10
REMARK                            x       y       z     vdW  Elec       q    Type
REMARK                         _______ _______ _______ _____ _____    ______ ____
ROOT
ATOM      1  C   UNL     1      46.111   5.045  12.891  0.00  0.00    +0.000 A 
ATOM      2  C   UNL     1      45.726   5.796  11.804  0.00  0.00    +0.000 A 
ATOM      3  N   UNL     1      44.997   5.317  10.779  0.00  0.00    +0.000 NA
ATOM      4  C   UNL     1      44.632   4.029  10.834  0.00  0.00    +0.000 A 
ATOM      5  N   UNL     1      43.904   3.468   9.788  0.00  0.00    +0.000 N 
ATOM      6  N   UNL     1      44.957   3.207  11.841  0.00  0.00    +0.000 NA
ATOM      7  C   UNL     1      45.683   3.737  12.851  0.00  0.00    +0.000 A 
ATOM      8  H   UNL     1      44.050   2.467   9.859  0.00  0.00    +0.000 HD
ENDROOT
BRANCH   1   9
ATOM      9  C   UNL     1      46.954   5.602  13.989  0.00  0.00    +0.000 C 
BRANCH   9  10
ATOM     10  N   UNL     1      46.965   4.731  15.158  0.00  0.00    +0.000 NA
ATOM     11  H   UNL     1      46.517   3.846  14.926  0.00  0.00    +0.000 HD
ATOM     12  H   UNL     1      46.405   5.149  15.899  0.00  0.00    +0.000 HD
ENDBRANCH   9  10
ENDBRANCH   1   9
BRANCH   5  13
ATOM     13  C   UNL     1      44.198   4.075   8.496  0.00  0.00    +0.000 C 
BRANCH  13  14
ATOM     14  C   UNL     1      45.701   4.335   8.352  0.00  0.00    +0.000 C 
BRANCH  14  15
ATOM     15  C   UNL     1      46.392   3.234   7.587  0.00  0.00    +0.000 A 
ATOM     16  C   UNL     1      47.000   3.490   6.354  0.00  0.00    +0.000 A 
ATOM     17  C   UNL     1      47.609   2.442   5.681  0.00  0.00    +0.000 A 
ATOM     18  N   UNL     1      47.650   1.174   6.140  0.00  0.00    +0.000 NA
ATOM     19  C   UNL     1      47.049   0.943   7.327  0.00  0.00    +0.000 A 
ATOM     20  C   UNL     1      46.414   1.923   8.075  0.00  0.00    +0.000 A 
ENDBRANCH  14  15
ENDBRANCH  13  14
ENDBRANCH   5  13
TORSDOF 5
ENDMDL
MODEL 6
REMARK VINA RESULT:    -5.716      4.111      7.967
REMARK INTER + INTRA:          -7.586
REMARK INTER:                  -7.318
REMARK INTRA:                  -0.268
REMARK UNBOUND:                -0.366
REMARK  Name = 
REMARK  5 active torsions:
REMARK  status: ('A' for Active; 'I' for Inactive)
REMARK    1  A    between atoms: N_1  and  C_2
REMARK    2  A    between atoms: C_2  and  C_3
REMARK    3  A    between atoms: N_7  and  C_8
REMARK    4  A    between atoms: C_8  and  C_9
REMARK    5  A    between atoms: C_9  and  C_10
REMARK                            x       y       z     vdW  Elec       q    Type
REMARK                         _______ _______ _______ _____ _____    ______ ____
ROOT
ATOM      1  C   UNL     1      51.052   2.911  17.519  0.00  0.00    +0.000 A 
ATOM      2  C   UNL     1      50.320   4.075  17.535  0.00  0.00    +0.000 A 
ATOM      3  N   UNL     1      49.102   4.206  16.975  0.00  0.00    +0.000 NA
ATOM      4  C   UNL     1      48.586   3.129  16.370  0.00  0.00    +0.000 A 
ATOM      5  N   UNL     1      47.344   3.211  15.745  0.00  0.00    +0.000 N 
ATOM      6  N   UNL     1      49.214   1.948  16.291  0.00  0.00    +0.000 NA
ATOM      7  C   UNL     1      50.430   1.864  16.875  0.00  0.00    +0.000 A 
ATOM      8  H   UNL     1      47.320   2.445  15.081  0.00  0.00    +0.000 HD
ENDROOT
BRANCH   1   9
ATOM      9  C   UNL     1      52.416   2.816  18.116  0.00  0.00    +0.000 C 
BRANCH   9  10
ATOM     10  N   UNL     1      52.757   1.445  18.475  0.00  0.00    +0.000 NA
ATOM     11  H   UNL     1      52.135   1.124  19.216  0.00  0.00    +0.000 HD
ATOM     12  H   UNL     1      53.699   1.418  18.862  0.00  0.00    +0.000 HD
ENDBRANCH   9  10
ENDBRANCH   1   9
BRANCH   5  13
ATOM     13  C   UNL     1      47.058   4.538  15.214  0.00  0.00    +0.000 C 
BRANCH  13  14
ATOM     14  C   UNL     1      47.088   4.524  13.683  0.00  0.00    +0.000 C 
BRANCH  14  15
ATOM     15  C   UNL     1      45.705   4.399  13.093  0.00  0.00    +0.000 A 
ATOM     16  C   UNL     1      44.777   5.437  13.217  0.00  0.00    +0.000 A 
ATOM     17  C   UNL     1      43.513   5.270  12.672  0.00  0.00    +0.000 A 
ATOM     18  N   UNL     1      43.113   4.155  12.026  0.00  0.00    +0.000 NA
ATOM     19  C   UNL     1      44.019   3.159  11.924  0.00  0.00    +0.000 A 
ATOM     20  C   UNL     1      45.306   3.230  12.436  0.00  0.00    +0.000 A 
ENDBRANCH  14  15
ENDBRANCH  13  14
ENDBRANCH   5  13
TORSDOF 5
ENDMDL
MODEL 7
REMARK VINA RESULT:    -5.696      2.638      7.343
REMARK INTER + INTRA:          -7.560
REMARK INTER:                  -7.313
REMARK INTRA:                  -0.247
REMARK UNBOUND:                -0.366
REMARK  Name = 
REMARK  5 active torsions:
REMARK  status: ('A' for Active; 'I' for Inactive)
REMARK    1  A    between atoms: N_1  and  C_2
REMARK    2  A    between atoms: C_2  and  C_3
REMARK    3  A    between atoms: N_7  and  C_8
REMARK    4  A    between atoms: C_8  and  C_9
REMARK    5  A    between atoms: C_9  and  C_10
REMARK                            x       y       z     vdW  Elec       q    Type
REMARK                         _______ _______ _______ _____ _____    ______ ____
ROOT
ATOM      1  C   UNL     1      48.143   4.741  17.294  0.00  0.00    +0.000 A 
ATOM      2  C   UNL     1      47.186   3.918  16.746  0.00  0.00    +0.000 A 
ATOM      3  N   UNL     1      46.764   4.000  15.471  0.00  0.00    +0.000 NA
ATOM      4  C   UNL     1      47.318   4.945  14.700  0.00  0.00    +0.000 A 
ATOM      5  N   UNL     1      46.899   5.100  13.381  0.00  0.00    +0.000 N 
ATOM      6  N   UNL     1      48.253   5.803  15.131  0.00  0.00    +0.000 NA
ATOM      7  C   UNL     1      48.650   5.675  16.417  0.00  0.00    +0.000 A 
ATOM      8  H   UNL     1      47.163   6.043  13.119  0.00  0.00    +0.000 HD
ENDROOT
BRANCH   1   9
ATOM      9  C   UNL     1      48.557   4.645  18.724  0.00  0.00    +0.000 C 
BRANCH   9  10
ATOM     10  N   UNL     1      48.417   3.289  19.239  0.00  0.00    +0.000 NA
ATOM     11  H   UNL     1      47.491   2.931  19.006  0.00  0.00    +0.000 HD
ATOM     12  H   UNL     1      48.468   3.304  20.257  0.00  0.00    +0.000 HD
ENDBRANCH   9  10
ENDBRANCH   1   9
BRANCH   5  13
ATOM     13  C   UNL     1      45.502   4.737  13.179  0.00  0.00    +0.000 C 
BRANCH  13  14
ATOM     14  C   UNL     1      44.931   5.455  11.951  0.00  0.00    +0.000 C 
BRANCH  14  15
ATOM     15  C   UNL     1      44.978   4.585  10.719  0.00  0.00    +0.000 A 
ATOM     16  C   UNL     1      45.560   5.049   9.536  0.00  0.00    +0.000 A 
ATOM     17  C   UNL     1      45.565   4.219   8.425  0.00  0.00    +0.000 A 
ATOM     18  N   UNL     1      45.034   2.979   8.409  0.00  0.00    +0.000 NA
ATOM     19  C   UNL     1      44.468   2.550   9.558  0.00  0.00    +0.000 A 
ATOM     20  C   UNL     1      44.413   3.305  10.720  0.00  0.00    +0.000 A 
ENDBRANCH  14  15
ENDBRANCH  13  14
ENDBRANCH   5  13
TORSDOF 5
ENDMDL
MODEL 8
REMARK VINA RESULT:    -5.427      3.258      7.574
REMARK INTER + INTRA:          -7.220
REMARK INTER:                  -6.998
REMARK INTRA:                  -0.222
REMARK UNBOUND:                -0.366
REMARK  Name = 
REMARK  5 active torsions:
REMARK  status: ('A' for Active; 'I' for Inactive)
REMARK    1  A    between atoms: N_1  and  C_2
REMARK    2  A    between atoms: C_2  and  C_3
REMARK    3  A    between atoms: N_7  and  C_8
REMARK    4  A    between atoms: C_8  and  C_9
REMARK    5  A    between atoms: C_9  and  C_10
REMARK                            x       y       z     vdW  Elec       q    Type
REMARK                         _______ _______ _______ _____ _____    ______ ____
ROOT
ATOM      1  C   UNL     1      49.532   4.133  17.633  0.00  0.00    +0.000 A 
ATOM      2  C   UNL     1      49.349   5.216  16.805  0.00  0.00    +0.000 A 
ATOM      3  N   UNL     1      48.320   5.341  15.947  0.00  0.00    +0.000 NA
ATOM      4  C   UNL     1      47.427   4.344  15.909  0.00  0.00    +0.000 A 
ATOM      5  N   UNL     1      46.357   4.402  15.019  0.00  0.00    +0.000 N 
ATOM      6  N   UNL     1      47.510   3.242  16.667  0.00  0.00    +0.000 NA
ATOM      7  C   UNL     1      48.558   3.166  17.518  0.00  0.00    +0.000 A 
ATOM      8  H   UNL     1      46.044   3.444  14.905  0.00  0.00    +0.000 HD
ENDROOT
BRANCH   1   9
ATOM      9  C   UNL     1      50.709   4.011  18.543  0.00  0.00    +0.000 C 
BRANCH   9  10
ATOM     10  N   UNL     1      51.589   2.919  18.147  0.00  0.00    +0.000 NA
ATOM     11  H   UNL     1      51.602   2.845  17.130  0.00  0.00    +0.000 HD
ATOM     12  H   UNL     1      51.212   2.036  18.491  0.00  0.00    +0.000 HD
ENDBRANCH   9  10
ENDBRANCH   1   9
BRANCH   5  13
ATOM     13  C   UNL     1      46.669   5.132  13.797  0.00  0.00    +0.000 C 
BRANCH  13  14
ATOM     14  C   UNL     1      45.390   5.674  13.152  0.00  0.00    +0.000 C 
BRANCH  14  15
ATOM     15  C   UNL     1      44.806   4.702  12.157  0.00  0.00    +0.000 A 
ATOM     16  C   UNL     1      43.897   3.720  12.563  0.00  0.00    +0.000 A 
ATOM     17  C   UNL     1      43.399   2.840  11.615  0.00  0.00    +0.000 A 
ATOM     18  N   UNL     1      43.741   2.866  10.310  0.00  0.00    +0.000 NA
ATOM     19  C   UNL     1      44.626   3.814   9.937  0.00  0.00    +0.000 A 
ATOM     20  C   UNL     1      45.181   4.739  10.810  0.00  0.00    +0.000 A 
ENDBRANCH  14  15
ENDBRANCH  13  14
ENDBRANCH   5  13
TORSDOF 5
ENDMDL
MODEL 9
REMARK VINA RESULT:    -5.423      3.905      6.582
REMARK INTER + INTRA:          -7.216
REMARK INTER:                  -6.955
REMARK INTRA:                  -0.261
REMARK UNBOUND:                -0.366
REMARK  Name = 
REMARK  5 active torsions:
REMARK  status: ('A' for Active; 'I' for Inactive)
REMARK    1  A    between atoms: N_1  and  C_2
REMARK    2  A    between atoms: C_2  and  C_3
REMARK    3  A    between atoms: N_7  and  C_8
REMARK    4  A    between atoms: C_8  and  C_9
REMARK    5  A    between atoms: C_9  and  C_10
REMARK                            x       y       z     vdW  Elec       q    Type
REMARK                         _______ _______ _______ _____ _____    ______ ____
ROOT
ATOM      1  C   UNL     1      45.073   5.000  12.017  0.00  0.00    +0.000 A 
ATOM      2  C   UNL     1      45.780   5.721  12.952  0.00  0.00    +0.000 A 
ATOM      3  N   UNL     1      46.573   5.167  13.888  0.00  0.00    +0.000 NA
ATOM      4  C   UNL     1      46.669   3.830  13.897  0.00  0.00    +0.000 A 
ATOM      5  N   UNL     1      47.448   3.197  14.862  0.00  0.00    +0.000 N 
ATOM      6  N   UNL     1      46.021   3.032  13.038  0.00  0.00    +0.000 NA
ATOM      7  C   UNL     1      45.243   3.637  12.112  0.00  0.00    +0.000 A 
ATOM      8  H   UNL     1      47.104   2.244  14.910  0.00  0.00    +0.000 HD
ENDROOT
BRANCH   1   9
ATOM      9  C   UNL     1      44.173   5.650  11.020  0.00  0.00    +0.000 C 
BRANCH   9  10
ATOM     10  N   UNL     1      44.292   7.102  11.048  0.00  0.00    +0.000 NA
ATOM     11  H   UNL     1      44.543   7.440  10.120  0.00  0.00    +0.000 HD
ATOM     12  H   UNL     1      45.058   7.370  11.665  0.00  0.00    +0.000 HD
ENDBRANCH   9  10
ENDBRANCH   1   9
BRANCH   5  13
ATOM     13  C   UNL     1      47.508   3.929  16.120  0.00  0.00    +0.000 C 
BRANCH  13  14
ATOM     14  C   UNL     1      47.909   2.997  17.268  0.00  0.00    +0.000 C 
BRANCH  14  15
ATOM     15  C   UNL     1      49.405   2.948  17.457  0.00  0.00    +0.000 A 
ATOM     16  C   UNL     1      50.113   4.081  17.867  0.00  0.00    +0.000 A 
ATOM     17  C   UNL     1      51.490   3.990  18.012  0.00  0.00    +0.000 A 
ATOM     18  N   UNL     1      52.199   2.867  17.775  0.00  0.00    +0.000 NA
ATOM     19  C   UNL     1      51.500   1.785  17.372  0.00  0.00    +0.000 A 
ATOM     20  C   UNL     1      50.124   1.776  17.197  0.00  0.00    +0.000 A 
ENDBRANCH  14  15
ENDBRANCH  13  14
ENDBRANCH   5  13
TORSDOF 5
ENDMDL
