MODEL 1
REMARK VINA RESULT:    -7.710      0.000      0.000
REMARK INTER + INTRA:         -10.385
REMARK INTER:                  -9.513
REMARK INTRA:                  -0.872
REMARK UNBOUND:                -0.872
REMARK  Name = 
REMARK  5 active torsions:
REMARK  status: ('A' for Active; 'I' for Inactive)
REMARK    1  A    between atoms: C_1  and  C_2
REMARK    2  A    between atoms: C_2  and  C_3
REMARK    3  A    between atoms: C_7  and  C_8
REMARK    4  A    between atoms: C_8  and  C_9
REMARK    5  A    between atoms: C_9  and  N_10
REMARK                            x       y       z     vdW  Elec       q    Type
REMARK                         _______ _______ _______ _____ _____    ______ ____
ROOT
ATOM      1  C   UNL     1      47.059   6.863  12.973  0.00  0.00    +0.000 A 
ATOM      2  C   UNL     1      47.514   5.764  13.726  0.00  0.00    +0.000 A 
ATOM      3  C   UNL     1      46.735   4.615  13.869  0.00  0.00    +0.000 A 
ATOM      4  C   UNL     1      45.476   4.547  13.280  0.00  0.00    +0.000 A 
ATOM      5  C   UNL     1      44.991   5.622  12.530  0.00  0.00    +0.000 A 
ATOM      6  C   UNL     1      45.798   6.761  12.362  0.00  0.00    +0.000 A 
ENDROOT
BRANCH   1   8
ATOM      7  C   UNL     1      47.181   9.252  12.150  0.00  0.00    +0.000 C 
ATOM      8  C   UNL     1      47.907   8.127  12.892  0.00  0.00    +0.000 C 
ATOM      9  C   UNL     1      48.436   8.559  14.238  0.00  0.00    +0.000 C 
ATOM     10  C   UNL     1      49.772   8.554  14.230  0.00  0.00    +0.000 C 
ATOM     11  N   UNL     1      50.320   8.192  13.031  0.00  0.00    +0.000 NA
ATOM     12  C   UNL     1      49.285   7.954  12.278  0.00  0.00    +0.000 C 
ATOM     13  F   UNL     1      49.457   7.602  11.002  0.00  0.00    +0.000 F 
ENDBRANCH   1   8
BRANCH   5  14
ATOM     14  C   UNL     1      43.578   5.620  11.992  0.00  0.00    +0.000 C 
BRANCH  14  15
ATOM     15  C   UNL     1      43.380   4.448  11.021  0.00  0.00    +0.000 C 
BRANCH  15  16
ATOM     16  N   UNL     1      43.753   4.828   9.666  0.00  0.00    +0.000 N 
ATOM     17  C   UNL     1      44.648   3.952   9.062  0.00  0.00    +0.000 A 
ATOM     18  N   UNL     1      44.648   2.650   9.393  0.00  0.00    +0.000 NA
ATOM     19  C   UNL     1      45.527   1.847   8.757  0.00  0.00    +0.000 A 
ATOM     20  C   UNL     1      46.403   2.295   7.802  0.00  0.00    +0.000 A 
ATOM     21 CL   UNL     1      47.491   1.251   6.998  0.00  0.00    +0.000 Cl
ATOM     22  C   UNL     1      46.339   3.641   7.541  0.00  0.00    +0.000 A 
ATOM     23  N   UNL     1      45.481   4.487   8.160  0.00  0.00    +0.000 NA
ATOM     24  H   UNL     1      44.138   5.759   9.546  0.00  0.00    +0.000 HD
ENDBRANCH  15  16
ENDBRANCH  14  15
ENDBRANCH   5  14
TORSDOF 4
ENDMDL
MODEL 2
REMARK VINA RESULT:    -7.186      1.567      2.451
REMARK INTER + INTRA:          -9.738
REMARK INTER:                  -8.770
REMARK INTRA:                  -0.968
REMARK UNBOUND:                -0.872
REMARK  Name = 
REMARK  5 active torsions:
REMARK  status: ('A' for Active; 'I' for Inactive)
REMARK    1  A    between atoms: C_1  and  C_2
REMARK    2  A    between atoms: C_2  and  C_3
REMARK    3  A    between atoms: C_7  and  C_8
REMARK    4  A    between atoms: C_8  and  C_9
REMARK    5  A    between atoms: C_9  and  N_10
REMARK                            x       y       z     vdW  Elec       q    Type
REMARK                         _______ _______ _______ _____ _____    ______ ____
ROOT
ATOM      1  C   UNL     1      46.359   6.672  12.882  0.00  0.00    +0.000 A 
ATOM      2  C   UNL     1      45.843   7.674  12.038  0.00  0.00    +0.000 A 
ATOM      3  C   UNL     1      44.608   7.520  11.406  0.00  0.00    +0.000 A 
ATOM      4  C   UNL     1      43.871   6.352  11.588  0.00  0.00    +0.000 A 
ATOM      5  C   UNL     1      44.357   5.335  12.415  0.00  0.00    +0.000 A 
ATOM      6  C   UNL     1      45.586   5.515  13.074  0.00  0.00    +0.000 A 
ENDROOT
BRANCH   1   8
ATOM      7  C   UNL     1      47.937   5.931  14.715  0.00  0.00    +0.000 C 
ATOM      8  C   UNL     1      47.739   6.845  13.503  0.00  0.00    +0.000 C 
ATOM      9  C   UNL     1      48.852   6.724  12.491  0.00  0.00    +0.000 C 
ATOM     10  C   UNL     1      49.551   7.862  12.435  0.00  0.00    +0.000 C 
ATOM     11  N   UNL     1      49.115   8.825  13.303  0.00  0.00    +0.000 NA
ATOM     12  C   UNL     1      48.105   8.264  13.905  0.00  0.00    +0.000 C 
ATOM     13  F   UNL     1      47.449   8.925  14.861  0.00  0.00    +0.000 F 
ENDBRANCH   1   8
BRANCH   5  14
ATOM     14  C   UNL     1      43.637   4.010  12.522  0.00  0.00    +0.000 C 
BRANCH  14  15
ATOM     15  C   UNL     1      43.482   3.374  11.134  0.00  0.00    +0.000 C 
BRANCH  15  16
ATOM     16  N   UNL     1      44.593   2.479  10.846  0.00  0.00    +0.000 N 
ATOM     17  C   UNL     1      45.147   2.658   9.583  0.00  0.00    +0.000 A 
ATOM     18  N   UNL     1      45.120   3.867   8.997  0.00  0.00    +0.000 NA
ATOM     19  C   UNL     1      45.692   3.981   7.780  0.00  0.00    +0.000 A 
ATOM     20  C   UNL     1      46.291   2.933   7.127  0.00  0.00    +0.000 A 
ATOM     21 CL   UNL     1      47.026   3.111   5.595  0.00  0.00    +0.000 Cl
ATOM     22  C   UNL     1      46.257   1.736   7.797  0.00  0.00    +0.000 A 
ATOM     23  N   UNL     1      45.687   1.572   9.015  0.00  0.00    +0.000 NA
ATOM     24  H   UNL     1      44.411   1.485  10.941  0.00  0.00    +0.000 HD
ENDBRANCH  15  16
ENDBRANCH  14  15
ENDBRANCH   5  14
TORSDOF 4
ENDMDL
MODEL 3
REMARK VINA RESULT:    -7.100      1.367      2.268
REMARK INTER + INTRA:          -9.632
REMARK INTER:                  -8.761
REMARK INTRA:                  -0.871
REMARK UNBOUND:                -0.872
REMARK  Name = 
REMARK  5 active torsions:
REMARK  status: ('A' for Active; 'I' for Inactive)
REMARK    1  A    between atoms: C_1  and  C_2
REMARK    2  A    between atoms: C_2  and  C_3
REMARK    3  A    between atoms: C_7  and  C_8
REMARK    4  A    between atoms: C_8  and  C_9
REMARK    5  A    between atoms: C_9  and  N_10
REMARK                            x       y       z     vdW  Elec       q    Type
REMARK                         _______ _______ _______ _____ _____    ______ ____
ROOT
ATOM      1  C   UNL     1      46.295   7.248  12.722  0.00  0.00    +0.000 A 
ATOM      2  C   UNL     1      46.151   8.506  12.106  0.00  0.00    +0.000 A 
ATOM      3  C   UNL     1      44.978   8.847  11.430  0.00  0.00    +0.000 A 
ATOM      4  C   UNL     1      43.933   7.932  11.337  0.00  0.00    +0.000 A 
ATOM      5  C   UNL     1      44.047   6.672  11.933  0.00  0.00    +0.000 A 
ATOM      6  C   UNL     1      45.218   6.351  12.642  0.00  0.00    +0.000 A 
ENDROOT
BRANCH   1   8
ATOM      7  C   UNL     1      47.464   5.676  14.323  0.00  0.00    +0.000 C 
ATOM      8  C   UNL     1      47.614   6.884  13.394  0.00  0.00    +0.000 C 
ATOM      9  C   UNL     1      48.747   6.729  12.409  0.00  0.00    +0.000 C 
ATOM     10  C   UNL     1      49.711   7.615  12.673  0.00  0.00    +0.000 C 
ATOM     11  N   UNL     1      49.456   8.409  13.757  0.00  0.00    +0.000 NA
ATOM     12  C   UNL     1      48.288   8.006  14.167  0.00  0.00    +0.000 C 
ATOM     13  F   UNL     1      47.736   8.555  15.252  0.00  0.00    +0.000 F 
ENDBRANCH   1   8
BRANCH   5  14
ATOM     14  C   UNL     1      42.979   5.619  11.734  0.00  0.00    +0.000 C 
BRANCH  14  15
ATOM     15  C   UNL     1      43.549   4.423  10.960  0.00  0.00    +0.000 C 
BRANCH  15  16
ATOM     16  N   UNL     1      43.874   4.796   9.592  0.00  0.00    +0.000 N 
ATOM     17  C   UNL     1      44.765   3.931   8.968  0.00  0.00    +0.000 A 
ATOM     18  N   UNL     1      44.799   2.632   9.310  0.00  0.00    +0.000 NA
ATOM     19  C   UNL     1      45.671   1.838   8.654  0.00  0.00    +0.000 A 
ATOM     20  C   UNL     1      46.510   2.293   7.668  0.00  0.00    +0.000 A 
ATOM     21 CL   UNL     1      47.591   1.260   6.841  0.00  0.00    +0.000 Cl
ATOM     22  C   UNL     1      46.414   3.635   7.398  0.00  0.00    +0.000 A 
ATOM     23  N   UNL     1      45.561   4.471   8.036  0.00  0.00    +0.000 NA
ATOM     24  H   UNL     1      44.239   5.733   9.451  0.00  0.00    +0.000 HD
ENDBRANCH  15  16
ENDBRANCH  14  15
ENDBRANCH   5  14
TORSDOF 4
ENDMDL
MODEL 4
REMARK VINA RESULT:    -6.975      3.924      7.230
REMARK INTER + INTRA:          -9.478
REMARK INTER:                  -8.738
REMARK INTRA:                  -0.740
REMARK UNBOUND:                -0.872
REMARK  Name = 
REMARK  5 active torsions:
REMARK  status: ('A' for Active; 'I' for Inactive)
REMARK    1  A    between atoms: C_1  and  C_2
REMARK    2  A    between atoms: C_2  and  C_3
REMARK    3  A    between atoms: C_7  and  C_8
REMARK    4  A    between atoms: C_8  and  C_9
REMARK    5  A    between atoms: C_9  and  N_10
REMARK                            x       y       z     vdW  Elec       q    Type
REMARK                         _______ _______ _______ _____ _____    ______ ____
ROOT
ATOM      1  C   UNL     1      45.785   6.227  12.693  0.00  0.00    +0.000 A 
ATOM      2  C   UNL     1      45.263   7.531  12.592  0.00  0.00    +0.000 A 
ATOM      3  C   UNL     1      45.988   8.634  13.046  0.00  0.00    +0.000 A 
ATOM      4  C   UNL     1      47.240   8.457  13.629  0.00  0.00    +0.000 A 
ATOM      5  C   UNL     1      47.784   7.174  13.749  0.00  0.00    +0.000 A 
ATOM      6  C   UNL     1      47.061   6.073  13.257  0.00  0.00    +0.000 A 
ENDROOT
BRANCH   1   8
ATOM      7  C   UNL     1      45.629   3.706  12.547  0.00  0.00    +0.000 C 
ATOM      8  C   UNL     1      44.939   5.040  12.248  0.00  0.00    +0.000 C 
ATOM      9  C   UNL     1      43.527   5.099  12.778  0.00  0.00    +0.000 C 
ATOM     10  C   UNL     1      42.657   5.149  11.765  0.00  0.00    +0.000 C 
ATOM     11  N   UNL     1      43.240   5.110  10.528  0.00  0.00    +0.000 NA
ATOM     12  C   UNL     1      44.514   5.046  10.789  0.00  0.00    +0.000 C 
ATOM     13  F   UNL     1      45.395   4.959   9.790  0.00  0.00    +0.000 F 
ENDBRANCH   1   8
BRANCH   5  14
ATOM     14  C   UNL     1      49.080   6.948  14.494  0.00  0.00    +0.000 C 
BRANCH  14  15
ATOM     15  C   UNL     1      48.839   6.995  16.009  0.00  0.00    +0.000 C 
BRANCH  15  16
ATOM     16  N   UNL     1      48.099   5.823  16.453  0.00  0.00    +0.000 N 
ATOM     17  C   UNL     1      48.902   4.723  16.735  0.00  0.00    +0.000 A 
ATOM     18  N   UNL     1      50.161   4.899  17.172  0.00  0.00    +0.000 NA
ATOM     19  C   UNL     1      50.883   3.793  17.449  0.00  0.00    +0.000 A 
ATOM     20  C   UNL     1      50.395   2.519  17.306  0.00  0.00    +0.000 A 
ATOM     21 CL   UNL     1      51.327   1.136  17.683  0.00  0.00    +0.000 Cl
ATOM     22  C   UNL     1      49.106   2.439  16.842  0.00  0.00    +0.000 A 
ATOM     23  N   UNL     1      48.347   3.520  16.543  0.00  0.00    +0.000 NA
ATOM     24  H   UNL     1      47.364   5.490  15.838  0.00  0.00    +0.000 HD
ENDBRANCH  15  16
ENDBRANCH  14  15
ENDBRANCH   5  14
TORSDOF 4
ENDMDL
MODEL 5
REMARK VINA RESULT:    -6.881      4.523      7.484
REMARK INTER + INTRA:          -9.361
REMARK INTER:                  -8.752
REMARK INTRA:                  -0.609
REMARK UNBOUND:                -0.872
REMARK  Name = 
REMARK  5 active torsions:
REMARK  status: ('A' for Active; 'I' for Inactive)
REMARK    1  A    between atoms: C_1  and  C_2
REMARK    2  A    between atoms: C_2  and  C_3
REMARK    3  A    between atoms: C_7  and  C_8
REMARK    4  A    between atoms: C_8  and  C_9
REMARK    5  A    between atoms: C_9  and  N_10
REMARK                            x       y       z     vdW  Elec       q    Type
REMARK                         _______ _______ _______ _____ _____    ______ ____
ROOT
ATOM      1  C   UNL     1      44.968   5.647  11.924  0.00  0.00    +0.000 A 
ATOM      2  C   UNL     1      45.004   7.051  11.826  0.00  0.00    +0.000 A 
ATOM      3  C   UNL     1      45.986   7.795  12.481  0.00  0.00    +0.000 A 
ATOM      4  C   UNL     1      46.941   7.154  13.266  0.00  0.00    +0.000 A 
ATOM      5  C   UNL     1      46.930   5.762  13.389  0.00  0.00    +0.000 A 
ATOM      6  C   UNL     1      45.958   5.019  12.697  0.00  0.00    +0.000 A 
ENDROOT
BRANCH   1   8
ATOM      7  C   UNL     1      42.481   5.538  11.471  0.00  0.00    +0.000 C 
ATOM      8  C   UNL     1      43.842   4.872  11.250  0.00  0.00    +0.000 C 
ATOM      9  C   UNL     1      44.124   4.584   9.795  0.00  0.00    +0.000 C 
ATOM     10  C   UNL     1      44.156   3.265   9.585  0.00  0.00    +0.000 C 
ATOM     11  N   UNL     1      43.909   2.517  10.703  0.00  0.00    +0.000 NA
ATOM     12  C   UNL     1      43.730   3.407  11.636  0.00  0.00    +0.000 C 
ATOM     13  F   UNL     1      43.429   3.019  12.877  0.00  0.00    +0.000 F 
ENDBRANCH   1   8
BRANCH   5  14
ATOM     14  C   UNL     1      47.875   5.058  14.338  0.00  0.00    +0.000 C 
BRANCH  14  15
ATOM     15  C   UNL     1      47.127   4.612  15.602  0.00  0.00    +0.000 C 
BRANCH  15  16
ATOM     16  N   UNL     1      47.449   3.233  15.935  0.00  0.00    +0.000 N 
ATOM     17  C   UNL     1      48.717   3.066  16.482  0.00  0.00    +0.000 A 
ATOM     18  N   UNL     1      49.279   4.054  17.198  0.00  0.00    +0.000 NA
ATOM     19  C   UNL     1      50.503   3.825  17.721  0.00  0.00    +0.000 A 
ATOM     20  C   UNL     1      51.184   2.645  17.556  0.00  0.00    +0.000 A 
ATOM     21 CL   UNL     1      52.723   2.375  18.245  0.00  0.00    +0.000 Cl
ATOM     22  C   UNL     1      50.536   1.702  16.798  0.00  0.00    +0.000 A 
ATOM     23  N   UNL     1      49.313   1.890  16.247  0.00  0.00    +0.000 NA
ATOM     24  H   UNL     1      47.370   2.554  15.184  0.00  0.00    +0.000 HD
ENDBRANCH  15  16
ENDBRANCH  14  15
ENDBRANCH   5  14
TORSDOF 4
ENDMDL
MODEL 6
REMARK VINA RESULT:    -6.490      3.911      7.516
REMARK INTER + INTRA:          -8.880
REMARK INTER:                  -8.095
REMARK INTRA:                  -0.785
REMARK UNBOUND:                -0.872
REMARK  Name = 
REMARK  5 active torsions:
REMARK  status: ('A' for Active; 'I' for Inactive)
REMARK    1  A    between atoms: C_1  and  C_2
REMARK    2  A    between atoms: C_2  and  C_3
REMARK    3  A    between atoms: C_7  and  C_8
REMARK    4  A    between atoms: C_8  and  C_9
REMARK    5  A    between atoms: C_9  and  N_10
REMARK                            x       y       z     vdW  Elec       q    Type
REMARK                         _______ _______ _______ _____ _____    ______ ____
ROOT
ATOM      1  C   UNL     1      45.066   6.030  11.421  0.00  0.00    +0.000 A 
ATOM      2  C   UNL     1      44.552   7.340  11.450  0.00  0.00    +0.000 A 
ATOM      3  C   UNL     1      45.336   8.413  11.877  0.00  0.00    +0.000 A 
ATOM      4  C   UNL     1      46.643   8.197  12.305  0.00  0.00    +0.000 A 
ATOM      5  C   UNL     1      47.182   6.907  12.293  0.00  0.00    +0.000 A 
ATOM      6  C   UNL     1      46.396   5.838  11.828  0.00  0.00    +0.000 A 
ENDROOT
BRANCH   1   8
ATOM      7  C   UNL     1      42.772   4.987  11.645  0.00  0.00    +0.000 C 
ATOM      8  C   UNL     1      44.161   4.874  11.012  0.00  0.00    +0.000 C 
ATOM      9  C   UNL     1      44.109   4.676   9.516  0.00  0.00    +0.000 C 
ATOM     10  C   UNL     1      44.561   3.460   9.196  0.00  0.00    +0.000 C 
ATOM     11  N   UNL     1      44.929   2.702  10.273  0.00  0.00    +0.000 NA
ATOM     12  C   UNL     1      44.706   3.483  11.291  0.00  0.00    +0.000 C 
ATOM     13  F   UNL     1      44.929   3.041  12.530  0.00  0.00    +0.000 F 
ENDBRANCH   1   8
BRANCH   5  14
ATOM     14  C   UNL     1      48.552   6.632  12.873  0.00  0.00    +0.000 C 
BRANCH  14  15
ATOM     15  C   UNL     1      48.725   7.375  14.204  0.00  0.00    +0.000 C 
BRANCH  15  16
ATOM     16  N   UNL     1      48.144   6.616  15.302  0.00  0.00    +0.000 N 
ATOM     17  C   UNL     1      49.079   5.926  16.066  0.00  0.00    +0.000 A 
ATOM     18  N   UNL     1      50.329   6.402  16.197  0.00  0.00    +0.000 NA
ATOM     19  C   UNL     1      51.185   5.699  16.969  0.00  0.00    +0.000 A 
ATOM     20  C   UNL     1      50.838   4.539  17.615  0.00  0.00    +0.000 A 
ATOM     21 CL   UNL     1      51.937   3.680  18.602  0.00  0.00    +0.000 Cl
ATOM     22  C   UNL     1      49.546   4.125  17.410  0.00  0.00    +0.000 A 
ATOM     23  N   UNL     1      48.656   4.792  16.639  0.00  0.00    +0.000 NA
ATOM     24  H   UNL     1      47.423   5.944  15.058  0.00  0.00    +0.000 HD
ENDBRANCH  15  16
ENDBRANCH  14  15
ENDBRANCH   5  14
TORSDOF 4
ENDMDL
MODEL 7
REMARK VINA RESULT:    -6.444      3.692      6.775
REMARK INTER + INTRA:          -8.822
REMARK INTER:                  -8.087
REMARK INTRA:                  -0.735
REMARK UNBOUND:                -0.872
REMARK  Name = 
REMARK  5 active torsions:
REMARK  status: ('A' for Active; 'I' for Inactive)
REMARK    1  A    between atoms: C_1  and  C_2
REMARK    2  A    between atoms: C_2  and  C_3
REMARK    3  A    between atoms: C_7  and  C_8
REMARK    4  A    between atoms: C_8  and  C_9
REMARK    5  A    between atoms: C_9  and  N_10
REMARK                            x       y       z     vdW  Elec       q    Type
REMARK                         _______ _______ _______ _____ _____    ______ ____
ROOT
ATOM      1  C   UNL     1      45.370   4.898  11.780  0.00  0.00    +0.000 A 
ATOM      2  C   UNL     1      45.768   3.983  12.772  0.00  0.00    +0.000 A 
ATOM      3  C   UNL     1      46.748   4.315  13.710  0.00  0.00    +0.000 A 
ATOM      4  C   UNL     1      47.365   5.563  13.662  0.00  0.00    +0.000 A 
ATOM      5  C   UNL     1      46.996   6.493  12.686  0.00  0.00    +0.000 A 
ATOM      6  C   UNL     1      45.984   6.161  11.769  0.00  0.00    +0.000 A 
ENDROOT
BRANCH   1   8
ATOM      7  C   UNL     1      43.053   5.291  10.843  0.00  0.00    +0.000 C 
ATOM      8  C   UNL     1      44.346   4.478  10.733  0.00  0.00    +0.000 C 
ATOM      9  C   UNL     1      44.913   4.467   9.334  0.00  0.00    +0.000 C 
ATOM     10  C   UNL     1      44.845   3.235   8.819  0.00  0.00    +0.000 C 
ATOM     11  N   UNL     1      44.270   2.315   9.652  0.00  0.00    +0.000 NA
ATOM     12  C   UNL     1      43.986   3.001  10.721  0.00  0.00    +0.000 C 
ATOM     13  F   UNL     1      43.372   2.410  11.748  0.00  0.00    +0.000 F 
ENDBRANCH   1   8
BRANCH   5  14
ATOM     14  C   UNL     1      47.742   7.800  12.538  0.00  0.00    +0.000 C 
BRANCH  14  15
ATOM     15  C   UNL     1      47.203   8.837  13.532  0.00  0.00    +0.000 C 
BRANCH  15  16
ATOM     16  N   UNL     1      47.179  10.165  12.937  0.00  0.00    +0.000 N 
ATOM     17  C   UNL     1      46.139  10.358  12.033  0.00  0.00    +0.000 A 
ATOM     18  N   UNL     1      44.981   9.694  12.183  0.00  0.00    +0.000 NA
ATOM     19  C   UNL     1      44.002   9.940  11.287  0.00  0.00    +0.000 A 
ATOM     20  C   UNL     1      44.138  10.824  10.247  0.00  0.00    +0.000 A 
ATOM     21 CL   UNL     1      42.874  11.131   9.138  0.00  0.00    +0.000 Cl
ATOM     22  C   UNL     1      45.360  11.443  10.167  0.00  0.00    +0.000 A 
ATOM     23  N   UNL     1      46.373  11.222  11.038  0.00  0.00    +0.000 NA
ATOM     24  H   UNL     1      48.026  10.466  12.466  0.00  0.00    +0.000 HD
ENDBRANCH  15  16
ENDBRANCH  14  15
ENDBRANCH   5  14
TORSDOF 4
ENDMDL
MODEL 8
REMARK VINA RESULT:    -6.400      4.120      7.764
REMARK INTER + INTRA:          -8.768
REMARK INTER:                  -8.098
REMARK INTRA:                  -0.670
REMARK UNBOUND:                -0.872
REMARK  Name = 
REMARK  5 active torsions:
REMARK  status: ('A' for Active; 'I' for Inactive)
REMARK    1  A    between atoms: C_1  and  C_2
REMARK    2  A    between atoms: C_2  and  C_3
REMARK    3  A    between atoms: C_7  and  C_8
REMARK    4  A    between atoms: C_8  and  C_9
REMARK    5  A    between atoms: C_9  and  N_10
REMARK                            x       y       z     vdW  Elec       q    Type
REMARK                         _______ _______ _______ _____ _____    ______ ____
ROOT
ATOM      1  C   UNL     1      45.420   4.583  11.777  0.00  0.00    +0.000 A 
ATOM      2  C   UNL     1      45.761   3.462  12.558  0.00  0.00    +0.000 A 
ATOM      3  C   UNL     1      46.621   3.579  13.652  0.00  0.00    +0.000 A 
ATOM      4  C   UNL     1      47.176   4.814  13.975  0.00  0.00    +0.000 A 
ATOM      5  C   UNL     1      46.863   5.946  13.216  0.00  0.00    +0.000 A 
ATOM      6  C   UNL     1      45.968   5.824  12.139  0.00  0.00    +0.000 A 
ENDROOT
BRANCH   1   8
ATOM      7  C   UNL     1      43.253   5.243  10.653  0.00  0.00    +0.000 C 
ATOM      8  C   UNL     1      44.532   4.407  10.552  0.00  0.00    +0.000 C 
ATOM      9  C   UNL     1      45.275   4.626   9.257  0.00  0.00    +0.000 C 
ATOM     10  C   UNL     1      45.247   3.513   8.516  0.00  0.00    +0.000 C 
ATOM     11  N   UNL     1      44.551   2.484   9.086  0.00  0.00    +0.000 NA
ATOM     12  C   UNL     1      44.145   2.975  10.221  0.00  0.00    +0.000 C 
ATOM     13  F   UNL     1      43.391   2.234  11.036  0.00  0.00    +0.000 F 
ENDBRANCH   1   8
BRANCH   5  14
ATOM     14  C   UNL     1      47.555   7.266  13.471  0.00  0.00    +0.000 C 
BRANCH  14  15
ATOM     15  C   UNL     1      48.959   7.031  14.043  0.00  0.00    +0.000 C 
BRANCH  15  16
ATOM     16  N   UNL     1      49.130   7.736  15.305  0.00  0.00    +0.000 N 
ATOM     17  C   UNL     1      49.075   6.911  16.423  0.00  0.00    +0.000 A 
ATOM     18  N   UNL     1      49.471   5.629  16.338  0.00  0.00    +0.000 NA
ATOM     19  C   UNL     1      49.415   4.885  17.463  0.00  0.00    +0.000 A 
ATOM     20  C   UNL     1      48.979   5.373  18.669  0.00  0.00    +0.000 A 
ATOM     21 CL   UNL     1      48.937   4.412  20.081  0.00  0.00    +0.000 Cl
ATOM     22  C   UNL     1      48.583   6.687  18.654  0.00  0.00    +0.000 A 
ATOM     23  N   UNL     1      48.613   7.469  17.549  0.00  0.00    +0.000 NA
ATOM     24  H   UNL     1      48.492   8.504  15.486  0.00  0.00    +0.000 HD
ENDBRANCH  15  16
ENDBRANCH  14  15
ENDBRANCH   5  14
TORSDOF 4
ENDMDL
MODEL 9
REMARK VINA RESULT:    -6.231      3.364      7.275
REMARK INTER + INTRA:          -8.560
REMARK INTER:                  -7.716
REMARK INTRA:                  -0.844
REMARK UNBOUND:                -0.872
REMARK  Name = 
REMARK  5 active torsions:
REMARK  status: ('A' for Active; 'I' for Inactive)
REMARK    1  A    between atoms: C_1  and  C_2
REMARK    2  A    between atoms: C_2  and  C_3
REMARK    3  A    between atoms: C_7  and  C_8
REMARK    4  A    between atoms: C_8  and  C_9
REMARK    5  A    between atoms: C_9  and  N_10
REMARK                            x       y       z     vdW  Elec       q    Type
REMARK                         _______ _______ _______ _____ _____    ______ ____
ROOT
ATOM      1  C   UNL     1      45.724   6.690  12.100  0.00  0.00    +0.000 A 
ATOM      2  C   UNL     1      45.012   7.904  12.054  0.00  0.00    +0.000 A 
ATOM      3  C   UNL     1      45.675   9.132  12.098  0.00  0.00    +0.000 A 
ATOM      4  C   UNL     1      47.062   9.173  12.209  0.00  0.00    +0.000 A 
ATOM      5  C   UNL     1      47.799   7.986  12.262  0.00  0.00    +0.000 A 
ATOM      6  C   UNL     1      47.124   6.755  12.181  0.00  0.00    +0.000 A 
ENDROOT
BRANCH   1   8
ATOM      7  C   UNL     1      45.764   4.262  12.807  0.00  0.00    +0.000 C 
ATOM      8  C   UNL     1      44.964   5.370  12.116  0.00  0.00    +0.000 C 
ATOM      9  C   UNL     1      43.564   5.510  12.664  0.00  0.00    +0.000 C 
ATOM     10  C   UNL     1      42.669   5.159  11.735  0.00  0.00    +0.000 C 
ATOM     11  N   UNL     1      43.224   4.747  10.556  0.00  0.00    +0.000 NA
ATOM     12  C   UNL     1      44.505   4.859  10.761  0.00  0.00    +0.000 C 
ATOM     13  F   UNL     1      45.367   4.500   9.806  0.00  0.00    +0.000 F 
ENDBRANCH   1   8
BRANCH   5  14
ATOM     14  C   UNL     1      49.290   8.008  12.512  0.00  0.00    +0.000 C 
BRANCH  14  15
ATOM     15  C   UNL     1      49.579   8.351  13.980  0.00  0.00    +0.000 C 
BRANCH  15  16
ATOM     16  N   UNL     1      50.538   7.417  14.552  0.00  0.00    +0.000 N 
ATOM     17  C   UNL     1      49.992   6.558  15.499  0.00  0.00    +0.000 A 
ATOM     18  N   UNL     1      48.702   6.192  15.416  0.00  0.00    +0.000 NA
ATOM     19  C   UNL     1      48.236   5.339  16.353  0.00  0.00    +0.000 A 
ATOM     20  C   UNL     1      49.010   4.838  17.369  0.00  0.00    +0.000 A 
ATOM     21 CL   UNL     1      48.398   3.745  18.530  0.00  0.00    +0.000 Cl
ATOM     22  C   UNL     1      50.309   5.281  17.380  0.00  0.00    +0.000 A 
ATOM     23  N   UNL     1      50.819   6.141  16.467  0.00  0.00    +0.000 NA
ATOM     24  H   UNL     1      51.367   7.822  14.976  0.00  0.00    +0.000 HD
ENDBRANCH  15  16
ENDBRANCH  14  15
ENDBRANCH   5  14
TORSDOF 4
ENDMDL
