MODEL 1
REMARK VINA RESULT:    -7.151      0.000      0.000
REMARK INTER + INTRA:          -9.728
REMARK INTER:                  -9.450
REMARK INTRA:                  -0.278
REMARK UNBOUND:                -0.278
REMARK  Name = 
REMARK  6 active torsions:
REMARK  status: ('A' for Active; 'I' for Inactive)
REMARK    1  A    between atoms: N_1  and  C_2
REMARK    2  A    between atoms: C_2  and  C_3
REMARK    3  A    between atoms: C_3  and  C_4
REMARK    4  A    between atoms: N_7  and  C_8
REMARK    5  A    between atoms: C_8  and  C_9
REMARK    6  A    between atoms: C_14  and  C_15
REMARK                            x       y       z     vdW  Elec       q    Type
REMARK                         _______ _______ _______ _____ _____    ______ ____
ROOT
ATOM      1  C   UNL     1      43.776   4.265  10.631  0.00  0.00    +0.000 A 
ATOM      2  N   UNL     1      43.227   3.218  11.251  0.00  0.00    +0.000 NA
ATOM      3  S   UNL     1      43.837   1.828  10.613  0.00  0.00    +0.000 S 
ATOM      4  C   UNL     1      44.871   2.579   9.466  0.00  0.00    +0.000 A 
ATOM      5  C   UNL     1      45.688   1.983   8.485  0.00  0.00    +0.000 A 
ATOM      6  C   UNL     1      46.438   2.819   7.646  0.00  0.00    +0.000 A 
ATOM      7  C   UNL     1      46.401   4.205   7.833  0.00  0.00    +0.000 A 
ATOM      8  C   UNL     1      45.585   4.781   8.813  0.00  0.00    +0.000 A 
ATOM      9  C   UNL     1      44.780   3.960   9.635  0.00  0.00    +0.000 A 
ENDROOT
BRANCH   6  10
ATOM     10  C   UNL     1      47.271   2.296   6.523  0.00  0.00    +0.000 C 
ATOM     11  N   UNL     1      47.271   2.966   5.334  0.00  0.00    +0.000 N 
ATOM     12  O   UNL     1      47.967   1.295   6.657  0.00  0.00    +0.000 OA
ATOM     13  H   UNL     1      46.778   3.823   5.140  0.00  0.00    +0.000 HD
ATOM     14  H   UNL     1      47.888   2.608   4.615  0.00  0.00    +0.000 HD
ENDBRANCH   6  10
BRANCH   1  15
ATOM     15  C   UNL     1      43.265   5.640  10.978  0.00  0.00    +0.000 C 
BRANCH  15  19
ATOM     16  C   UNL     1      46.748   7.409  12.848  0.00  0.00    +0.000 C 
ATOM     17  C   UNL     1      46.157   6.116  13.427  0.00  0.00    +0.000 C 
ATOM     18  C   UNL     1      45.210   5.420  12.444  0.00  0.00    +0.000 C 
ATOM     19  N   UNL     1      44.125   6.309  11.988  0.00  0.00    +0.000 NA
ATOM     20  C   UNL     1      44.650   7.561  11.420  0.00  0.00    +0.000 C 
ATOM     21  C   UNL     1      45.578   8.291  12.394  0.00  0.00    +0.000 C 
BRANCH  16  22
ATOM     22  C   UNL     1      47.772   7.089  11.735  0.00  0.00    +0.000 C 
BRANCH  22  23
ATOM     23  C   UNL     1      49.192   7.565  12.045  0.00  0.00    +0.000 C 
BRANCH  23  24
ATOM     24  N   UNL     1      49.685   6.903  13.249  0.00  0.00    +0.000 NA
ATOM     25  H   UNL     1      50.680   7.091  13.354  0.00  0.00    +0.000 HD
ATOM     26  H   UNL     1      49.594   5.892  13.149  0.00  0.00    +0.000 HD
ENDBRANCH  23  24
ENDBRANCH  22  23
ENDBRANCH  16  22
ENDBRANCH  15  19
ENDBRANCH   1  15
TORSDOF 6
ENDMDL
MODEL 2
REMARK VINA RESULT:    -6.110      4.151      6.052
REMARK INTER + INTRA:          -8.353
REMARK INTER:                  -8.091
REMARK INTRA:                  -0.262
REMARK UNBOUND:                -0.278
REMARK  Name = 
REMARK  6 active torsions:
REMARK  status: ('A' for Active; 'I' for Inactive)
REMARK    1  A    between atoms: N_1  and  C_2
REMARK    2  A    between atoms: C_2  and  C_3
REMARK    3  A    between atoms: C_3  and  C_4
REMARK    4  A    between atoms: N_7  and  C_8
REMARK    5  A    between atoms: C_8  and  C_9
REMARK    6  A    between atoms: C_14  and  C_15
REMARK                            x       y       z     vdW  Elec       q    Type
REMARK                         _______ _______ _______ _____ _____    ______ ____
ROOT
ATOM      1  C   UNL     1      47.529   7.315  13.699  0.00  0.00    +0.000 A 
ATOM      2  N   UNL     1      47.169   8.600  13.675  0.00  0.00    +0.000 NA
ATOM      3  S   UNL     1      45.768   8.755  12.823  0.00  0.00    +0.000 S 
ATOM      4  C   UNL     1      45.584   7.090  12.446  0.00  0.00    +0.000 A 
ATOM      5  C   UNL     1      44.603   6.463  11.654  0.00  0.00    +0.000 A 
ATOM      6  C   UNL     1      44.676   5.074  11.480  0.00  0.00    +0.000 A 
ATOM      7  C   UNL     1      45.675   4.344  12.131  0.00  0.00    +0.000 A 
ATOM      8  C   UNL     1      46.643   4.982  12.916  0.00  0.00    +0.000 A 
ATOM      9  C   UNL     1      46.619   6.387  13.062  0.00  0.00    +0.000 A 
ENDROOT
BRANCH   6  10
ATOM     10  C   UNL     1      43.737   4.323  10.595  0.00  0.00    +0.000 C 
ATOM     11  N   UNL     1      43.779   4.544   9.249  0.00  0.00    +0.000 N 
ATOM     12  O   UNL     1      42.951   3.500  11.052  0.00  0.00    +0.000 OA
ATOM     13  H   UNL     1      44.420   5.156   8.772  0.00  0.00    +0.000 HD
ATOM     14  H   UNL     1      43.161   3.977   8.680  0.00  0.00    +0.000 HD
ENDBRANCH   6  10
BRANCH   1  15
ATOM     15  C   UNL     1      48.854   6.963  14.325  0.00  0.00    +0.000 C 
BRANCH  15  19
ATOM     16  C   UNL     1      49.377   4.962  18.131  0.00  0.00    +0.000 C 
ATOM     17  C   UNL     1      48.006   4.926  17.443  0.00  0.00    +0.000 C 
ATOM     18  C   UNL     1      48.088   5.316  15.963  0.00  0.00    +0.000 C 
ATOM     19  N   UNL     1      48.713   6.638  15.769  0.00  0.00    +0.000 NA
ATOM     20  C   UNL     1      50.036   6.714  16.410  0.00  0.00    +0.000 C 
ATOM     21  C   UNL     1      49.976   6.355  17.896  0.00  0.00    +0.000 C 
BRANCH  16  22
ATOM     22  C   UNL     1      50.265   3.797  17.638  0.00  0.00    +0.000 C 
BRANCH  22  23
ATOM     23  C   UNL     1      49.522   2.468  17.501  0.00  0.00    +0.000 C 
BRANCH  23  24
ATOM     24  N   UNL     1      49.772   1.894  16.182  0.00  0.00    +0.000 NA
ATOM     25  H   UNL     1      49.297   0.996  16.109  0.00  0.00    +0.000 HD
ATOM     26  H   UNL     1      50.767   1.701  16.072  0.00  0.00    +0.000 HD
ENDBRANCH  23  24
ENDBRANCH  22  23
ENDBRANCH  16  22
ENDBRANCH  15  19
ENDBRANCH   1  15
TORSDOF 6
ENDMDL
MODEL 3
REMARK VINA RESULT:    -5.972      3.233      6.962
REMARK INTER + INTRA:          -8.171
REMARK INTER:                  -7.821
REMARK INTRA:                  -0.350
REMARK UNBOUND:                -0.278
REMARK  Name = 
REMARK  6 active torsions:
REMARK  status: ('A' for Active; 'I' for Inactive)
REMARK    1  A    between atoms: N_1  and  C_2
REMARK    2  A    between atoms: C_2  and  C_3
REMARK    3  A    between atoms: C_3  and  C_4
REMARK    4  A    between atoms: N_7  and  C_8
REMARK    5  A    between atoms: C_8  and  C_9
REMARK    6  A    between atoms: C_14  and  C_15
REMARK                            x       y       z     vdW  Elec       q    Type
REMARK                         _______ _______ _______ _____ _____    ______ ____
ROOT
ATOM      1  C   UNL     1      45.622   6.283  11.804  0.00  0.00    +0.000 A 
ATOM      2  N   UNL     1      44.537   7.023  11.565  0.00  0.00    +0.000 NA
ATOM      3  S   UNL     1      44.918   8.616  11.740  0.00  0.00    +0.000 S 
ATOM      4  C   UNL     1      46.569   8.377  12.150  0.00  0.00    +0.000 A 
ATOM      5  C   UNL     1      47.539   9.331  12.515  0.00  0.00    +0.000 A 
ATOM      6  C   UNL     1      48.830   8.882  12.824  0.00  0.00    +0.000 A 
ATOM      7  C   UNL     1      49.138   7.522  12.713  0.00  0.00    +0.000 A 
ATOM      8  C   UNL     1      48.162   6.587  12.348  0.00  0.00    +0.000 A 
ATOM      9  C   UNL     1      46.841   7.011  12.084  0.00  0.00    +0.000 A 
ENDROOT
BRANCH   6  10
ATOM     10  C   UNL     1      49.909   9.797  13.300  0.00  0.00    +0.000 C 
ATOM     11  N   UNL     1      51.005   9.263  13.913  0.00  0.00    +0.000 N 
ATOM     12  O   UNL     1      49.838  11.010  13.130  0.00  0.00    +0.000 OA
ATOM     13  H   UNL     1      51.183   8.282  14.052  0.00  0.00    +0.000 HD
ATOM     14  H   UNL     1      51.737   9.913  14.174  0.00  0.00    +0.000 HD
ENDBRANCH   6  10
BRANCH   1  15
ATOM     15  C   UNL     1      45.466   4.784  11.818  0.00  0.00    +0.000 C 
BRANCH  15  19
ATOM     16  C   UNL     1      45.136   2.668   8.053  0.00  0.00    +0.000 C 
ATOM     17  C   UNL     1      45.144   4.203   8.057  0.00  0.00    +0.000 C 
ATOM     18  C   UNL     1      45.660   4.778   9.380  0.00  0.00    +0.000 C 
ATOM     19  N   UNL     1      44.901   4.276  10.541  0.00  0.00    +0.000 NA
ATOM     20  C   UNL     1      44.873   2.805  10.579  0.00  0.00    +0.000 C 
ATOM     21  C   UNL     1      44.334   2.206   9.278  0.00  0.00    +0.000 C 
BRANCH  16  22
ATOM     22  C   UNL     1      46.579   2.116   7.993  0.00  0.00    +0.000 C 
BRANCH  22  23
ATOM     23  C   UNL     1      47.438   2.751   6.900  0.00  0.00    +0.000 C 
BRANCH  23  24
ATOM     24  N   UNL     1      48.333   1.749   6.328  0.00  0.00    +0.000 NA
ATOM     25  H   UNL     1      48.915   1.357   7.066  0.00  0.00    +0.000 HD
ATOM     26  H   UNL     1      48.970   2.193   5.667  0.00  0.00    +0.000 HD
ENDBRANCH  23  24
ENDBRANCH  22  23
ENDBRANCH  16  22
ENDBRANCH  15  19
ENDBRANCH   1  15
TORSDOF 6
ENDMDL
MODEL 4
REMARK VINA RESULT:    -5.968      3.273      6.692
REMARK INTER + INTRA:          -8.165
REMARK INTER:                  -8.073
REMARK INTRA:                  -0.092
REMARK UNBOUND:                -0.278
REMARK  Name = 
REMARK  6 active torsions:
REMARK  status: ('A' for Active; 'I' for Inactive)
REMARK    1  A    between atoms: N_1  and  C_2
REMARK    2  A    between atoms: C_2  and  C_3
REMARK    3  A    between atoms: C_3  and  C_4
REMARK    4  A    between atoms: N_7  and  C_8
REMARK    5  A    between atoms: C_8  and  C_9
REMARK    6  A    between atoms: C_14  and  C_15
REMARK                            x       y       z     vdW  Elec       q    Type
REMARK                         _______ _______ _______ _____ _____    ______ ____
ROOT
ATOM      1  C   UNL     1      45.716   4.900  12.457  0.00  0.00    +0.000 A 
ATOM      2  N   UNL     1      46.792   4.671  13.213  0.00  0.00    +0.000 NA
ATOM      3  S   UNL     1      47.463   6.110  13.651  0.00  0.00    +0.000 S 
ATOM      4  C   UNL     1      46.329   7.109  12.836  0.00  0.00    +0.000 A 
ATOM      5  C   UNL     1      46.312   8.512  12.710  0.00  0.00    +0.000 A 
ATOM      6  C   UNL     1      45.277   9.102  11.972  0.00  0.00    +0.000 A 
ATOM      7  C   UNL     1      44.268   8.301  11.429  0.00  0.00    +0.000 A 
ATOM      8  C   UNL     1      44.298   6.908  11.563  0.00  0.00    +0.000 A 
ATOM      9  C   UNL     1      45.361   6.289  12.258  0.00  0.00    +0.000 A 
ENDROOT
BRANCH   6  10
ATOM     10  C   UNL     1      45.210  10.570  11.709  0.00  0.00    +0.000 C 
ATOM     11  N   UNL     1      46.181  11.378  12.225  0.00  0.00    +0.000 N 
ATOM     12  O   UNL     1      44.315  11.055  11.024  0.00  0.00    +0.000 OA
ATOM     13  H   UNL     1      46.983  11.073  12.752  0.00  0.00    +0.000 HD
ATOM     14  H   UNL     1      46.128  12.359  11.980  0.00  0.00    +0.000 HD
ENDBRANCH   6  10
BRANCH   1  15
ATOM     15  C   UNL     1      45.017   3.713  11.844  0.00  0.00    +0.000 C 
BRANCH  15  19
ATOM     16  C   UNL     1      45.552   3.207   7.576  0.00  0.00    +0.000 C 
ATOM     17  C   UNL     1      45.896   4.556   8.224  0.00  0.00    +0.000 C 
ATOM     18  C   UNL     1      46.036   4.450   9.746  0.00  0.00    +0.000 C 
ATOM     19  N   UNL     1      44.831   3.880  10.379  0.00  0.00    +0.000 NA
ATOM     20  C   UNL     1      44.470   2.581   9.790  0.00  0.00    +0.000 C 
ATOM     21  C   UNL     1      44.296   2.665   8.271  0.00  0.00    +0.000 C 
BRANCH  16  22
ATOM     22  C   UNL     1      46.768   2.254   7.626  0.00  0.00    +0.000 C 
BRANCH  22  23
ATOM     23  C   UNL     1      47.972   2.745   6.823  0.00  0.00    +0.000 C 
BRANCH  23  24
ATOM     24  N   UNL     1      48.331   1.756   5.811  0.00  0.00    +0.000 NA
ATOM     25  H   UNL     1      47.525   1.576   5.215  0.00  0.00    +0.000 HD
ATOM     26  H   UNL     1      48.558   0.869   6.260  0.00  0.00    +0.000 HD
ENDBRANCH  23  24
ENDBRANCH  22  23
ENDBRANCH  16  22
ENDBRANCH  15  19
ENDBRANCH   1  15
TORSDOF 6
ENDMDL
MODEL 5
REMARK VINA RESULT:    -5.899      5.127      8.337
REMARK INTER + INTRA:          -8.074
REMARK INTER:                  -7.788
REMARK INTRA:                  -0.286
REMARK UNBOUND:                -0.278
REMARK  Name = 
REMARK  6 active torsions:
REMARK  status: ('A' for Active; 'I' for Inactive)
REMARK    1  A    between atoms: N_1  and  C_2
REMARK    2  A    between atoms: C_2  and  C_3
REMARK    3  A    between atoms: C_3  and  C_4
REMARK    4  A    between atoms: N_7  and  C_8
REMARK    5  A    between atoms: C_8  and  C_9
REMARK    6  A    between atoms: C_14  and  C_15
REMARK                            x       y       z     vdW  Elec       q    Type
REMARK                         _______ _______ _______ _____ _____    ______ ____
ROOT
ATOM      1  C   UNL     1      47.343   4.717  15.279  0.00  0.00    +0.000 A 
ATOM      2  N   UNL     1      46.831   3.640  15.879  0.00  0.00    +0.000 NA
ATOM      3  S   UNL     1      47.531   3.458  17.358  0.00  0.00    +0.000 S 
ATOM      4  C   UNL     1      48.563   4.827  17.254  0.00  0.00    +0.000 A 
ATOM      5  C   UNL     1      49.537   5.274  18.168  0.00  0.00    +0.000 A 
ATOM      6  C   UNL     1      50.271   6.425  17.848  0.00  0.00    +0.000 A 
ATOM      7  C   UNL     1      49.988   7.124  16.670  0.00  0.00    +0.000 A 
ATOM      8  C   UNL     1      49.017   6.666  15.772  0.00  0.00    +0.000 A 
ATOM      9  C   UNL     1      48.302   5.480  16.050  0.00  0.00    +0.000 A 
ENDROOT
BRANCH   6  10
ATOM     10  C   UNL     1      51.380   6.937  18.705  0.00  0.00    +0.000 C 
ATOM     11  N   UNL     1      52.658   6.538  18.440  0.00  0.00    +0.000 N 
ATOM     12  O   UNL     1      51.167   7.723  19.623  0.00  0.00    +0.000 OA
ATOM     13  H   UNL     1      52.944   5.941  17.681  0.00  0.00    +0.000 HD
ATOM     14  H   UNL     1      53.387   6.949  19.012  0.00  0.00    +0.000 HD
ENDBRANCH   6  10
BRANCH   1  15
ATOM     15  C   UNL     1      46.929   4.999  13.858  0.00  0.00    +0.000 C 
BRANCH  15  19
ATOM     16  C   UNL     1      43.245   4.164  11.738  0.00  0.00    +0.000 C 
ATOM     17  C   UNL     1      43.238   5.175  12.893  0.00  0.00    +0.000 C 
ATOM     18  C   UNL     1      44.648   5.648  13.260  0.00  0.00    +0.000 C 
ATOM     19  N   UNL     1      45.548   4.524  13.581  0.00  0.00    +0.000 NA
ATOM     20  C   UNL     1      45.590   3.533  12.494  0.00  0.00    +0.000 C 
ATOM     21  C   UNL     1      44.194   3.023  12.127  0.00  0.00    +0.000 C 
BRANCH  16  22
ATOM     22  C   UNL     1      43.604   4.862  10.406  0.00  0.00    +0.000 C 
BRANCH  22  23
ATOM     23  C   UNL     1      44.259   3.936   9.380  0.00  0.00    +0.000 C 
BRANCH  23  24
ATOM     24  N   UNL     1      45.185   4.697   8.546  0.00  0.00    +0.000 NA
ATOM     25  H   UNL     1      45.311   4.217   7.657  0.00  0.00    +0.000 HD
ATOM     26  H   UNL     1      46.104   4.725   8.988  0.00  0.00    +0.000 HD
ENDBRANCH  23  24
ENDBRANCH  22  23
ENDBRANCH  16  22
ENDBRANCH  15  19
ENDBRANCH   1  15
TORSDOF 6
ENDMDL
MODEL 6
REMARK VINA RESULT:    -5.690      4.641      6.630
REMARK INTER + INTRA:          -7.797
REMARK INTER:                  -7.443
REMARK INTRA:                  -0.355
REMARK UNBOUND:                -0.278
REMARK  Name = 
REMARK  6 active torsions:
REMARK  status: ('A' for Active; 'I' for Inactive)
REMARK    1  A    between atoms: N_1  and  C_2
REMARK    2  A    between atoms: C_2  and  C_3
REMARK    3  A    between atoms: C_3  and  C_4
REMARK    4  A    between atoms: N_7  and  C_8
REMARK    5  A    between atoms: C_8  and  C_9
REMARK    6  A    between atoms: C_14  and  C_15
REMARK                            x       y       z     vdW  Elec       q    Type
REMARK                         _______ _______ _______ _____ _____    ______ ____
ROOT
ATOM      1  C   UNL     1      46.140   4.608  13.461  0.00  0.00    +0.000 A 
ATOM      2  N   UNL     1      44.902   4.111  13.434  0.00  0.00    +0.000 NA
ATOM      3  S   UNL     1      43.863   5.272  12.899  0.00  0.00    +0.000 S 
ATOM      4  C   UNL     1      45.042   6.501  12.681  0.00  0.00    +0.000 A 
ATOM      5  C   UNL     1      44.862   7.843  12.291  0.00  0.00    +0.000 A 
ATOM      6  C   UNL     1      45.993   8.666  12.198  0.00  0.00    +0.000 A 
ATOM      7  C   UNL     1      47.262   8.132  12.439  0.00  0.00    +0.000 A 
ATOM      8  C   UNL     1      47.425   6.796  12.826  0.00  0.00    +0.000 A 
ATOM      9  C   UNL     1      46.294   5.963  12.977  0.00  0.00    +0.000 A 
ENDROOT
BRANCH   6  10
ATOM     10  C   UNL     1      45.906  10.120  11.873  0.00  0.00    +0.000 C 
ATOM     11  N   UNL     1      44.743  10.786  12.132  0.00  0.00    +0.000 N 
ATOM     12  O   UNL     1      46.862  10.727  11.403  0.00  0.00    +0.000 OA
ATOM     13  H   UNL     1      43.923  10.393  12.563  0.00  0.00    +0.000 HD
ATOM     14  H   UNL     1      44.742  11.782  11.945  0.00  0.00    +0.000 HD
ENDBRANCH   6  10
BRANCH   1  15
ATOM     15  C   UNL     1      47.235   3.748  14.038  0.00  0.00    +0.000 C 
BRANCH  15  19
ATOM     16  C   UNL     1      48.878   4.180  18.023  0.00  0.00    +0.000 C 
ATOM     17  C   UNL     1      48.181   2.869  17.633  0.00  0.00    +0.000 C 
ATOM     18  C   UNL     1      48.022   2.724  16.116  0.00  0.00    +0.000 C 
ATOM     19  N   UNL     1      47.310   3.870  15.518  0.00  0.00    +0.000 NA
ATOM     20  C   UNL     1      47.951   5.149  15.862  0.00  0.00    +0.000 C 
ATOM     21  C   UNL     1      48.096   5.331  17.375  0.00  0.00    +0.000 C 
BRANCH  16  22
ATOM     22  C   UNL     1      50.375   4.135  17.640  0.00  0.00    +0.000 C 
BRANCH  22  23
ATOM     23  C   UNL     1      51.322   4.310  18.829  0.00  0.00    +0.000 C 
BRANCH  23  24
ATOM     24  N   UNL     1      50.551   4.453  20.060  0.00  0.00    +0.000 NA
ATOM     25  H   UNL     1      50.361   5.439  20.227  0.00  0.00    +0.000 HD
ATOM     26  H   UNL     1      51.104   4.129  20.853  0.00  0.00    +0.000 HD
ENDBRANCH  23  24
ENDBRANCH  22  23
ENDBRANCH  16  22
ENDBRANCH  15  19
ENDBRANCH   1  15
TORSDOF 6
ENDMDL
MODEL 7
REMARK VINA RESULT:    -5.607      3.220      5.539
REMARK INTER + INTRA:          -7.688
REMARK INTER:                  -7.268
REMARK INTRA:                  -0.421
REMARK UNBOUND:                -0.278
REMARK  Name = 
REMARK  6 active torsions:
REMARK  status: ('A' for Active; 'I' for Inactive)
REMARK    1  A    between atoms: N_1  and  C_2
REMARK    2  A    between atoms: C_2  and  C_3
REMARK    3  A    between atoms: C_3  and  C_4
REMARK    4  A    between atoms: N_7  and  C_8
REMARK    5  A    between atoms: C_8  and  C_9
REMARK    6  A    between atoms: C_14  and  C_15
REMARK                            x       y       z     vdW  Elec       q    Type
REMARK                         _______ _______ _______ _____ _____    ______ ____
ROOT
ATOM      1  C   UNL     1      47.919   6.451  13.835  0.00  0.00    +0.000 A 
ATOM      2  N   UNL     1      48.065   5.684  14.918  0.00  0.00    +0.000 NA
ATOM      3  S   UNL     1      47.086   4.366  14.785  0.00  0.00    +0.000 S 
ATOM      4  C   UNL     1      46.417   4.775  13.257  0.00  0.00    +0.000 A 
ATOM      5  C   UNL     1      45.417   4.110  12.520  0.00  0.00    +0.000 A 
ATOM      6  C   UNL     1      45.024   4.655  11.290  0.00  0.00    +0.000 A 
ATOM      7  C   UNL     1      45.663   5.799  10.801  0.00  0.00    +0.000 A 
ATOM      8  C   UNL     1      46.656   6.448  11.545  0.00  0.00    +0.000 A 
ATOM      9  C   UNL     1      47.029   5.946  12.812  0.00  0.00    +0.000 A 
ENDROOT
BRANCH   6  10
ATOM     10  C   UNL     1      43.919   4.077  10.469  0.00  0.00    +0.000 C 
ATOM     11  N   UNL     1      43.855   4.383   9.140  0.00  0.00    +0.000 N 
ATOM     12  O   UNL     1      43.088   3.321  10.961  0.00  0.00    +0.000 OA
ATOM     13  H   UNL     1      44.515   4.947   8.633  0.00  0.00    +0.000 HD
ATOM     14  H   UNL     1      43.120   3.930   8.609  0.00  0.00    +0.000 HD
ENDBRANCH   6  10
BRANCH   1  15
ATOM     15  C   UNL     1      48.636   7.777  13.806  0.00  0.00    +0.000 C 
BRANCH  15  19
ATOM     16  C   UNL     1      52.205   8.869  11.609  0.00  0.00    +0.000 C 
ATOM     17  C   UNL     1      51.234   7.843  11.008  0.00  0.00    +0.000 C 
ATOM     18  C   UNL     1      49.864   7.869  11.693  0.00  0.00    +0.000 C 
ATOM     19  N   UNL     1      49.966   7.671  13.152  0.00  0.00    +0.000 NA
ATOM     20  C   UNL     1      50.884   8.640  13.770  0.00  0.00    +0.000 C 
ATOM     21  C   UNL     1      52.270   8.615  13.121  0.00  0.00    +0.000 C 
BRANCH  16  22
ATOM     22  C   UNL     1      51.785  10.306  11.224  0.00  0.00    +0.000 C 
BRANCH  22  23
ATOM     23  C   UNL     1      52.322  10.764   9.867  0.00  0.00    +0.000 C 
BRANCH  23  24
ATOM     24  N   UNL     1      53.665  10.231   9.659  0.00  0.00    +0.000 NA
ATOM     25  H   UNL     1      54.235  10.929   9.185  0.00  0.00    +0.000 HD
ATOM     26  H   UNL     1      53.624   9.424   9.037  0.00  0.00    +0.000 HD
ENDBRANCH  23  24
ENDBRANCH  22  23
ENDBRANCH  16  22
ENDBRANCH  15  19
ENDBRANCH   1  15
TORSDOF 6
ENDMDL
MODEL 8
REMARK VINA RESULT:    -5.568      5.266      8.666
REMARK INTER + INTRA:          -7.636
REMARK INTER:                  -7.124
REMARK INTRA:                  -0.513
REMARK UNBOUND:                -0.278
REMARK  Name = 
REMARK  6 active torsions:
REMARK  status: ('A' for Active; 'I' for Inactive)
REMARK    1  A    between atoms: N_1  and  C_2
REMARK    2  A    between atoms: C_2  and  C_3
REMARK    3  A    between atoms: C_3  and  C_4
REMARK    4  A    between atoms: N_7  and  C_8
REMARK    5  A    between atoms: C_8  and  C_9
REMARK    6  A    between atoms: C_14  and  C_15
REMARK                            x       y       z     vdW  Elec       q    Type
REMARK                         _______ _______ _______ _____ _____    ______ ____
ROOT
ATOM      1  C   UNL     1      48.595   6.892  14.593  0.00  0.00    +0.000 A 
ATOM      2  N   UNL     1      48.962   8.175  14.580  0.00  0.00    +0.000 NA
ATOM      3  S   UNL     1      49.187   8.691  16.129  0.00  0.00    +0.000 S 
ATOM      4  C   UNL     1      48.797   7.201  16.888  0.00  0.00    +0.000 A 
ATOM      5  C   UNL     1      48.709   6.902  18.261  0.00  0.00    +0.000 A 
ATOM      6  C   UNL     1      48.352   5.599  18.638  0.00  0.00    +0.000 A 
ATOM      7  C   UNL     1      48.147   4.625  17.656  0.00  0.00    +0.000 A 
ATOM      8  C   UNL     1      48.239   4.937  16.295  0.00  0.00    +0.000 A 
ATOM      9  C   UNL     1      48.545   6.257  15.893  0.00  0.00    +0.000 A 
ENDROOT
BRANCH   6  10
ATOM     10  C   UNL     1      48.151   5.198  20.061  0.00  0.00    +0.000 C 
ATOM     11  N   UNL     1      48.543   3.952  20.458  0.00  0.00    +0.000 N 
ATOM     12  O   UNL     1      47.665   5.972  20.879  0.00  0.00    +0.000 OA
ATOM     13  H   UNL     1      48.999   3.266  19.879  0.00  0.00    +0.000 HD
ATOM     14  H   UNL     1      48.437   3.739  21.442  0.00  0.00    +0.000 HD
ENDBRANCH   6  10
BRANCH   1  15
ATOM     15  C   UNL     1      48.217   6.251  13.282  0.00  0.00    +0.000 C 
BRANCH  15  19
ATOM     16  C   UNL     1      44.319   5.450  11.574  0.00  0.00    +0.000 C 
ATOM     17  C   UNL     1      44.964   6.827  11.366  0.00  0.00    +0.000 C 
ATOM     18  C   UNL     1      46.465   6.817  11.673  0.00  0.00    +0.000 C 
ATOM     19  N   UNL     1      46.754   6.326  13.034  0.00  0.00    +0.000 NA
ATOM     20  C   UNL     1      46.157   5.003  13.273  0.00  0.00    +0.000 C 
ATOM     21  C   UNL     1      44.651   4.993  13.000  0.00  0.00    +0.000 C 
BRANCH  16  22
ATOM     22  C   UNL     1      44.769   4.466  10.470  0.00  0.00    +0.000 C 
BRANCH  22  23
ATOM     23  C   UNL     1      44.047   3.119  10.511  0.00  0.00    +0.000 C 
BRANCH  23  24
ATOM     24  N   UNL     1      44.786   2.135   9.726  0.00  0.00    +0.000 NA
ATOM     25  H   UNL     1      45.021   1.339  10.316  0.00  0.00    +0.000 HD
ATOM     26  H   UNL     1      45.673   2.535   9.419  0.00  0.00    +0.000 HD
ENDBRANCH  23  24
ENDBRANCH  22  23
ENDBRANCH  16  22
ENDBRANCH  15  19
ENDBRANCH   1  15
TORSDOF 6
ENDMDL
MODEL 9
REMARK VINA RESULT:    -5.355      4.446      6.247
REMARK INTER + INTRA:          -7.355
REMARK INTER:                  -6.953
REMARK INTRA:                  -0.402
REMARK UNBOUND:                -0.278
REMARK  Name = 
REMARK  6 active torsions:
REMARK  status: ('A' for Active; 'I' for Inactive)
REMARK    1  A    between atoms: N_1  and  C_2
REMARK    2  A    between atoms: C_2  and  C_3
REMARK    3  A    between atoms: C_3  and  C_4
REMARK    4  A    between atoms: N_7  and  C_8
REMARK    5  A    between atoms: C_8  and  C_9
REMARK    6  A    between atoms: C_14  and  C_15
REMARK                            x       y       z     vdW  Elec       q    Type
REMARK                         _______ _______ _______ _____ _____    ______ ____
ROOT
ATOM      1  C   UNL     1      47.480   6.968  13.716  0.00  0.00    +0.000 A 
ATOM      2  N   UNL     1      47.071   8.205  13.427  0.00  0.00    +0.000 NA
ATOM      3  S   UNL     1      45.690   8.124  12.532  0.00  0.00    +0.000 S 
ATOM      4  C   UNL     1      45.585   6.410  12.492  0.00  0.00    +0.000 A 
ATOM      5  C   UNL     1      44.654   5.595  11.820  0.00  0.00    +0.000 A 
ATOM      6  C   UNL     1      44.787   4.204  11.929  0.00  0.00    +0.000 A 
ATOM      7  C   UNL     1      45.794   3.664  12.735  0.00  0.00    +0.000 A 
ATOM      8  C   UNL     1      46.712   4.488  13.397  0.00  0.00    +0.000 A 
ATOM      9  C   UNL     1      46.628   5.891  13.258  0.00  0.00    +0.000 A 
ENDROOT
BRANCH   6  10
ATOM     10  C   UNL     1      43.905   3.250  11.194  0.00  0.00    +0.000 C 
ATOM     11  N   UNL     1      43.494   2.111  11.824  0.00  0.00    +0.000 N 
ATOM     12  O   UNL     1      43.530   3.481  10.049  0.00  0.00    +0.000 OA
ATOM     13  H   UNL     1      43.701   1.857  12.775  0.00  0.00    +0.000 HD
ATOM     14  H   UNL     1      42.855   1.517  11.309  0.00  0.00    +0.000 HD
ENDBRANCH   6  10
BRANCH   1  15
ATOM     15  C   UNL     1      48.799   6.807  14.429  0.00  0.00    +0.000 C 
BRANCH  15  19
ATOM     16  C   UNL     1      49.492   5.883  18.603  0.00  0.00    +0.000 C 
ATOM     17  C   UNL     1      48.229   5.351  17.913  0.00  0.00    +0.000 C 
ATOM     18  C   UNL     1      48.330   5.417  16.385  0.00  0.00    +0.000 C 
ATOM     19  N   UNL     1      48.629   6.780  15.905  0.00  0.00    +0.000 NA
ATOM     20  C   UNL     1      49.839   7.327  16.539  0.00  0.00    +0.000 C 
ATOM     21  C   UNL     1      49.752   7.297  18.066  0.00  0.00    +0.000 C 
BRANCH  16  22
ATOM     22  C   UNL     1      50.673   4.904  18.410  0.00  0.00    +0.000 C 
BRANCH  22  23
ATOM     23  C   UNL     1      51.576   4.776  19.637  0.00  0.00    +0.000 C 
BRANCH  23  24
ATOM     24  N   UNL     1      50.766   4.533  20.826  0.00  0.00    +0.000 NA
ATOM     25  H   UNL     1      50.041   5.246  20.892  0.00  0.00    +0.000 HD
ATOM     26  H   UNL     1      51.342   4.632  21.663  0.00  0.00    +0.000 HD
ENDBRANCH  23  24
ENDBRANCH  22  23
ENDBRANCH  16  22
ENDBRANCH  15  19
ENDBRANCH   1  15
TORSDOF 6
ENDMDL
