MODEL 1
REMARK VINA RESULT:    -6.335      0.000      0.000
REMARK INTER + INTRA:          -9.025
REMARK INTER:                  -8.372
REMARK INTRA:                  -0.653
REMARK UNBOUND:                -0.653
REMARK  Name = 
REMARK  8 active torsions:
REMARK  status: ('A' for Active; 'I' for Inactive)
REMARK    1  A    between atoms: C_1  and  O_2
REMARK    2  A    between atoms: O_2  and  C_3
REMARK    3  A    between atoms: C_6  and  C_7
REMARK    4  A    between atoms: C_7  and  C_8
REMARK    5  A    between atoms: C_8  and  C_9
REMARK    6  A    between atoms: C_11  and  C_12
REMARK    7  A    between atoms: C_12  and  O_13
REMARK    8  A    between atoms: C_15  and  C_16
REMARK                            x       y       z     vdW  Elec       q    Type
REMARK                         _______ _______ _______ _____ _____    ______ ____
ROOT
ATOM      1  C   UNL     1      43.760   5.329  11.689  0.00  0.00    +0.000 C 
ATOM      2  C   UNL     1      42.234   5.380  11.655  0.00  0.00    +0.000 C 
ATOM      3  C   UNL     1      43.015   6.621  11.362  0.00  0.00    +0.000 C 
ENDROOT
BRANCH   1   7
ATOM      4  C   UNL     1      45.619   2.983   8.489  0.00  0.00    +0.000 A 
ATOM      5  C   UNL     1      44.862   2.359   9.478  0.00  0.00    +0.000 A 
ATOM      6  C   UNL     1      44.264   3.123  10.491  0.00  0.00    +0.000 A 
ATOM      7  C   UNL     1      44.423   4.518  10.570  0.00  0.00    +0.000 A 
ATOM      8  C   UNL     1      45.213   5.116   9.575  0.00  0.00    +0.000 A 
ATOM      9  C   UNL     1      45.787   4.364   8.545  0.00  0.00    +0.000 A 
BRANCH   4  11
ATOM     10  C   UNL     1      46.814   1.096   7.679  0.00  0.00    +0.000 C 
ATOM     11  O   UNL     1      46.236   2.370   7.435  0.00  0.00    +0.000 OA
ENDBRANCH   4  11
ENDBRANCH   1   7
BRANCH   1  12
ATOM     12  C   UNL     1      44.428   5.246  13.064  0.00  0.00    +0.000 C 
BRANCH  12  13
ATOM     13  C   UNL     1      45.870   5.659  13.111  0.00  0.00    +0.000 A 
ATOM     14  S   UNL     1      46.328   7.267  12.724  0.00  0.00    +0.000 S 
ATOM     15  C   UNL     1      47.970   6.857  12.975  0.00  0.00    +0.000 A 
ATOM     16  N   UNL     1      48.194   5.617  13.362  0.00  0.00    +0.000 NA
ATOM     17  C   UNL     1      46.994   4.925  13.453  0.00  0.00    +0.000 A 
ATOM     18  C   UNL     1      47.044   3.506  13.898  0.00  0.00    +0.000 C 
BRANCH  15  19
ATOM     19  C   UNL     1      49.055   7.859  12.738  0.00  0.00    +0.000 C 
BRANCH  19  20
ATOM     20  O   UNL     1      50.274   7.315  13.247  0.00  0.00    +0.000 OA
ATOM     21  H   UNL     1      50.983   7.876  12.879  0.00  0.00    +0.000 HD
ENDBRANCH  19  20
ENDBRANCH  15  19
ENDBRANCH  12  13
ENDBRANCH   1  12
TORSDOF 6
ENDMDL
MODEL 2
REMARK VINA RESULT:    -6.075      2.397      5.700
REMARK INTER + INTRA:          -8.682
REMARK INTER:                  -8.150
REMARK INTRA:                  -0.532
REMARK UNBOUND:                -0.653
REMARK  Name = 
REMARK  8 active torsions:
REMARK  status: ('A' for Active; 'I' for Inactive)
REMARK    1  A    between atoms: C_1  and  O_2
REMARK    2  A    between atoms: O_2  and  C_3
REMARK    3  A    between atoms: C_6  and  C_7
REMARK    4  A    between atoms: C_7  and  C_8
REMARK    5  A    between atoms: C_8  and  C_9
REMARK    6  A    between atoms: C_11  and  C_12
REMARK    7  A    between atoms: C_12  and  O_13
REMARK    8  A    between atoms: C_15  and  C_16
REMARK                            x       y       z     vdW  Elec       q    Type
REMARK                         _______ _______ _______ _____ _____    ______ ____
ROOT
ATOM      1  C   UNL     1      44.024   4.684  11.116  0.00  0.00    +0.000 C 
ATOM      2  C   UNL     1      42.743   5.032  11.869  0.00  0.00    +0.000 C 
ATOM      3  C   UNL     1      43.199   3.609  11.818  0.00  0.00    +0.000 C 
ENDROOT
BRANCH   1   7
ATOM      4  C   UNL     1      47.730   6.178  12.916  0.00  0.00    +0.000 A 
ATOM      5  C   UNL     1      47.158   6.830  11.827  0.00  0.00    +0.000 A 
ATOM      6  C   UNL     1      45.966   6.347  11.265  0.00  0.00    +0.000 A 
ATOM      7  C   UNL     1      45.326   5.191  11.748  0.00  0.00    +0.000 A 
ATOM      8  C   UNL     1      45.939   4.540  12.830  0.00  0.00    +0.000 A 
ATOM      9  C   UNL     1      47.111   5.034  13.413  0.00  0.00    +0.000 A 
BRANCH   4  11
ATOM     10  C   UNL     1      48.775   6.716  14.981  0.00  0.00    +0.000 C 
ATOM     11  O   UNL     1      48.869   6.548  13.573  0.00  0.00    +0.000 OA
ENDBRANCH   4  11
ENDBRANCH   1   7
BRANCH   1  12
ATOM     12  C   UNL     1      43.967   4.710   9.587  0.00  0.00    +0.000 C 
BRANCH  12  13
ATOM     13  C   UNL     1      44.953   3.823   8.885  0.00  0.00    +0.000 A 
ATOM     14  S   UNL     1      46.266   4.500   8.011  0.00  0.00    +0.000 S 
ATOM     15  C   UNL     1      46.774   2.929   7.562  0.00  0.00    +0.000 A 
ATOM     16  N   UNL     1      46.055   1.938   8.049  0.00  0.00    +0.000 NA
ATOM     17  C   UNL     1      45.014   2.440   8.817  0.00  0.00    +0.000 A 
ATOM     18  C   UNL     1      44.101   1.465   9.471  0.00  0.00    +0.000 C 
BRANCH  15  19
ATOM     19  C   UNL     1      47.948   2.733   6.657  0.00  0.00    +0.000 C 
BRANCH  19  20
ATOM     20  O   UNL     1      48.236   1.335   6.607  0.00  0.00    +0.000 OA
ATOM     21  H   UNL     1      48.901   1.181   7.306  0.00  0.00    +0.000 HD
ENDBRANCH  19  20
ENDBRANCH  15  19
ENDBRANCH  12  13
ENDBRANCH   1  12
TORSDOF 6
ENDMDL
MODEL 3
REMARK VINA RESULT:    -5.678      2.694      6.032
REMARK INTER + INTRA:          -8.157
REMARK INTER:                  -7.294
REMARK INTRA:                  -0.862
REMARK UNBOUND:                -0.653
REMARK  Name = 
REMARK  8 active torsions:
REMARK  status: ('A' for Active; 'I' for Inactive)
REMARK    1  A    between atoms: C_1  and  O_2
REMARK    2  A    between atoms: O_2  and  C_3
REMARK    3  A    between atoms: C_6  and  C_7
REMARK    4  A    between atoms: C_7  and  C_8
REMARK    5  A    between atoms: C_8  and  C_9
REMARK    6  A    between atoms: C_11  and  C_12
REMARK    7  A    between atoms: C_12  and  O_13
REMARK    8  A    between atoms: C_15  and  C_16
REMARK                            x       y       z     vdW  Elec       q    Type
REMARK                         _______ _______ _______ _____ _____    ______ ____
ROOT
ATOM      1  C   UNL     1      44.310   4.334  11.635  0.00  0.00    +0.000 C 
ATOM      2  C   UNL     1      43.448   3.867  12.806  0.00  0.00    +0.000 C 
ATOM      3  C   UNL     1      44.735   3.164  12.518  0.00  0.00    +0.000 C 
ENDROOT
BRANCH   1   7
ATOM      4  C   UNL     1      46.242   8.240  12.096  0.00  0.00    +0.000 A 
ATOM      5  C   UNL     1      46.931   7.068  12.397  0.00  0.00    +0.000 A 
ATOM      6  C   UNL     1      46.304   5.823  12.237  0.00  0.00    +0.000 A 
ATOM      7  C   UNL     1      44.972   5.707  11.802  0.00  0.00    +0.000 A 
ATOM      8  C   UNL     1      44.294   6.906  11.530  0.00  0.00    +0.000 A 
ATOM      9  C   UNL     1      44.923   8.149  11.659  0.00  0.00    +0.000 A 
BRANCH   4  11
ATOM     10  C   UNL     1      47.883   9.705  12.993  0.00  0.00    +0.000 C 
ATOM     11  O   UNL     1      46.732   9.512  12.183  0.00  0.00    +0.000 OA
ENDBRANCH   4  11
ENDBRANCH   1   7
BRANCH   1  12
ATOM     12  C   UNL     1      43.819   3.993  10.225  0.00  0.00    +0.000 C 
BRANCH  12  13
ATOM     13  C   UNL     1      44.841   3.378   9.314  0.00  0.00    +0.000 A 
ATOM     14  S   UNL     1      44.834   1.688   9.013  0.00  0.00    +0.000 S 
ATOM     15  C   UNL     1      46.214   1.863   8.016  0.00  0.00    +0.000 A 
ATOM     16  N   UNL     1      46.653   3.096   7.865  0.00  0.00    +0.000 NA
ATOM     17  C   UNL     1      45.866   3.974   8.597  0.00  0.00    +0.000 A 
ATOM     18  C   UNL     1      46.198   5.423   8.534  0.00  0.00    +0.000 C 
BRANCH  15  19
ATOM     19  C   UNL     1      46.865   0.670   7.394  0.00  0.00    +0.000 C 
BRANCH  19  20
ATOM     20  O   UNL     1      47.948   1.132   6.585  0.00  0.00    +0.000 OA
ATOM     21  H   UNL     1      48.161   2.025   6.919  0.00  0.00    +0.000 HD
ENDBRANCH  19  20
ENDBRANCH  15  19
ENDBRANCH  12  13
ENDBRANCH   1  12
TORSDOF 6
ENDMDL
MODEL 4
REMARK VINA RESULT:    -5.459      2.483      6.148
REMARK INTER + INTRA:          -7.868
REMARK INTER:                  -7.170
REMARK INTRA:                  -0.699
REMARK UNBOUND:                -0.653
REMARK  Name = 
REMARK  8 active torsions:
REMARK  status: ('A' for Active; 'I' for Inactive)
REMARK    1  A    between atoms: C_1  and  O_2
REMARK    2  A    between atoms: O_2  and  C_3
REMARK    3  A    between atoms: C_6  and  C_7
REMARK    4  A    between atoms: C_7  and  C_8
REMARK    5  A    between atoms: C_8  and  C_9
REMARK    6  A    between atoms: C_11  and  C_12
REMARK    7  A    between atoms: C_12  and  O_13
REMARK    8  A    between atoms: C_15  and  C_16
REMARK                            x       y       z     vdW  Elec       q    Type
REMARK                         _______ _______ _______ _____ _____    ______ ____
ROOT
ATOM      1  C   UNL     1      45.928   5.729  12.633  0.00  0.00    +0.000 C 
ATOM      2  C   UNL     1      46.013   5.147  14.042  0.00  0.00    +0.000 C 
ATOM      3  C   UNL     1      46.790   4.506  12.937  0.00  0.00    +0.000 C 
ENDROOT
BRANCH   1   7
ATOM      4  C   UNL     1      47.769   9.673  12.119  0.00  0.00    +0.000 A 
ATOM      5  C   UNL     1      46.430   9.557  12.487  0.00  0.00    +0.000 A 
ATOM      6  C   UNL     1      45.855   8.289  12.658  0.00  0.00    +0.000 A 
ATOM      7  C   UNL     1      46.580   7.103  12.441  0.00  0.00    +0.000 A 
ATOM      8  C   UNL     1      47.919   7.251  12.046  0.00  0.00    +0.000 A 
ATOM      9  C   UNL     1      48.507   8.512  11.903  0.00  0.00    +0.000 A 
BRANCH   4  11
ATOM     10  C   UNL     1      49.506  10.824  10.978  0.00  0.00    +0.000 C 
ATOM     11  O   UNL     1      48.461  10.836  11.941  0.00  0.00    +0.000 OA
ENDBRANCH   4  11
ENDBRANCH   1   7
BRANCH   1  12
ATOM     12  C   UNL     1      44.635   5.486  11.852  0.00  0.00    +0.000 C 
BRANCH  12  13
ATOM     13  C   UNL     1      44.754   4.571  10.668  0.00  0.00    +0.000 A 
ATOM     14  S   UNL     1      45.669   5.040   9.293  0.00  0.00    +0.000 S 
ATOM     15  C   UNL     1      45.254   3.571   8.520  0.00  0.00    +0.000 A 
ATOM     16  N   UNL     1      44.514   2.744   9.230  0.00  0.00    +0.000 NA
ATOM     17  C   UNL     1      44.230   3.304  10.467  0.00  0.00    +0.000 A 
ATOM     18  C   UNL     1      43.417   2.503  11.422  0.00  0.00    +0.000 C 
BRANCH  15  19
ATOM     19  C   UNL     1      45.701   3.289   7.121  0.00  0.00    +0.000 C 
BRANCH  19  20
ATOM     20  O   UNL     1      46.773   4.183   6.814  0.00  0.00    +0.000 OA
ATOM     21  H   UNL     1      46.354   5.053   6.671  0.00  0.00    +0.000 HD
ENDBRANCH  19  20
ENDBRANCH  15  19
ENDBRANCH  12  13
ENDBRANCH   1  12
TORSDOF 6
ENDMDL
MODEL 5
REMARK VINA RESULT:    -5.445      1.306      2.088
REMARK INTER + INTRA:          -7.849
REMARK INTER:                  -7.789
REMARK INTRA:                  -0.060
REMARK UNBOUND:                -0.653
REMARK  Name = 
REMARK  8 active torsions:
REMARK  status: ('A' for Active; 'I' for Inactive)
REMARK    1  A    between atoms: C_1  and  O_2
REMARK    2  A    between atoms: O_2  and  C_3
REMARK    3  A    between atoms: C_6  and  C_7
REMARK    4  A    between atoms: C_7  and  C_8
REMARK    5  A    between atoms: C_8  and  C_9
REMARK    6  A    between atoms: C_11  and  C_12
REMARK    7  A    between atoms: C_12  and  O_13
REMARK    8  A    between atoms: C_15  and  C_16
REMARK                            x       y       z     vdW  Elec       q    Type
REMARK                         _______ _______ _______ _____ _____    ______ ____
ROOT
ATOM      1  C   UNL     1      43.934   5.141  11.613  0.00  0.00    +0.000 C 
ATOM      2  C   UNL     1      42.458   4.831  11.850  0.00  0.00    +0.000 C 
ATOM      3  C   UNL     1      42.849   6.176  11.327  0.00  0.00    +0.000 C 
ENDROOT
BRANCH   1   7
ATOM      4  C   UNL     1      45.863   2.996   8.313  0.00  0.00    +0.000 A 
ATOM      5  C   UNL     1      45.883   4.388   8.363  0.00  0.00    +0.000 A 
ATOM      6  C   UNL     1      45.270   5.063   9.429  0.00  0.00    +0.000 A 
ATOM      7  C   UNL     1      44.597   4.380  10.458  0.00  0.00    +0.000 A 
ATOM      8  C   UNL     1      44.570   2.979  10.369  0.00  0.00    +0.000 A 
ATOM      9  C   UNL     1      45.205   2.299   9.324  0.00  0.00    +0.000 A 
BRANCH   4  11
ATOM     10  C   UNL     1      46.772   2.841   6.124  0.00  0.00    +0.000 C 
ATOM     11  O   UNL     1      46.435   2.212   7.353  0.00  0.00    +0.000 OA
ENDBRANCH   4  11
ENDBRANCH   1   7
BRANCH   1  12
ATOM     12  C   UNL     1      44.807   5.378  12.848  0.00  0.00    +0.000 C 
BRANCH  12  13
ATOM     13  C   UNL     1      46.003   6.261  12.638  0.00  0.00    +0.000 A 
ATOM     14  S   UNL     1      47.579   5.697  13.017  0.00  0.00    +0.000 S 
ATOM     15  C   UNL     1      48.229   7.212  12.555  0.00  0.00    +0.000 A 
ATOM     16  N   UNL     1      47.356   8.091  12.105  0.00  0.00    +0.000 NA
ATOM     17  C   UNL     1      46.078   7.551  12.139  0.00  0.00    +0.000 A 
ATOM     18  C   UNL     1      44.955   8.395  11.647  0.00  0.00    +0.000 C 
BRANCH  15  19
ATOM     19  C   UNL     1      49.691   7.491  12.689  0.00  0.00    +0.000 C 
BRANCH  19  20
ATOM     20  O   UNL     1      50.102   7.064  13.989  0.00  0.00    +0.000 OA
ATOM     21  H   UNL     1      49.563   7.584  14.616  0.00  0.00    +0.000 HD
ENDBRANCH  19  20
ENDBRANCH  15  19
ENDBRANCH  12  13
ENDBRANCH   1  12
TORSDOF 6
ENDMDL
MODEL 6
REMARK VINA RESULT:    -5.390      2.203      2.588
REMARK INTER + INTRA:          -7.776
REMARK INTER:                  -7.638
REMARK INTRA:                  -0.138
REMARK UNBOUND:                -0.653
REMARK  Name = 
REMARK  8 active torsions:
REMARK  status: ('A' for Active; 'I' for Inactive)
REMARK    1  A    between atoms: C_1  and  O_2
REMARK    2  A    between atoms: O_2  and  C_3
REMARK    3  A    between atoms: C_6  and  C_7
REMARK    4  A    between atoms: C_7  and  C_8
REMARK    5  A    between atoms: C_8  and  C_9
REMARK    6  A    between atoms: C_11  and  C_12
REMARK    7  A    between atoms: C_12  and  O_13
REMARK    8  A    between atoms: C_15  and  C_16
REMARK                            x       y       z     vdW  Elec       q    Type
REMARK                         _______ _______ _______ _____ _____    ______ ____
ROOT
ATOM      1  C   UNL     1      45.088   4.320  12.528  0.00  0.00    +0.000 C 
ATOM      2  C   UNL     1      43.661   4.361  13.070  0.00  0.00    +0.000 C 
ATOM      3  C   UNL     1      44.486   5.608  13.081  0.00  0.00    +0.000 C 
ENDROOT
BRANCH   1   7
ATOM      4  C   UNL     1      45.425   3.714   8.201  0.00  0.00    +0.000 A 
ATOM      5  C   UNL     1      45.084   2.657   9.041  0.00  0.00    +0.000 A 
ATOM      6  C   UNL     1      44.970   2.866  10.423  0.00  0.00    +0.000 A 
ATOM      7  C   UNL     1      45.219   4.118  11.014  0.00  0.00    +0.000 A 
ATOM      8  C   UNL     1      45.585   5.159  10.146  0.00  0.00    +0.000 A 
ATOM      9  C   UNL     1      45.671   4.964   8.763  0.00  0.00    +0.000 A 
BRANCH   4  11
ATOM     10  C   UNL     1      46.657   2.938   6.323  0.00  0.00    +0.000 C 
ATOM     11  O   UNL     1      45.548   3.660   6.842  0.00  0.00    +0.000 OA
ENDBRANCH   4  11
ENDBRANCH   1   7
BRANCH   1  12
ATOM     12  C   UNL     1      46.145   3.625  13.391  0.00  0.00    +0.000 C 
BRANCH  12  13
ATOM     13  C   UNL     1      46.981   4.531  14.247  0.00  0.00    +0.000 A 
ATOM     14  S   UNL     1      47.177   4.210  15.922  0.00  0.00    +0.000 S 
ATOM     15  C   UNL     1      48.135   5.620  16.077  0.00  0.00    +0.000 A 
ATOM     16  N   UNL     1      48.347   6.288  14.961  0.00  0.00    +0.000 NA
ATOM     17  C   UNL     1      47.698   5.666  13.904  0.00  0.00    +0.000 A 
ATOM     18  C   UNL     1      47.840   6.268  12.551  0.00  0.00    +0.000 C 
BRANCH  15  19
ATOM     19  C   UNL     1      48.660   6.046  17.410  0.00  0.00    +0.000 C 
BRANCH  19  20
ATOM     20  O   UNL     1      47.840   7.116  17.883  0.00  0.00    +0.000 OA
ATOM     21  H   UNL     1      48.460   7.780  18.243  0.00  0.00    +0.000 HD
ENDBRANCH  19  20
ENDBRANCH  15  19
ENDBRANCH  12  13
ENDBRANCH   1  12
TORSDOF 6
ENDMDL
MODEL 7
REMARK VINA RESULT:    -4.995      2.985      7.033
REMARK INTER + INTRA:          -7.254
REMARK INTER:                  -6.527
REMARK INTRA:                  -0.728
REMARK UNBOUND:                -0.653
REMARK  Name = 
REMARK  8 active torsions:
REMARK  status: ('A' for Active; 'I' for Inactive)
REMARK    1  A    between atoms: C_1  and  O_2
REMARK    2  A    between atoms: O_2  and  C_3
REMARK    3  A    between atoms: C_6  and  C_7
REMARK    4  A    between atoms: C_7  and  C_8
REMARK    5  A    between atoms: C_8  and  C_9
REMARK    6  A    between atoms: C_11  and  C_12
REMARK    7  A    between atoms: C_12  and  O_13
REMARK    8  A    between atoms: C_15  and  C_16
REMARK                            x       y       z     vdW  Elec       q    Type
REMARK                         _______ _______ _______ _____ _____    ______ ____
ROOT
ATOM      1  C   UNL     1      47.168   8.052  12.795  0.00  0.00    +0.000 C 
ATOM      2  C   UNL     1      46.712   9.367  12.168  0.00  0.00    +0.000 C 
ATOM      3  C   UNL     1      45.762   8.598  13.030  0.00  0.00    +0.000 C 
ENDROOT
BRANCH   1   7
ATOM      4  C   UNL     1      50.184   8.390  15.957  0.00  0.00    +0.000 A 
ATOM      5  C   UNL     1      48.928   8.972  16.109  0.00  0.00    +0.000 A 
ATOM      6  C   UNL     1      47.968   8.849  15.094  0.00  0.00    +0.000 A 
ATOM      7  C   UNL     1      48.235   8.172  13.890  0.00  0.00    +0.000 A 
ATOM      8  C   UNL     1      49.517   7.617  13.754  0.00  0.00    +0.000 A 
ATOM      9  C   UNL     1      50.469   7.711  14.775  0.00  0.00    +0.000 A 
BRANCH   4  11
ATOM     10  C   UNL     1      51.895   7.190  17.087  0.00  0.00    +0.000 C 
ATOM     11  O   UNL     1      51.201   8.410  16.868  0.00  0.00    +0.000 OA
ENDBRANCH   4  11
ENDBRANCH   1   7
BRANCH   1  12
ATOM     12  C   UNL     1      47.293   6.840  11.869  0.00  0.00    +0.000 C 
BRANCH  12  13
ATOM     13  C   UNL     1      46.348   5.708  12.150  0.00  0.00    +0.000 A 
ATOM     14  S   UNL     1      45.137   5.281  11.011  0.00  0.00    +0.000 S 
ATOM     15  C   UNL     1      44.574   4.061  12.072  0.00  0.00    +0.000 A 
ATOM     16  N   UNL     1      45.250   3.929  13.195  0.00  0.00    +0.000 NA
ATOM     17  C   UNL     1      46.276   4.862  13.245  0.00  0.00    +0.000 A 
ATOM     18  C   UNL     1      47.166   4.853  14.437  0.00  0.00    +0.000 C 
BRANCH  15  19
ATOM     19  C   UNL     1      43.377   3.236  11.723  0.00  0.00    +0.000 C 
BRANCH  19  20
ATOM     20  O   UNL     1      43.402   2.061  12.535  0.00  0.00    +0.000 OA
ATOM     21  H   UNL     1      43.365   1.311  11.910  0.00  0.00    +0.000 HD
ENDBRANCH  19  20
ENDBRANCH  15  19
ENDBRANCH  12  13
ENDBRANCH   1  12
TORSDOF 6
ENDMDL
MODEL 8
REMARK VINA RESULT:    -4.953      1.787      2.171
REMARK INTER + INTRA:          -7.199
REMARK INTER:                  -7.316
REMARK INTRA:                   0.117
REMARK UNBOUND:                -0.653
REMARK  Name = 
REMARK  8 active torsions:
REMARK  status: ('A' for Active; 'I' for Inactive)
REMARK    1  A    between atoms: C_1  and  O_2
REMARK    2  A    between atoms: O_2  and  C_3
REMARK    3  A    between atoms: C_6  and  C_7
REMARK    4  A    between atoms: C_7  and  C_8
REMARK    5  A    between atoms: C_8  and  C_9
REMARK    6  A    between atoms: C_11  and  C_12
REMARK    7  A    between atoms: C_12  and  O_13
REMARK    8  A    between atoms: C_15  and  C_16
REMARK                            x       y       z     vdW  Elec       q    Type
REMARK                         _______ _______ _______ _____ _____    ______ ____
ROOT
ATOM      1  C   UNL     1      43.951   5.353  11.594  0.00  0.00    +0.000 C 
ATOM      2  C   UNL     1      42.467   5.137  11.879  0.00  0.00    +0.000 C 
ATOM      3  C   UNL     1      42.924   6.450  11.327  0.00  0.00    +0.000 C 
ENDROOT
BRANCH   1   7
ATOM      4  C   UNL     1      45.648   3.051   8.274  0.00  0.00    +0.000 A 
ATOM      5  C   UNL     1      45.940   4.405   8.420  0.00  0.00    +0.000 A 
ATOM      6  C   UNL     1      45.398   5.129   9.493  0.00  0.00    +0.000 A 
ATOM      7  C   UNL     1      44.531   4.540  10.431  0.00  0.00    +0.000 A 
ATOM      8  C   UNL     1      44.234   3.181  10.244  0.00  0.00    +0.000 A 
ATOM      9  C   UNL     1      44.795   2.446   9.194  0.00  0.00    +0.000 A 
BRANCH   4  11
ATOM     10  C   UNL     1      46.853   1.080   7.718  0.00  0.00    +0.000 C 
ATOM     11  O   UNL     1      46.121   2.222   7.296  0.00  0.00    +0.000 OA
ENDBRANCH   4  11
ENDBRANCH   1   7
BRANCH   1  12
ATOM     12  C   UNL     1      44.874   5.550  12.800  0.00  0.00    +0.000 C 
BRANCH  12  13
ATOM     13  C   UNL     1      45.814   6.717  12.714  0.00  0.00    +0.000 A 
ATOM     14  S   UNL     1      45.224   8.285  12.342  0.00  0.00    +0.000 S 
ATOM     15  C   UNL     1      46.821   8.898  12.407  0.00  0.00    +0.000 A 
ATOM     16  N   UNL     1      47.753   8.023  12.723  0.00  0.00    +0.000 NA
ATOM     17  C   UNL     1      47.184   6.770  12.911  0.00  0.00    +0.000 A 
ATOM     18  C   UNL     1      48.085   5.650  13.296  0.00  0.00    +0.000 C 
BRANCH  15  19
ATOM     19  C   UNL     1      47.103  10.334  12.098  0.00  0.00    +0.000 C 
BRANCH  19  20
ATOM     20  O   UNL     1      45.977  10.860  11.393  0.00  0.00    +0.000 OA
ATOM     21  H   UNL     1      45.198  10.625  11.932  0.00  0.00    +0.000 HD
ENDBRANCH  19  20
ENDBRANCH  15  19
ENDBRANCH  12  13
ENDBRANCH   1  12
TORSDOF 6
ENDMDL
MODEL 9
REMARK VINA RESULT:    -4.808      3.335      5.226
REMARK INTER + INTRA:          -7.007
REMARK INTER:                  -6.491
REMARK INTRA:                  -0.517
REMARK UNBOUND:                -0.653
REMARK  Name = 
REMARK  8 active torsions:
REMARK  status: ('A' for Active; 'I' for Inactive)
REMARK    1  A    between atoms: C_1  and  O_2
REMARK    2  A    between atoms: O_2  and  C_3
REMARK    3  A    between atoms: C_6  and  C_7
REMARK    4  A    between atoms: C_7  and  C_8
REMARK    5  A    between atoms: C_8  and  C_9
REMARK    6  A    between atoms: C_11  and  C_12
REMARK    7  A    between atoms: C_12  and  O_13
REMARK    8  A    between atoms: C_15  and  C_16
REMARK                            x       y       z     vdW  Elec       q    Type
REMARK                         _______ _______ _______ _____ _____    ______ ____
ROOT
ATOM      1  C   UNL     1      48.051   7.291  13.110  0.00  0.00    +0.000 C 
ATOM      2  C   UNL     1      48.190   8.168  11.868  0.00  0.00    +0.000 C 
ATOM      3  C   UNL     1      49.221   7.120  12.144  0.00  0.00    +0.000 C 
ENDROOT
BRANCH   1   7
ATOM      4  C   UNL     1      44.701   4.466  13.030  0.00  0.00    +0.000 A 
ATOM      5  C   UNL     1      44.479   5.835  12.895  0.00  0.00    +0.000 A 
ATOM      6  C   UNL     1      45.560   6.728  12.913  0.00  0.00    +0.000 A 
ATOM      7  C   UNL     1      46.886   6.294  13.093  0.00  0.00    +0.000 A 
ATOM      8  C   UNL     1      47.077   4.912  13.252  0.00  0.00    +0.000 A 
ATOM      9  C   UNL     1      46.006   4.014  13.205  0.00  0.00    +0.000 A 
BRANCH   4  11
ATOM     10  C   UNL     1      43.393   2.963  11.736  0.00  0.00    +0.000 C 
ATOM     11  O   UNL     1      43.750   3.487  13.008  0.00  0.00    +0.000 OA
ENDBRANCH   4  11
ENDBRANCH   1   7
BRANCH   1  12
ATOM     12  C   UNL     1      48.360   7.938  14.462  0.00  0.00    +0.000 C 
BRANCH  12  13
ATOM     13  C   UNL     1      49.300   7.173  15.348  0.00  0.00    +0.000 A 
ATOM     14  S   UNL     1      48.707   5.957  16.404  0.00  0.00    +0.000 S 
ATOM     15  C   UNL     1      50.295   5.690  16.984  0.00  0.00    +0.000 A 
ATOM     16  N   UNL     1      51.237   6.418  16.418  0.00  0.00    +0.000 NA
ATOM     17  C   UNL     1      50.677   7.265  15.471  0.00  0.00    +0.000 A 
ATOM     18  C   UNL     1      51.594   8.154  14.708  0.00  0.00    +0.000 C 
BRANCH  15  19
ATOM     19  C   UNL     1      50.555   4.704  18.077  0.00  0.00    +0.000 C 
BRANCH  19  20
ATOM     20  O   UNL     1      50.949   3.471  17.473  0.00  0.00    +0.000 OA
ATOM     21  H   UNL     1      50.416   2.783  17.913  0.00  0.00    +0.000 HD
ENDBRANCH  19  20
ENDBRANCH  15  19
ENDBRANCH  12  13
ENDBRANCH   1  12
TORSDOF 6
ENDMDL
