MODEL 1
REMARK VINA RESULT:    -8.787      0.000      0.000
REMARK INTER + INTRA:         -13.309
REMARK INTER:                 -12.125
REMARK INTRA:                  -1.184
REMARK UNBOUND:                -1.184
REMARK  Name = 
REMARK  7 active torsions:
REMARK  status: ('A' for Active; 'I' for Inactive)
REMARK    1  A    between atoms: C_2  and  C_20
REMARK    2  A    between atoms: N_3  and  C_4
REMARK    3  A    between atoms: C_4  and  C_5
REMARK    4  A    between atoms: C_8  and  C_9
REMARK    5  A    between atoms: C_9  and  C_10
REMARK    6  A    between atoms: C_10  and  O_11
REMARK    7  A    between atoms: C_10  and  C_12
REMARK                            x       y       z     vdW  Elec       q    Type
REMARK                         _______ _______ _______ _____ _____    ______ ____
ROOT
ATOM      1  C   UNL     1      46.331   7.710  12.823  0.00  0.00    +0.000 C 
ENDROOT
BRANCH   1   2
ATOM      2  C   UNL     1      45.769   6.641  11.934  0.00  0.00    +0.000 A 
ATOM      3  C   UNL     1      44.721   5.813  12.344  0.00  0.00    +0.000 A 
ATOM      4  C   UNL     1      44.239   4.827  11.483  0.00  0.00    +0.000 A 
ATOM      5  C   UNL     1      44.800   4.711  10.214  0.00  0.00    +0.000 A 
ATOM      6  N   UNL     1      45.815   5.505   9.797  0.00  0.00    +0.000 NA
ATOM      7  C   UNL     1      46.268   6.450  10.653  0.00  0.00    +0.000 A 
BRANCH   5   8
ATOM      8  C   UNL     1      44.345   3.661   9.233  0.00  0.00    +0.000 C 
BRANCH   8   9
ATOM      9  C   UNL     1      45.256   2.424   9.146  0.00  0.00    +0.000 C 
BRANCH   9  10
ATOM     10  C   UNL     1      46.141   2.348   7.920  0.00  0.00    +0.000 A 
ATOM     11  C   UNL     1      46.078   3.367   6.959  0.00  0.00    +0.000 A 
ATOM     12  C   UNL     1      46.883   3.316   5.825  0.00  0.00    +0.000 A 
ATOM     13  C   UNL     1      47.736   2.238   5.678  0.00  0.00    +0.000 A 
ATOM     14  N   UNL     1      47.831   1.234   6.572  0.00  0.00    +0.000 NA
ATOM     15  C   UNL     1      47.037   1.312   7.667  0.00  0.00    +0.000 A 
ENDBRANCH   9  10
BRANCH   9  16
ATOM     16  O   UNL     1      44.483   1.220   9.178  0.00  0.00    +0.000 OA
ATOM     17  H   UNL     1      44.897   0.625   9.830  0.00  0.00    +0.000 HD
ENDBRANCH   9  16
ENDBRANCH   8   9
ENDBRANCH   5   8
ENDBRANCH   1   2
BRANCH   1  20
ATOM     18  O   UNL     1      48.911   6.634  13.014  0.00  0.00    +0.000 OA
ATOM     19  C   UNL     1      48.219   6.699  14.026  0.00  0.00    +0.000 C 
ATOM     20  N   UNL     1      46.925   7.161  14.008  0.00  0.00    +0.000 N 
ATOM     21  H   UNL     1      46.479   7.405  14.884  0.00  0.00    +0.000 HD
BRANCH  19  22
ATOM     22  C   UNL     1      48.707   6.238  15.324  0.00  0.00    +0.000 A 
ATOM     23  C   UNL     1      49.743   6.899  15.970  0.00  0.00    +0.000 A 
ATOM     24  S   UNL     1      50.166   6.190  17.463  0.00  0.00    +0.000 S 
ATOM     25  C   UNL     1      48.960   4.997  17.304  0.00  0.00    +0.000 A 
ATOM     26  N   UNL     1      48.768   4.052  18.262  0.00  0.00    +0.000 NA
ATOM     27  C   UNL     1      47.797   3.236  18.017  0.00  0.00    +0.000 A 
ATOM     28  N   UNL     1      47.002   3.272  16.904  0.00  0.00    +0.000 N 
ATOM     29  C   UNL     1      47.203   4.163  15.880  0.00  0.00    +0.000 A 
ATOM     30  O   UNL     1      46.558   4.074  14.836  0.00  0.00    +0.000 OA
ATOM     31  C   UNL     1      48.255   5.125  16.122  0.00  0.00    +0.000 A 
ATOM     32  H   UNL     1      46.278   2.585  16.752  0.00  0.00    +0.000 HD
ENDBRANCH  19  22
ENDBRANCH   1  20
TORSDOF 7
ENDMDL
MODEL 2
REMARK VINA RESULT:    -8.123      2.548      4.079
REMARK INTER + INTRA:         -12.394
REMARK INTER:                 -11.026
REMARK INTRA:                  -1.368
REMARK UNBOUND:                -1.184
REMARK  Name = 
REMARK  7 active torsions:
REMARK  status: ('A' for Active; 'I' for Inactive)
REMARK    1  A    between atoms: C_2  and  C_20
REMARK    2  A    between atoms: N_3  and  C_4
REMARK    3  A    between atoms: C_4  and  C_5
REMARK    4  A    between atoms: C_8  and  C_9
REMARK    5  A    between atoms: C_9  and  C_10
REMARK    6  A    between atoms: C_10  and  O_11
REMARK    7  A    between atoms: C_10  and  C_12
REMARK                            x       y       z     vdW  Elec       q    Type
REMARK                         _______ _______ _______ _____ _____    ______ ____
ROOT
ATOM      1  C   UNL     1      47.098   4.951  14.678  0.00  0.00    +0.000 C 
ENDROOT
BRANCH   1   2
ATOM      2  C   UNL     1      46.308   4.634  13.444  0.00  0.00    +0.000 A 
ATOM      3  C   UNL     1      46.008   3.321  13.074  0.00  0.00    +0.000 A 
ATOM      4  C   UNL     1      45.276   3.078  11.911  0.00  0.00    +0.000 A 
ATOM      5  C   UNL     1      44.835   4.162  11.157  0.00  0.00    +0.000 A 
ATOM      6  N   UNL     1      45.113   5.443  11.500  0.00  0.00    +0.000 NA
ATOM      7  C   UNL     1      45.828   5.651  12.629  0.00  0.00    +0.000 A 
BRANCH   5   8
ATOM      8  C   UNL     1      44.053   3.981   9.882  0.00  0.00    +0.000 C 
BRANCH   8   9
ATOM      9  C   UNL     1      44.851   4.256   8.594  0.00  0.00    +0.000 C 
BRANCH   9  10
ATOM     10  C   UNL     1      45.723   3.116   8.110  0.00  0.00    +0.000 A 
ATOM     11  C   UNL     1      46.732   3.370   7.171  0.00  0.00    +0.000 A 
ATOM     12  C   UNL     1      47.545   2.338   6.713  0.00  0.00    +0.000 A 
ATOM     13  C   UNL     1      47.325   1.066   7.208  0.00  0.00    +0.000 A 
ATOM     14  N   UNL     1      46.367   0.771   8.110  0.00  0.00    +0.000 NA
ATOM     15  C   UNL     1      45.593   1.797   8.539  0.00  0.00    +0.000 A 
ENDBRANCH   9  10
BRANCH   9  16
ATOM     16  O   UNL     1      45.704   5.393   8.758  0.00  0.00    +0.000 OA
ATOM     17  H   UNL     1      46.576   5.065   9.042  0.00  0.00    +0.000 HD
ENDBRANCH   9  16
ENDBRANCH   8   9
ENDBRANCH   5   8
ENDBRANCH   1   2
BRANCH   1  20
ATOM     18  O   UNL     1      49.463   5.892  15.851  0.00  0.00    +0.000 OA
ATOM     19  C   UNL     1      48.744   6.683  15.247  0.00  0.00    +0.000 C 
ATOM     20  N   UNL     1      47.543   6.315  14.692  0.00  0.00    +0.000 N 
ATOM     21  H   UNL     1      47.102   6.934  14.021  0.00  0.00    +0.000 HD
BRANCH  19  22
ATOM     22  C   UNL     1      49.093   8.097  15.120  0.00  0.00    +0.000 A 
ATOM     23  C   UNL     1      49.229   8.899  16.244  0.00  0.00    +0.000 A 
ATOM     24  S   UNL     1      49.626  10.517  15.873  0.00  0.00    +0.000 S 
ATOM     25  C   UNL     1      49.656  10.186  14.202  0.00  0.00    +0.000 A 
ATOM     26  N   UNL     1      49.947  11.154  13.293  0.00  0.00    +0.000 NA
ATOM     27  C   UNL     1      49.962  10.746  12.067  0.00  0.00    +0.000 A 
ATOM     28  N   UNL     1      49.711   9.464  11.663  0.00  0.00    +0.000 N 
ATOM     29  C   UNL     1      49.345   8.471  12.536  0.00  0.00    +0.000 A 
ATOM     30  O   UNL     1      48.992   7.367  12.120  0.00  0.00    +0.000 OA
ATOM     31  C   UNL     1      49.350   8.866  13.928  0.00  0.00    +0.000 A 
ATOM     32  H   UNL     1      49.705   9.212  10.685  0.00  0.00    +0.000 HD
ENDBRANCH  19  22
ENDBRANCH   1  20
TORSDOF 7
ENDMDL
MODEL 3
REMARK VINA RESULT:    -8.029      1.510      1.748
REMARK INTER + INTRA:         -12.264
REMARK INTER:                 -11.277
REMARK INTRA:                  -0.987
REMARK UNBOUND:                -1.184
REMARK  Name = 
REMARK  7 active torsions:
REMARK  status: ('A' for Active; 'I' for Inactive)
REMARK    1  A    between atoms: C_2  and  C_20
REMARK    2  A    between atoms: N_3  and  C_4
REMARK    3  A    between atoms: C_4  and  C_5
REMARK    4  A    between atoms: C_8  and  C_9
REMARK    5  A    between atoms: C_9  and  C_10
REMARK    6  A    between atoms: C_10  and  O_11
REMARK    7  A    between atoms: C_10  and  C_12
REMARK                            x       y       z     vdW  Elec       q    Type
REMARK                         _______ _______ _______ _____ _____    ______ ____
ROOT
ATOM      1  C   UNL     1      47.479   7.738  13.637  0.00  0.00    +0.000 C 
ENDROOT
BRANCH   1   2
ATOM      2  C   UNL     1      46.699   6.778  12.790  0.00  0.00    +0.000 A 
ATOM      3  C   UNL     1      46.757   5.397  12.992  0.00  0.00    +0.000 A 
ATOM      4  C   UNL     1      46.019   4.544  12.171  0.00  0.00    +0.000 A 
ATOM      5  C   UNL     1      45.212   5.098  11.181  0.00  0.00    +0.000 A 
ATOM      6  N   UNL     1      45.140   6.434  10.971  0.00  0.00    +0.000 NA
ATOM      7  C   UNL     1      45.869   7.239  11.777  0.00  0.00    +0.000 A 
BRANCH   5   8
ATOM      8  C   UNL     1      44.397   4.243  10.245  0.00  0.00    +0.000 C 
BRANCH   8   9
ATOM      9  C   UNL     1      44.854   4.282   8.776  0.00  0.00    +0.000 C 
BRANCH   9  10
ATOM     10  C   UNL     1      45.612   3.062   8.294  0.00  0.00    +0.000 A 
ATOM     11  C   UNL     1      46.586   3.205   7.296  0.00  0.00    +0.000 A 
ATOM     12  C   UNL     1      47.294   2.097   6.840  0.00  0.00    +0.000 A 
ATOM     13  C   UNL     1      47.006   0.864   7.396  0.00  0.00    +0.000 A 
ATOM     14  N   UNL     1      46.077   0.677   8.355  0.00  0.00    +0.000 NA
ATOM     15  C   UNL     1      45.407   1.774   8.781  0.00  0.00    +0.000 A 
ENDBRANCH   9  10
BRANCH   9  16
ATOM     16  O   UNL     1      45.693   5.416   8.534  0.00  0.00    +0.000 OA
ATOM     17  H   UNL     1      46.537   5.084   8.179  0.00  0.00    +0.000 HD
ENDBRANCH   9  16
ENDBRANCH   8   9
ENDBRANCH   5   8
ENDBRANCH   1   2
BRANCH   1  20
ATOM     18  O   UNL     1      50.026   7.042  14.574  0.00  0.00    +0.000 OA
ATOM     19  C   UNL     1      49.064   6.924  15.327  0.00  0.00    +0.000 C 
ATOM     20  N   UNL     1      47.776   7.190  14.929  0.00  0.00    +0.000 N 
ATOM     21  H   UNL     1      47.057   7.295  15.634  0.00  0.00    +0.000 HD
BRANCH  19  22
ATOM     22  C   UNL     1      49.214   6.436  16.697  0.00  0.00    +0.000 A 
ATOM     23  C   UNL     1      49.855   7.206  17.658  0.00  0.00    +0.000 A 
ATOM     24  S   UNL     1      49.933   6.447  19.185  0.00  0.00    +0.000 S 
ATOM     25  C   UNL     1      49.089   5.081  18.614  0.00  0.00    +0.000 A 
ATOM     26  N   UNL     1      48.803   4.033  19.430  0.00  0.00    +0.000 NA
ATOM     27  C   UNL     1      48.131   3.086  18.863  0.00  0.00    +0.000 A 
ATOM     28  N   UNL     1      47.722   3.085  17.558  0.00  0.00    +0.000 N 
ATOM     29  C   UNL     1      48.047   4.088  16.680  0.00  0.00    +0.000 A 
ATOM     30  O   UNL     1      47.781   3.985  15.482  0.00  0.00    +0.000 OA
ATOM     31  C   UNL     1      48.767   5.193  17.274  0.00  0.00    +0.000 A 
ATOM     32  H   UNL     1      47.227   2.299  17.161  0.00  0.00    +0.000 HD
ENDBRANCH  19  22
ENDBRANCH   1  20
TORSDOF 7
ENDMDL
MODEL 4
REMARK VINA RESULT:    -7.886      2.910      3.737
REMARK INTER + INTRA:         -12.066
REMARK INTER:                 -11.036
REMARK INTRA:                  -1.030
REMARK UNBOUND:                -1.184
REMARK  Name = 
REMARK  7 active torsions:
REMARK  status: ('A' for Active; 'I' for Inactive)
REMARK    1  A    between atoms: C_2  and  C_20
REMARK    2  A    between atoms: N_3  and  C_4
REMARK    3  A    between atoms: C_4  and  C_5
REMARK    4  A    between atoms: C_8  and  C_9
REMARK    5  A    between atoms: C_9  and  C_10
REMARK    6  A    between atoms: C_10  and  O_11
REMARK    7  A    between atoms: C_10  and  C_12
REMARK                            x       y       z     vdW  Elec       q    Type
REMARK                         _______ _______ _______ _____ _____    ______ ____
ROOT
ATOM      1  C   UNL     1      47.230   4.848  14.657  0.00  0.00    +0.000 C 
ENDROOT
BRANCH   1   2
ATOM      2  C   UNL     1      46.407   4.566  13.437  0.00  0.00    +0.000 A 
ATOM      3  C   UNL     1      46.056   3.266  13.065  0.00  0.00    +0.000 A 
ATOM      4  C   UNL     1      45.294   3.056  11.915  0.00  0.00    +0.000 A 
ATOM      5  C   UNL     1      44.875   4.158  11.176  0.00  0.00    +0.000 A 
ATOM      6  N   UNL     1      45.202   5.427  11.521  0.00  0.00    +0.000 NA
ATOM      7  C   UNL     1      45.945   5.603  12.638  0.00  0.00    +0.000 A 
BRANCH   5   8
ATOM      8  C   UNL     1      44.063   4.013   9.915  0.00  0.00    +0.000 C 
BRANCH   8   9
ATOM      9  C   UNL     1      44.841   4.286   8.615  0.00  0.00    +0.000 C 
BRANCH   9  10
ATOM     10  C   UNL     1      45.707   3.146   8.119  0.00  0.00    +0.000 A 
ATOM     11  C   UNL     1      46.700   3.400   7.163  0.00  0.00    +0.000 A 
ATOM     12  C   UNL     1      47.507   2.367   6.694  0.00  0.00    +0.000 A 
ATOM     13  C   UNL     1      47.297   1.096   7.196  0.00  0.00    +0.000 A 
ATOM     14  N   UNL     1      46.354   0.802   8.114  0.00  0.00    +0.000 NA
ATOM     15  C   UNL     1      45.586   1.829   8.554  0.00  0.00    +0.000 A 
ENDBRANCH   9  10
BRANCH   9  16
ATOM     16  O   UNL     1      45.695   5.424   8.763  0.00  0.00    +0.000 OA
ATOM     17  H   UNL     1      45.152   6.151   9.119  0.00  0.00    +0.000 HD
ENDBRANCH   9  16
ENDBRANCH   8   9
ENDBRANCH   5   8
ENDBRANCH   1   2
BRANCH   1  20
ATOM     18  O   UNL     1      49.471   5.944  15.934  0.00  0.00    +0.000 OA
ATOM     19  C   UNL     1      48.666   6.699  15.396  0.00  0.00    +0.000 C 
ATOM     20  N   UNL     1      47.515   6.247  14.798  0.00  0.00    +0.000 N 
ATOM     21  H   UNL     1      47.006   6.869  14.181  0.00  0.00    +0.000 HD
BRANCH  19  22
ATOM     22  C   UNL     1      48.850   8.149  15.400  0.00  0.00    +0.000 A 
ATOM     23  C   UNL     1      49.322   8.807  14.273  0.00  0.00    +0.000 A 
ATOM     24  S   UNL     1      49.475  10.493  14.493  0.00  0.00    +0.000 S 
ATOM     25  C   UNL     1      48.887  10.396  16.089  0.00  0.00    +0.000 A 
ATOM     26  N   UNL     1      48.751  11.505  16.862  0.00  0.00    +0.000 NA
ATOM     27  C   UNL     1      48.264  11.277  18.038  0.00  0.00    +0.000 A 
ATOM     28  N   UNL     1      47.903  10.047  18.514  0.00  0.00    +0.000 N 
ATOM     29  C   UNL     1      48.087   8.892  17.796  0.00  0.00    +0.000 A 
ATOM     30  O   UNL     1      47.880   7.794  18.311  0.00  0.00    +0.000 OA
ATOM     31  C   UNL     1      48.595   9.095  16.456  0.00  0.00    +0.000 A 
ATOM     32  H   UNL     1      47.557   9.927  19.455  0.00  0.00    +0.000 HD
ENDBRANCH  19  22
ENDBRANCH   1  20
TORSDOF 7
ENDMDL
MODEL 5
REMARK VINA RESULT:    -7.723      2.099      2.505
REMARK INTER + INTRA:         -11.842
REMARK INTER:                 -10.830
REMARK INTRA:                  -1.012
REMARK UNBOUND:                -1.184
REMARK  Name = 
REMARK  7 active torsions:
REMARK  status: ('A' for Active; 'I' for Inactive)
REMARK    1  A    between atoms: C_2  and  C_20
REMARK    2  A    between atoms: N_3  and  C_4
REMARK    3  A    between atoms: C_4  and  C_5
REMARK    4  A    between atoms: C_8  and  C_9
REMARK    5  A    between atoms: C_9  and  C_10
REMARK    6  A    between atoms: C_10  and  O_11
REMARK    7  A    between atoms: C_10  and  C_12
REMARK                            x       y       z     vdW  Elec       q    Type
REMARK                         _______ _______ _______ _____ _____    ______ ____
ROOT
ATOM      1  C   UNL     1      47.611   7.184  13.565  0.00  0.00    +0.000 C 
ENDROOT
BRANCH   1   2
ATOM      2  C   UNL     1      46.784   6.297  12.684  0.00  0.00    +0.000 A 
ATOM      3  C   UNL     1      46.239   5.097  13.145  0.00  0.00    +0.000 A 
ATOM      4  C   UNL     1      45.483   4.302  12.283  0.00  0.00    +0.000 A 
ATOM      5  C   UNL     1      45.264   4.744  10.981  0.00  0.00    +0.000 A 
ATOM      6  N   UNL     1      45.781   5.907  10.516  0.00  0.00    +0.000 NA
ATOM      7  C   UNL     1      46.514   6.656  11.370  0.00  0.00    +0.000 A 
BRANCH   5   8
ATOM      8  C   UNL     1      44.471   3.936   9.986  0.00  0.00    +0.000 C 
BRANCH   8   9
ATOM      9  C   UNL     1      45.036   2.533   9.702  0.00  0.00    +0.000 C 
BRANCH   9  10
ATOM     10  C   UNL     1      45.825   2.393   8.417  0.00  0.00    +0.000 A 
ATOM     11  C   UNL     1      45.946   3.495   7.559  0.00  0.00    +0.000 A 
ATOM     12  C   UNL     1      46.667   3.388   6.373  0.00  0.00    +0.000 A 
ATOM     13  C   UNL     1      47.251   2.172   6.071  0.00  0.00    +0.000 A 
ATOM     14  N   UNL     1      47.160   1.084   6.863  0.00  0.00    +0.000 NA
ATOM     15  C   UNL     1      46.455   1.219   8.012  0.00  0.00    +0.000 A 
ENDBRANCH   9  10
BRANCH   9  16
ATOM     16  O   UNL     1      43.986   1.562   9.655  0.00  0.00    +0.000 OA
ATOM     17  H   UNL     1      44.358   0.715   9.962  0.00  0.00    +0.000 HD
ENDBRANCH   9  16
ENDBRANCH   8   9
ENDBRANCH   5   8
ENDBRANCH   1   2
BRANCH   1  20
ATOM     18  O   UNL     1      49.976   6.725  14.996  0.00  0.00    +0.000 OA
ATOM     19  C   UNL     1      48.899   6.529  15.551  0.00  0.00    +0.000 C 
ATOM     20  N   UNL     1      47.696   6.676  14.905  0.00  0.00    +0.000 N 
ATOM     21  H   UNL     1      46.846   6.724  15.454  0.00  0.00    +0.000 HD
BRANCH  19  22
ATOM     22  C   UNL     1      48.819   6.069  16.937  0.00  0.00    +0.000 A 
ATOM     23  C   UNL     1      49.143   4.761  17.271  0.00  0.00    +0.000 A 
ATOM     24  S   UNL     1      48.969   4.430  18.936  0.00  0.00    +0.000 S 
ATOM     25  C   UNL     1      48.486   6.030  19.263  0.00  0.00    +0.000 A 
ATOM     26  N   UNL     1      48.188   6.436  20.526  0.00  0.00    +0.000 NA
ATOM     27  C   UNL     1      47.868   7.684  20.622  0.00  0.00    +0.000 A 
ATOM     28  N   UNL     1      47.815   8.565  19.576  0.00  0.00    +0.000 N 
ATOM     29  C   UNL     1      48.040   8.184  18.277  0.00  0.00    +0.000 A 
ATOM     30  O   UNL     1      47.847   8.971  17.350  0.00  0.00    +0.000 OA
ATOM     31  C   UNL     1      48.440   6.803  18.118  0.00  0.00    +0.000 A 
ATOM     32  H   UNL     1      47.526   9.523  19.708  0.00  0.00    +0.000 HD
ENDBRANCH  19  22
ENDBRANCH   1  20
TORSDOF 7
ENDMDL
MODEL 6
REMARK VINA RESULT:    -7.521      2.690      3.371
REMARK INTER + INTRA:         -11.562
REMARK INTER:                 -10.542
REMARK INTRA:                  -1.021
REMARK UNBOUND:                -1.184
REMARK  Name = 
REMARK  7 active torsions:
REMARK  status: ('A' for Active; 'I' for Inactive)
REMARK    1  A    between atoms: C_2  and  C_20
REMARK    2  A    between atoms: N_3  and  C_4
REMARK    3  A    between atoms: C_4  and  C_5
REMARK    4  A    between atoms: C_8  and  C_9
REMARK    5  A    between atoms: C_9  and  C_10
REMARK    6  A    between atoms: C_10  and  O_11
REMARK    7  A    between atoms: C_10  and  C_12
REMARK                            x       y       z     vdW  Elec       q    Type
REMARK                         _______ _______ _______ _____ _____    ______ ____
ROOT
ATOM      1  C   UNL     1      47.120   4.368  15.458  0.00  0.00    +0.000 C 
ENDROOT
BRANCH   1   2
ATOM      2  C   UNL     1      46.714   4.673  14.047  0.00  0.00    +0.000 A 
ATOM      3  C   UNL     1      46.965   5.914  13.457  0.00  0.00    +0.000 A 
ATOM      4  C   UNL     1      46.560   6.151  12.143  0.00  0.00    +0.000 A 
ATOM      5  C   UNL     1      45.936   5.126  11.437  0.00  0.00    +0.000 A 
ATOM      6  N   UNL     1      45.686   3.915  11.991  0.00  0.00    +0.000 NA
ATOM      7  C   UNL     1      46.084   3.712  13.267  0.00  0.00    +0.000 A 
BRANCH   5   8
ATOM      8  C   UNL     1      45.456   5.310  10.020  0.00  0.00    +0.000 C 
BRANCH   8   9
ATOM      9  C   UNL     1      44.719   4.094   9.429  0.00  0.00    +0.000 C 
BRANCH   9  10
ATOM     10  C   UNL     1      45.568   3.157   8.595  0.00  0.00    +0.000 A 
ATOM     11  C   UNL     1      46.363   3.679   7.565  0.00  0.00    +0.000 A 
ATOM     12  C   UNL     1      47.150   2.835   6.787  0.00  0.00    +0.000 A 
ATOM     13  C   UNL     1      47.122   1.480   7.060  0.00  0.00    +0.000 A 
ATOM     14  N   UNL     1      46.373   0.931   8.038  0.00  0.00    +0.000 NA
ATOM     15  C   UNL     1      45.619   1.778   8.780  0.00  0.00    +0.000 A 
ENDBRANCH   9  10
BRANCH   9  16
ATOM     16  O   UNL     1      43.627   4.513   8.605  0.00  0.00    +0.000 OA
ATOM     17  H   UNL     1      42.916   4.818   9.197  0.00  0.00    +0.000 HD
ENDBRANCH   9  16
ENDBRANCH   8   9
ENDBRANCH   5   8
ENDBRANCH   1   2
BRANCH   1  20
ATOM     18  O   UNL     1      49.626   4.521  16.701  0.00  0.00    +0.000 OA
ATOM     19  C   UNL     1      48.922   5.525  16.660  0.00  0.00    +0.000 C 
ATOM     20  N   UNL     1      47.659   5.522  16.119  0.00  0.00    +0.000 N 
ATOM     21  H   UNL     1      47.214   6.406  15.906  0.00  0.00    +0.000 HD
BRANCH  19  22
ATOM     22  C   UNL     1      49.359   6.796  17.236  0.00  0.00    +0.000 A 
ATOM     23  C   UNL     1      50.433   7.489  16.695  0.00  0.00    +0.000 A 
ATOM     24  S   UNL     1      50.785   8.939  17.524  0.00  0.00    +0.000 S 
ATOM     25  C   UNL     1      49.495   8.698  18.610  0.00  0.00    +0.000 A 
ATOM     26  N   UNL     1      49.222   9.594  19.595  0.00  0.00    +0.000 NA
ATOM     27  C   UNL     1      48.196   9.291  20.320  0.00  0.00    +0.000 A 
ATOM     28  N   UNL     1      47.419   8.177  20.156  0.00  0.00    +0.000 N 
ATOM     29  C   UNL     1      47.698   7.211  19.222  0.00  0.00    +0.000 A 
ATOM     30  O   UNL     1      47.060   6.159  19.199  0.00  0.00    +0.000 OA
ATOM     31  C   UNL     1      48.816   7.520  18.358  0.00  0.00    +0.000 A 
ATOM     32  H   UNL     1      46.648   7.977  20.777  0.00  0.00    +0.000 HD
ENDBRANCH  19  22
ENDBRANCH   1  20
TORSDOF 7
ENDMDL
MODEL 7
REMARK VINA RESULT:    -7.388      2.541      3.503
REMARK INTER + INTRA:         -11.379
REMARK INTER:                 -10.367
REMARK INTRA:                  -1.012
REMARK UNBOUND:                -1.184
REMARK  Name = 
REMARK  7 active torsions:
REMARK  status: ('A' for Active; 'I' for Inactive)
REMARK    1  A    between atoms: C_2  and  C_20
REMARK    2  A    between atoms: N_3  and  C_4
REMARK    3  A    between atoms: C_4  and  C_5
REMARK    4  A    between atoms: C_8  and  C_9
REMARK    5  A    between atoms: C_9  and  C_10
REMARK    6  A    between atoms: C_10  and  O_11
REMARK    7  A    between atoms: C_10  and  C_12
REMARK                            x       y       z     vdW  Elec       q    Type
REMARK                         _______ _______ _______ _____ _____    ______ ____
ROOT
ATOM      1  C   UNL     1      47.122   4.206  15.501  0.00  0.00    +0.000 C 
ENDROOT
BRANCH   1   2
ATOM      2  C   UNL     1      46.708   4.553  14.103  0.00  0.00    +0.000 A 
ATOM      3  C   UNL     1      47.030   5.780  13.518  0.00  0.00    +0.000 A 
ATOM      4  C   UNL     1      46.615   6.058  12.216  0.00  0.00    +0.000 A 
ATOM      5  C   UNL     1      45.908   5.085  11.514  0.00  0.00    +0.000 A 
ATOM      6  N   UNL     1      45.589   3.887  12.062  0.00  0.00    +0.000 NA
ATOM      7  C   UNL     1      45.999   3.645  13.327  0.00  0.00    +0.000 A 
BRANCH   5   8
ATOM      8  C   UNL     1      45.413   5.315  10.109  0.00  0.00    +0.000 C 
BRANCH   8   9
ATOM      9  C   UNL     1      44.680   4.115   9.482  0.00  0.00    +0.000 C 
BRANCH   9  10
ATOM     10  C   UNL     1      45.540   3.185   8.652  0.00  0.00    +0.000 A 
ATOM     11  C   UNL     1      46.341   3.715   7.630  0.00  0.00    +0.000 A 
ATOM     12  C   UNL     1      47.138   2.878   6.855  0.00  0.00    +0.000 A 
ATOM     13  C   UNL     1      47.114   1.521   7.123  0.00  0.00    +0.000 A 
ATOM     14  N   UNL     1      46.359   0.966   8.092  0.00  0.00    +0.000 NA
ATOM     15  C   UNL     1      45.595   1.806   8.832  0.00  0.00    +0.000 A 
ENDBRANCH   9  10
BRANCH   9  16
ATOM     16  O   UNL     1      43.610   4.557   8.641  0.00  0.00    +0.000 OA
ATOM     17  H   UNL     1      43.787   5.486   8.407  0.00  0.00    +0.000 HD
ENDBRANCH   9  16
ENDBRANCH   8   9
ENDBRANCH   5   8
ENDBRANCH   1   2
BRANCH   1  20
ATOM     18  O   UNL     1      47.092   4.922  18.210  0.00  0.00    +0.000 OA
ATOM     19  C   UNL     1      47.863   5.502  17.452  0.00  0.00    +0.000 C 
ATOM     20  N   UNL     1      47.902   5.250  16.101  0.00  0.00    +0.000 N 
ATOM     21  H   UNL     1      48.694   5.580  15.563  0.00  0.00    +0.000 HD
BRANCH  19  22
ATOM     22  C   UNL     1      48.767   6.548  17.925  0.00  0.00    +0.000 A 
ATOM     23  C   UNL     1      48.270   7.738  18.440  0.00  0.00    +0.000 A 
ATOM     24  S   UNL     1      49.493   8.826  18.922  0.00  0.00    +0.000 S 
ATOM     25  C   UNL     1      50.721   7.729  18.484  0.00  0.00    +0.000 A 
ATOM     26  N   UNL     1      52.035   8.035  18.648  0.00  0.00    +0.000 NA
ATOM     27  C   UNL     1      52.848   7.093  18.300  0.00  0.00    +0.000 A 
ATOM     28  N   UNL     1      52.473   5.876  17.800  0.00  0.00    +0.000 N 
ATOM     29  C   UNL     1      51.164   5.550  17.553  0.00  0.00    +0.000 A 
ATOM     30  O   UNL     1      50.877   4.502  16.974  0.00  0.00    +0.000 OA
ATOM     31  C   UNL     1      50.208   6.557  17.961  0.00  0.00    +0.000 A 
ATOM     32  H   UNL     1      53.157   5.191  17.515  0.00  0.00    +0.000 HD
ENDBRANCH  19  22
ENDBRANCH   1  20
TORSDOF 7
ENDMDL
MODEL 8
REMARK VINA RESULT:    -7.172      2.612      3.349
REMARK INTER + INTRA:         -11.081
REMARK INTER:                 -10.031
REMARK INTRA:                  -1.050
REMARK UNBOUND:                -1.184
REMARK  Name = 
REMARK  7 active torsions:
REMARK  status: ('A' for Active; 'I' for Inactive)
REMARK    1  A    between atoms: C_2  and  C_20
REMARK    2  A    between atoms: N_3  and  C_4
REMARK    3  A    between atoms: C_4  and  C_5
REMARK    4  A    between atoms: C_8  and  C_9
REMARK    5  A    between atoms: C_9  and  C_10
REMARK    6  A    between atoms: C_10  and  O_11
REMARK    7  A    between atoms: C_10  and  C_12
REMARK                            x       y       z     vdW  Elec       q    Type
REMARK                         _______ _______ _______ _____ _____    ______ ____
ROOT
ATOM      1  C   UNL     1      47.167   5.961  14.769  0.00  0.00    +0.000 C 
ENDROOT
BRANCH   1   2
ATOM      2  C   UNL     1      46.398   5.286  13.673  0.00  0.00    +0.000 A 
ATOM      3  C   UNL     1      46.505   3.914  13.431  0.00  0.00    +0.000 A 
ATOM      4  C   UNL     1      45.775   3.334  12.393  0.00  0.00    +0.000 A 
ATOM      5  C   UNL     1      44.928   4.139  11.637  0.00  0.00    +0.000 A 
ATOM      6  N   UNL     1      44.807   5.470  11.858  0.00  0.00    +0.000 NA
ATOM      7  C   UNL     1      45.530   6.009  12.866  0.00  0.00    +0.000 A 
BRANCH   5   8
ATOM      8  C   UNL     1      44.117   3.590  10.490  0.00  0.00    +0.000 C 
BRANCH   8   9
ATOM      9  C   UNL     1      44.601   4.026   9.095  0.00  0.00    +0.000 C 
BRANCH   9  10
ATOM     10  C   UNL     1      45.526   3.054   8.391  0.00  0.00    +0.000 A 
ATOM     11  C   UNL     1      46.366   3.518   7.370  0.00  0.00    +0.000 A 
ATOM     12  C   UNL     1      47.223   2.643   6.710  0.00  0.00    +0.000 A 
ATOM     13  C   UNL     1      47.218   1.313   7.091  0.00  0.00    +0.000 A 
ATOM     14  N   UNL     1      46.427   0.820   8.065  0.00  0.00    +0.000 NA
ATOM     15  C   UNL     1      45.605   1.697   8.691  0.00  0.00    +0.000 A 
ENDBRANCH   9  10
BRANCH   9  16
ATOM     16  O   UNL     1      45.287   5.280   9.164  0.00  0.00    +0.000 OA
ATOM     17  H   UNL     1      45.302   5.653   8.263  0.00  0.00    +0.000 HD
ENDBRANCH   9  16
ENDBRANCH   8   9
ENDBRANCH   5   8
ENDBRANCH   1   2
BRANCH   1  20
ATOM     18  O   UNL     1      47.642   5.412  17.475  0.00  0.00    +0.000 OA
ATOM     19  C   UNL     1      48.341   4.866  16.627  0.00  0.00    +0.000 C 
ATOM     20  N   UNL     1      48.211   5.122  15.284  0.00  0.00    +0.000 N 
ATOM     21  H   UNL     1      48.644   4.491  14.619  0.00  0.00    +0.000 HD
BRANCH  19  22
ATOM     22  C   UNL     1      49.407   3.934  16.992  0.00  0.00    +0.000 A 
ATOM     23  C   UNL     1      49.232   2.564  16.852  0.00  0.00    +0.000 A 
ATOM     24  S   UNL     1      50.592   1.658  17.346  0.00  0.00    +0.000 S 
ATOM     25  C   UNL     1      51.464   3.070  17.733  0.00  0.00    +0.000 A 
ATOM     26  N   UNL     1      52.734   3.008  18.213  0.00  0.00    +0.000 NA
ATOM     27  C   UNL     1      53.276   4.161  18.431  0.00  0.00    +0.000 A 
ATOM     28  N   UNL     1      52.669   5.368  18.218  0.00  0.00    +0.000 N 
ATOM     29  C   UNL     1      51.366   5.478  17.802  0.00  0.00    +0.000 A 
ATOM     30  O   UNL     1      50.812   6.576  17.757  0.00  0.00    +0.000 OA
ATOM     31  C   UNL     1      50.724   4.216  17.507  0.00  0.00    +0.000 A 
ATOM     32  H   UNL     1      53.133   6.237  18.439  0.00  0.00    +0.000 HD
ENDBRANCH  19  22
ENDBRANCH   1  20
TORSDOF 7
ENDMDL
MODEL 9
REMARK VINA RESULT:    -7.125      1.807      2.617
REMARK INTER + INTRA:         -11.016
REMARK INTER:                 -10.176
REMARK INTRA:                  -0.841
REMARK UNBOUND:                -1.184
REMARK  Name = 
REMARK  7 active torsions:
REMARK  status: ('A' for Active; 'I' for Inactive)
REMARK    1  A    between atoms: C_2  and  C_20
REMARK    2  A    between atoms: N_3  and  C_4
REMARK    3  A    between atoms: C_4  and  C_5
REMARK    4  A    between atoms: C_8  and  C_9
REMARK    5  A    between atoms: C_9  and  C_10
REMARK    6  A    between atoms: C_10  and  O_11
REMARK    7  A    between atoms: C_10  and  C_12
REMARK                            x       y       z     vdW  Elec       q    Type
REMARK                         _______ _______ _______ _____ _____    ______ ____
ROOT
ATOM      1  C   UNL     1      47.921   8.124  13.820  0.00  0.00    +0.000 C 
ENDROOT
BRANCH   1   2
ATOM      2  C   UNL     1      46.777   7.350  13.237  0.00  0.00    +0.000 A 
ATOM      3  C   UNL     1      45.818   7.951  12.419  0.00  0.00    +0.000 A 
ATOM      4  C   UNL     1      44.767   7.189  11.907  0.00  0.00    +0.000 A 
ATOM      5  C   UNL     1      44.717   5.830  12.203  0.00  0.00    +0.000 A 
ATOM      6  N   UNL     1      45.639   5.227  12.992  0.00  0.00    +0.000 NA
ATOM      7  C   UNL     1      46.644   5.989  13.479  0.00  0.00    +0.000 A 
BRANCH   5   8
ATOM      8  C   UNL     1      43.606   4.944  11.701  0.00  0.00    +0.000 C 
BRANCH   8   9
ATOM      9  C   UNL     1      44.050   3.528  11.291  0.00  0.00    +0.000 C 
BRANCH   9  10
ATOM     10  C   UNL     1      44.754   3.424   9.954  0.00  0.00    +0.000 A 
ATOM     11  C   UNL     1      45.120   2.163   9.463  0.00  0.00    +0.000 A 
ATOM     12  C   UNL     1      45.767   2.046   8.237  0.00  0.00    +0.000 A 
ATOM     13  C   UNL     1      46.036   3.202   7.527  0.00  0.00    +0.000 A 
ATOM     14  N   UNL     1      45.706   4.436   7.959  0.00  0.00    +0.000 NA
ATOM     15  C   UNL     1      45.074   4.518   9.154  0.00  0.00    +0.000 A 
ENDBRANCH   9  10
BRANCH   9  16
ATOM     16  O   UNL     1      42.930   2.638  11.243  0.00  0.00    +0.000 OA
ATOM     17  H   UNL     1      42.900   2.256  10.347  0.00  0.00    +0.000 HD
ENDBRANCH   9  16
ENDBRANCH   8   9
ENDBRANCH   5   8
ENDBRANCH   1   2
BRANCH   1  20
ATOM     18  O   UNL     1      50.158   6.888  14.968  0.00  0.00    +0.000 OA
ATOM     19  C   UNL     1      49.254   7.277  15.701  0.00  0.00    +0.000 C 
ATOM     20  N   UNL     1      48.099   7.842  15.215  0.00  0.00    +0.000 N 
ATOM     21  H   UNL     1      47.494   8.345  15.852  0.00  0.00    +0.000 HD
BRANCH  19  22
ATOM     22  C   UNL     1      49.317   7.118  17.153  0.00  0.00    +0.000 A 
ATOM     23  C   UNL     1      49.713   8.171  17.966  0.00  0.00    +0.000 A 
ATOM     24  S   UNL     1      49.730   7.770  19.625  0.00  0.00    +0.000 S 
ATOM     25  C   UNL     1      49.181   6.189  19.308  0.00  0.00    +0.000 A 
ATOM     26  N   UNL     1      48.968   5.299  20.312  0.00  0.00    +0.000 NA
ATOM     27  C   UNL     1      48.523   4.151  19.920  0.00  0.00    +0.000 A 
ATOM     28  N   UNL     1      48.274   3.807  18.619  0.00  0.00    +0.000 N 
ATOM     29  C   UNL     1      48.539   4.648  17.568  0.00  0.00    +0.000 A 
ATOM     30  O   UNL     1      48.434   4.253  16.407  0.00  0.00    +0.000 OA
ATOM     31  C   UNL     1      49.004   5.962  17.956  0.00  0.00    +0.000 A 
ATOM     32  H   UNL     1      47.957   2.881  18.371  0.00  0.00    +0.000 HD
ENDBRANCH  19  22
ENDBRANCH   1  20
TORSDOF 7
ENDMDL
