MODEL 1
REMARK VINA RESULT:    -8.177      0.000      0.000
REMARK INTER + INTRA:         -10.670
REMARK INTER:                 -10.328
REMARK INTRA:                  -0.342
REMARK UNBOUND:                -0.342
REMARK  Name = 
REMARK  8 active torsions:
REMARK  status: ('A' for Active; 'I' for Inactive)
REMARK    1  A    between atoms: C_1  and  C_2
REMARK    2  A    between atoms: C_9  and  C_10
REMARK    3  A    between atoms: C_10  and  O_11
REMARK    4  A    between atoms: O_11  and  C_12
REMARK    5  A    between atoms: C_15  and  C_16
REMARK    6  A    between atoms: C_16  and  C_17
REMARK    7  A    between atoms: C_16  and  O_18
REMARK    8  A    between atoms: C_23  and  C_24
REMARK                            x       y       z     vdW  Elec       q    Type
REMARK                         _______ _______ _______ _____ _____    ______ ____
ROOT
ATOM      1  C   UNL     1      46.209   9.448  12.138  0.00  0.00    +0.000 C 
ATOM      2  C   UNL     1      47.715   9.218  12.221  0.00  0.00    +0.000 C 
ATOM      3  C   UNL     1      48.127   7.774  11.885  0.00  0.00    +0.000 C 
ATOM      4  N   UNL     1      47.879   6.848  12.992  0.00  0.00    +0.000 N 
ATOM      5  C   UNL     1      46.915   5.864  12.881  0.00  0.00    +0.000 A 
ATOM      6  C   UNL     1      47.053   4.699  13.613  0.00  0.00    +0.000 A 
ATOM      7  C   UNL     1      46.098   3.728  13.454  0.00  0.00    +0.000 A 
ATOM      8  N   UNL     1      45.042   3.862  12.639  0.00  0.00    +0.000 NA
ATOM      9  C   UNL     1      44.971   5.015  11.949  0.00  0.00    +0.000 A 
ATOM     10  N   UNL     1      45.883   6.018  12.025  0.00  0.00    +0.000 NA
ATOM     11  C   UNL     1      48.304   7.317  14.319  0.00  0.00    +0.000 C 
ATOM     12  C   UNL     1      47.867   8.776  14.571  0.00  0.00    +0.000 C 
ATOM     13  C   UNL     1      48.525   9.314  15.838  0.00  0.00    +0.000 C 
ATOM     14  O   UNL     1      48.248   9.644  13.490  0.00  0.00    +0.000 OA
ENDROOT
BRANCH   9  15
ATOM     15  C   UNL     1      43.816   5.164  10.972  0.00  0.00    +0.000 C 
BRANCH  15  16
ATOM     16  O   UNL     1      43.533   3.919  10.314  0.00  0.00    +0.000 OA
BRANCH  16  17
ATOM     17  C   UNL     1      44.490   3.450   9.458  0.00  0.00    +0.000 A 
ATOM     18  C   UNL     1      44.923   2.134   9.341  0.00  0.00    +0.000 A 
ATOM     19  C   UNL     1      45.921   1.805   8.420  0.00  0.00    +0.000 A 
ATOM     20  C   UNL     1      46.472   2.810   7.627  0.00  0.00    +0.000 A 
ATOM     21  N   UNL     1      46.068   4.103   7.716  0.00  0.00    +0.000 NA
ATOM     22  C   UNL     1      45.095   4.386   8.624  0.00  0.00    +0.000 A 
BRANCH  20  23
ATOM     23  C   UNL     1      47.567   2.484   6.627  0.00  0.00    +0.000 C 
ATOM     24  C   UNL     1      47.147   2.839   5.208  0.00  0.00    +0.000 C 
BRANCH  23  25
ATOM     25  O   UNL     1      47.868   1.087   6.661  0.00  0.00    +0.000 OA
ATOM     26  H   UNL     1      48.673   0.990   6.109  0.00  0.00    +0.000 HD
ENDBRANCH  23  25
ENDBRANCH  20  23
ENDBRANCH  16  17
ENDBRANCH  15  16
ENDBRANCH   9  15
TORSDOF 5
ENDMDL
MODEL 2
REMARK VINA RESULT:    -7.324      3.071      4.112
REMARK INTER + INTRA:          -9.593
REMARK INTER:                  -9.345
REMARK INTRA:                  -0.247
REMARK UNBOUND:                -0.342
REMARK  Name = 
REMARK  8 active torsions:
REMARK  status: ('A' for Active; 'I' for Inactive)
REMARK    1  A    between atoms: C_1  and  C_2
REMARK    2  A    between atoms: C_9  and  C_10
REMARK    3  A    between atoms: C_10  and  O_11
REMARK    4  A    between atoms: O_11  and  C_12
REMARK    5  A    between atoms: C_15  and  C_16
REMARK    6  A    between atoms: C_16  and  C_17
REMARK    7  A    between atoms: C_16  and  O_18
REMARK    8  A    between atoms: C_23  and  C_24
REMARK                            x       y       z     vdW  Elec       q    Type
REMARK                         _______ _______ _______ _____ _____    ______ ____
ROOT
ATOM      1  C   UNL     1      47.549   2.848  17.338  0.00  0.00    +0.000 C 
ATOM      2  C   UNL     1      47.944   4.042  18.202  0.00  0.00    +0.000 C 
ATOM      3  C   UNL     1      47.552   5.395  17.581  0.00  0.00    +0.000 C 
ATOM      4  N   UNL     1      48.467   5.807  16.515  0.00  0.00    +0.000 N 
ATOM      5  C   UNL     1      48.034   5.865  15.203  0.00  0.00    +0.000 A 
ATOM      6  C   UNL     1      48.646   6.745  14.329  0.00  0.00    +0.000 A 
ATOM      7  C   UNL     1      48.170   6.802  13.044  0.00  0.00    +0.000 A 
ATOM      8  N   UNL     1      47.159   6.044  12.600  0.00  0.00    +0.000 NA
ATOM      9  C   UNL     1      46.601   5.216  13.502  0.00  0.00    +0.000 A 
ATOM     10  N   UNL     1      46.990   5.112  14.799  0.00  0.00    +0.000 NA
ATOM     11  C   UNL     1      49.898   5.657  16.812  0.00  0.00    +0.000 C 
ATOM     12  C   UNL     1      50.204   4.283  17.446  0.00  0.00    +0.000 C 
ATOM     13  C   UNL     1      51.638   4.248  17.966  0.00  0.00    +0.000 C 
ATOM     14  O   UNL     1      49.339   4.002  18.559  0.00  0.00    +0.000 OA
ENDROOT
BRANCH   9  15
ATOM     15  C   UNL     1      45.411   4.391  13.038  0.00  0.00    +0.000 C 
BRANCH  15  16
ATOM     16  O   UNL     1      44.794   4.980  11.882  0.00  0.00    +0.000 OA
BRANCH  16  17
ATOM     17  C   UNL     1      45.078   4.399  10.678  0.00  0.00    +0.000 A 
ATOM     18  C   UNL     1      44.911   3.058  10.346  0.00  0.00    +0.000 A 
ATOM     19  C   UNL     1      45.253   2.607   9.068  0.00  0.00    +0.000 A 
ATOM     20  C   UNL     1      45.761   3.513   8.140  0.00  0.00    +0.000 A 
ATOM     21  N   UNL     1      45.932   4.828   8.433  0.00  0.00    +0.000 NA
ATOM     22  C   UNL     1      45.589   5.232   9.687  0.00  0.00    +0.000 A 
BRANCH  20  23
ATOM     23  C   UNL     1      46.153   3.049   6.749  0.00  0.00    +0.000 C 
ATOM     24  C   UNL     1      47.080   1.843   6.805  0.00  0.00    +0.000 C 
BRANCH  23  25
ATOM     25  O   UNL     1      46.834   4.096   6.052  0.00  0.00    +0.000 OA
ATOM     26  H   UNL     1      46.305   4.902   6.230  0.00  0.00    +0.000 HD
ENDBRANCH  23  25
ENDBRANCH  20  23
ENDBRANCH  16  17
ENDBRANCH  15  16
ENDBRANCH   9  15
TORSDOF 5
ENDMDL
MODEL 3
REMARK VINA RESULT:    -7.266      1.577      2.728
REMARK INTER + INTRA:          -9.520
REMARK INTER:                  -9.040
REMARK INTRA:                  -0.480
REMARK UNBOUND:                -0.342
REMARK  Name = 
REMARK  8 active torsions:
REMARK  status: ('A' for Active; 'I' for Inactive)
REMARK    1  A    between atoms: C_1  and  C_2
REMARK    2  A    between atoms: C_9  and  C_10
REMARK    3  A    between atoms: C_10  and  O_11
REMARK    4  A    between atoms: O_11  and  C_12
REMARK    5  A    between atoms: C_15  and  C_16
REMARK    6  A    between atoms: C_16  and  C_17
REMARK    7  A    between atoms: C_16  and  O_18
REMARK    8  A    between atoms: C_23  and  C_24
REMARK                            x       y       z     vdW  Elec       q    Type
REMARK                         _______ _______ _______ _____ _____    ______ ____
ROOT
ATOM      1  C   UNL     1      48.954   7.004  12.465  0.00  0.00    +0.000 C 
ATOM      2  C   UNL     1      48.855   8.278  13.299  0.00  0.00    +0.000 C 
ATOM      3  C   UNL     1      47.414   8.610  13.728  0.00  0.00    +0.000 C 
ATOM      4  N   UNL     1      46.630   9.205  12.644  0.00  0.00    +0.000 N 
ATOM      5  C   UNL     1      45.568   8.516  12.088  0.00  0.00    +0.000 A 
ATOM      6  C   UNL     1      44.526   9.228  11.521  0.00  0.00    +0.000 A 
ATOM      7  C   UNL     1      43.472   8.516  11.008  0.00  0.00    +0.000 A 
ATOM      8  N   UNL     1      43.413   7.178  11.021  0.00  0.00    +0.000 NA
ATOM      9  C   UNL     1      44.454   6.546  11.595  0.00  0.00    +0.000 A 
ATOM     10  N   UNL     1      45.525   7.170  12.149  0.00  0.00    +0.000 NA
ATOM     11  C   UNL     1      47.304  10.263  11.879  0.00  0.00    +0.000 C 
ATOM     12  C   UNL     1      48.746   9.859  11.502  0.00  0.00    +0.000 C 
ATOM     13  C   UNL     1      49.498  11.057  10.930  0.00  0.00    +0.000 C 
ATOM     14  O   UNL     1      49.487   9.394  12.643  0.00  0.00    +0.000 OA
ENDROOT
BRANCH   9  15
ATOM     15  C   UNL     1      44.380   5.030  11.678  0.00  0.00    +0.000 C 
BRANCH  15  16
ATOM     16  O   UNL     1      43.758   4.479  10.506  0.00  0.00    +0.000 OA
BRANCH  16  17
ATOM     17  C   UNL     1      44.574   3.798   9.646  0.00  0.00    +0.000 A 
ATOM     18  C   UNL     1      44.740   2.419   9.579  0.00  0.00    +0.000 A 
ATOM     19  C   UNL     1      45.621   1.866   8.646  0.00  0.00    +0.000 A 
ATOM     20  C   UNL     1      46.324   2.711   7.790  0.00  0.00    +0.000 A 
ATOM     21  N   UNL     1      46.179   4.061   7.828  0.00  0.00    +0.000 NA
ATOM     22  C   UNL     1      45.315   4.564   8.751  0.00  0.00    +0.000 A 
BRANCH  20  23
ATOM     23  C   UNL     1      47.297   2.139   6.774  0.00  0.00    +0.000 C 
ATOM     24  C   UNL     1      47.090   2.755   5.398  0.00  0.00    +0.000 C 
BRANCH  23  25
ATOM     25  O   UNL     1      47.114   0.725   6.657  0.00  0.00    +0.000 OA
ATOM     26  H   UNL     1      46.638   0.465   7.473  0.00  0.00    +0.000 HD
ENDBRANCH  23  25
ENDBRANCH  20  23
ENDBRANCH  16  17
ENDBRANCH  15  16
ENDBRANCH   9  15
TORSDOF 5
ENDMDL
MODEL 4
REMARK VINA RESULT:    -7.071      2.086      7.496
REMARK INTER + INTRA:          -9.273
REMARK INTER:                  -8.808
REMARK INTRA:                  -0.466
REMARK UNBOUND:                -0.342
REMARK  Name = 
REMARK  8 active torsions:
REMARK  status: ('A' for Active; 'I' for Inactive)
REMARK    1  A    between atoms: C_1  and  C_2
REMARK    2  A    between atoms: C_9  and  C_10
REMARK    3  A    between atoms: C_10  and  O_11
REMARK    4  A    between atoms: O_11  and  C_12
REMARK    5  A    between atoms: C_15  and  C_16
REMARK    6  A    between atoms: C_16  and  C_17
REMARK    7  A    between atoms: C_16  and  O_18
REMARK    8  A    between atoms: C_23  and  C_24
REMARK                            x       y       z     vdW  Elec       q    Type
REMARK                         _______ _______ _______ _____ _____    ______ ____
ROOT
ATOM      1  C   UNL     1      47.069   4.328   7.687  0.00  0.00    +0.000 C 
ATOM      2  C   UNL     1      45.956   3.533   7.008  0.00  0.00    +0.000 C 
ATOM      3  C   UNL     1      44.597   3.666   7.719  0.00  0.00    +0.000 C 
ATOM      4  N   UNL     1      44.513   2.839   8.925  0.00  0.00    +0.000 N 
ATOM      5  C   UNL     1      44.443   3.428  10.174  0.00  0.00    +0.000 A 
ATOM      6  C   UNL     1      43.816   2.749  11.204  0.00  0.00    +0.000 A 
ATOM      7  C   UNL     1      43.732   3.374  12.422  0.00  0.00    +0.000 A 
ATOM      8  N   UNL     1      44.236   4.593  12.659  0.00  0.00    +0.000 NA
ATOM      9  C   UNL     1      44.824   5.202  11.613  0.00  0.00    +0.000 A 
ATOM     10  N   UNL     1      44.929   4.670  10.369  0.00  0.00    +0.000 NA
ATOM     11  C   UNL     1      45.004   1.461   8.786  0.00  0.00    +0.000 C 
ATOM     12  C   UNL     1      46.361   1.414   8.050  0.00  0.00    +0.000 C 
ATOM     13  C   UNL     1      46.725  -0.026   7.704  0.00  0.00    +0.000 C 
ATOM     14  O   UNL     1      46.327   2.155   6.818  0.00  0.00    +0.000 OA
ENDROOT
BRANCH   9  15
ATOM     15  C   UNL     1      45.347   6.612  11.841  0.00  0.00    +0.000 C 
BRANCH  15  16
ATOM     16  O   UNL     1      46.659   6.773  11.279  0.00  0.00    +0.000 OA
BRANCH  16  17
ATOM     17  C   UNL     1      47.663   7.083  12.154  0.00  0.00    +0.000 A 
ATOM     18  C   UNL     1      48.522   8.173  12.075  0.00  0.00    +0.000 A 
ATOM     19  C   UNL     1      49.510   8.356  13.046  0.00  0.00    +0.000 A 
ATOM     20  C   UNL     1      49.620   7.435  14.087  0.00  0.00    +0.000 A 
ATOM     21  N   UNL     1      48.793   6.363  14.193  0.00  0.00    +0.000 NA
ATOM     22  C   UNL     1      47.844   6.217  13.229  0.00  0.00    +0.000 A 
BRANCH  20  23
ATOM     23  C   UNL     1      50.692   7.601  15.149  0.00  0.00    +0.000 C 
ATOM     24  C   UNL     1      51.980   8.154  14.558  0.00  0.00    +0.000 C 
BRANCH  23  25
ATOM     25  O   UNL     1      50.989   6.339  15.753  0.00  0.00    +0.000 OA
ATOM     26  H   UNL     1      51.366   5.797  15.029  0.00  0.00    +0.000 HD
ENDBRANCH  23  25
ENDBRANCH  20  23
ENDBRANCH  16  17
ENDBRANCH  15  16
ENDBRANCH   9  15
TORSDOF 5
ENDMDL
MODEL 5
REMARK VINA RESULT:    -6.927      3.674      5.787
REMARK INTER + INTRA:          -9.092
REMARK INTER:                  -8.635
REMARK INTRA:                  -0.457
REMARK UNBOUND:                -0.342
REMARK  Name = 
REMARK  8 active torsions:
REMARK  status: ('A' for Active; 'I' for Inactive)
REMARK    1  A    between atoms: C_1  and  C_2
REMARK    2  A    between atoms: C_9  and  C_10
REMARK    3  A    between atoms: C_10  and  O_11
REMARK    4  A    between atoms: O_11  and  C_12
REMARK    5  A    between atoms: C_15  and  C_16
REMARK    6  A    between atoms: C_16  and  C_17
REMARK    7  A    between atoms: C_16  and  O_18
REMARK    8  A    between atoms: C_23  and  C_24
REMARK                            x       y       z     vdW  Elec       q    Type
REMARK                         _______ _______ _______ _____ _____    ______ ____
ROOT
ATOM      1  C   UNL     1      48.111   2.967  16.370  0.00  0.00    +0.000 C 
ATOM      2  C   UNL     1      48.619   3.299  17.770  0.00  0.00    +0.000 C 
ATOM      3  C   UNL     1      48.833   4.807  17.995  0.00  0.00    +0.000 C 
ATOM      4  N   UNL     1      50.070   5.295  17.381  0.00  0.00    +0.000 N 
ATOM      5  C   UNL     1      50.023   6.166  16.309  0.00  0.00    +0.000 A 
ATOM      6  C   UNL     1      51.076   7.038  16.103  0.00  0.00    +0.000 A 
ATOM      7  C   UNL     1      50.984   7.913  15.050  0.00  0.00    +0.000 A 
ATOM      8  N   UNL     1      49.936   7.951  14.216  0.00  0.00    +0.000 NA
ATOM      9  C   UNL     1      48.941   7.083  14.477  0.00  0.00    +0.000 A 
ATOM     10  N   UNL     1      48.937   6.201  15.509  0.00  0.00    +0.000 NA
ATOM     11  C   UNL     1      51.260   4.464  17.604  0.00  0.00    +0.000 C 
ATOM     12  C   UNL     1      50.959   2.967  17.374  0.00  0.00    +0.000 C 
ATOM     13  C   UNL     1      52.131   2.112  17.846  0.00  0.00    +0.000 C 
ATOM     14  O   UNL     1      49.796   2.537  18.102  0.00  0.00    +0.000 OA
ENDROOT
BRANCH   9  15
ATOM     15  C   UNL     1      47.714   7.151  13.581  0.00  0.00    +0.000 C 
BRANCH  15  16
ATOM     16  O   UNL     1      46.852   6.024  13.801  0.00  0.00    +0.000 OA
BRANCH  16  17
ATOM     17  C   UNL     1      46.252   5.492  12.693  0.00  0.00    +0.000 A 
ATOM     18  C   UNL     1      46.143   6.091  11.443  0.00  0.00    +0.000 A 
ATOM     19  C   UNL     1      45.491   5.423  10.403  0.00  0.00    +0.000 A 
ATOM     20  C   UNL     1      44.956   4.158  10.636  0.00  0.00    +0.000 A 
ATOM     21  N   UNL     1      45.050   3.546  11.845  0.00  0.00    +0.000 NA
ATOM     22  C   UNL     1      45.689   4.226  12.834  0.00  0.00    +0.000 A 
BRANCH  20  23
ATOM     23  C   UNL     1      44.232   3.414   9.528  0.00  0.00    +0.000 C 
ATOM     24  C   UNL     1      44.955   2.127   9.158  0.00  0.00    +0.000 C 
BRANCH  23  25
ATOM     25  O   UNL     1      44.152   4.229   8.356  0.00  0.00    +0.000 OA
ATOM     26  H   UNL     1      44.720   3.777   7.697  0.00  0.00    +0.000 HD
ENDBRANCH  23  25
ENDBRANCH  20  23
ENDBRANCH  16  17
ENDBRANCH  15  16
ENDBRANCH   9  15
TORSDOF 5
ENDMDL
MODEL 6
REMARK VINA RESULT:    -6.598      2.086      7.277
REMARK INTER + INTRA:          -8.675
REMARK INTER:                  -8.182
REMARK INTRA:                  -0.494
REMARK UNBOUND:                -0.342
REMARK  Name = 
REMARK  8 active torsions:
REMARK  status: ('A' for Active; 'I' for Inactive)
REMARK    1  A    between atoms: C_1  and  C_2
REMARK    2  A    between atoms: C_9  and  C_10
REMARK    3  A    between atoms: C_10  and  O_11
REMARK    4  A    between atoms: O_11  and  C_12
REMARK    5  A    between atoms: C_15  and  C_16
REMARK    6  A    between atoms: C_16  and  C_17
REMARK    7  A    between atoms: C_16  and  O_18
REMARK    8  A    between atoms: C_23  and  C_24
REMARK                            x       y       z     vdW  Elec       q    Type
REMARK                         _______ _______ _______ _____ _____    ______ ____
ROOT
ATOM      1  C   UNL     1      46.910   4.490   7.788  0.00  0.00    +0.000 C 
ATOM      2  C   UNL     1      45.851   3.650   7.080  0.00  0.00    +0.000 C 
ATOM      3  C   UNL     1      44.476   3.703   7.769  0.00  0.00    +0.000 C 
ATOM      4  N   UNL     1      44.414   2.857   8.963  0.00  0.00    +0.000 N 
ATOM      5  C   UNL     1      44.293   3.424  10.218  0.00  0.00    +0.000 A 
ATOM      6  C   UNL     1      43.685   2.700  11.228  0.00  0.00    +0.000 A 
ATOM      7  C   UNL     1      43.549   3.304  12.452  0.00  0.00    +0.000 A 
ATOM      8  N   UNL     1      43.985   4.544  12.713  0.00  0.00    +0.000 NA
ATOM      9  C   UNL     1      44.559   5.196  11.685  0.00  0.00    +0.000 A 
ATOM     10  N   UNL     1      44.712   4.687  10.436  0.00  0.00    +0.000 NA
ATOM     11  C   UNL     1      44.978   1.508   8.815  0.00  0.00    +0.000 C 
ATOM     12  C   UNL     1      46.347   1.540   8.102  0.00  0.00    +0.000 C 
ATOM     13  C   UNL     1      46.791   0.125   7.744  0.00  0.00    +0.000 C 
ATOM     14  O   UNL     1      46.296   2.294   6.879  0.00  0.00    +0.000 OA
ENDROOT
BRANCH   9  15
ATOM     15  C   UNL     1      45.004   6.627  11.940  0.00  0.00    +0.000 C 
BRANCH  15  16
ATOM     16  O   UNL     1      45.949   6.690  13.020  0.00  0.00    +0.000 OA
BRANCH  16  17
ATOM     17  C   UNL     1      47.134   7.319  12.758  0.00  0.00    +0.000 A 
ATOM     18  C   UNL     1      47.935   7.139  11.635  0.00  0.00    +0.000 A 
ATOM     19  C   UNL     1      49.130   7.852  11.508  0.00  0.00    +0.000 A 
ATOM     20  C   UNL     1      49.503   8.738  12.516  0.00  0.00    +0.000 A 
ATOM     21  N   UNL     1      48.740   8.938  13.622  0.00  0.00    +0.000 NA
ATOM     22  C   UNL     1      47.585   8.226  13.712  0.00  0.00    +0.000 A 
BRANCH  20  23
ATOM     23  C   UNL     1      50.802   9.517  12.411  0.00  0.00    +0.000 C 
ATOM     24  C   UNL     1      51.408   9.405  11.020  0.00  0.00    +0.000 C 
BRANCH  23  25
ATOM     25  O   UNL     1      51.758   9.015  13.350  0.00  0.00    +0.000 OA
ATOM     26  H   UNL     1      52.627   9.303  13.001  0.00  0.00    +0.000 HD
ENDBRANCH  23  25
ENDBRANCH  20  23
ENDBRANCH  16  17
ENDBRANCH  15  16
ENDBRANCH   9  15
TORSDOF 5
ENDMDL
MODEL 7
REMARK VINA RESULT:    -6.505      1.886      2.455
REMARK INTER + INTRA:          -8.558
REMARK INTER:                  -8.138
REMARK INTRA:                  -0.420
REMARK UNBOUND:                -0.342
REMARK  Name = 
REMARK  8 active torsions:
REMARK  status: ('A' for Active; 'I' for Inactive)
REMARK    1  A    between atoms: C_1  and  C_2
REMARK    2  A    between atoms: C_9  and  C_10
REMARK    3  A    between atoms: C_10  and  O_11
REMARK    4  A    between atoms: O_11  and  C_12
REMARK    5  A    between atoms: C_15  and  C_16
REMARK    6  A    between atoms: C_16  and  C_17
REMARK    7  A    between atoms: C_16  and  O_18
REMARK    8  A    between atoms: C_23  and  C_24
REMARK                            x       y       z     vdW  Elec       q    Type
REMARK                         _______ _______ _______ _____ _____    ______ ____
ROOT
ATOM      1  C   UNL     1      48.229   9.488  14.985  0.00  0.00    +0.000 C 
ATOM      2  C   UNL     1      49.527   8.824  15.438  0.00  0.00    +0.000 C 
ATOM      3  C   UNL     1      49.705   7.401  14.881  0.00  0.00    +0.000 C 
ATOM      4  N   UNL     1      48.896   6.413  15.599  0.00  0.00    +0.000 N 
ATOM      5  C   UNL     1      47.840   5.781  14.969  0.00  0.00    +0.000 A 
ATOM      6  C   UNL     1      47.461   4.519  15.391  0.00  0.00    +0.000 A 
ATOM      7  C   UNL     1      46.432   3.906  14.724  0.00  0.00    +0.000 A 
ATOM      8  N   UNL     1      45.778   4.472  13.701  0.00  0.00    +0.000 NA
ATOM      9  C   UNL     1      46.201   5.696  13.334  0.00  0.00    +0.000 A 
ATOM     10  N   UNL     1      47.226   6.366  13.921  0.00  0.00    +0.000 NA
ATOM     11  C   UNL     1      48.929   6.510  17.065  0.00  0.00    +0.000 C 
ATOM     12  C   UNL     1      48.760   7.969  17.541  0.00  0.00    +0.000 C 
ATOM     13  C   UNL     1      49.042   8.073  19.036  0.00  0.00    +0.000 C 
ATOM     14  O   UNL     1      49.669   8.859  16.871  0.00  0.00    +0.000 OA
ENDROOT
BRANCH   9  15
ATOM     15  C   UNL     1      45.515   6.332  12.136  0.00  0.00    +0.000 C 
BRANCH  15  16
ATOM     16  O   UNL     1      44.511   5.461  11.592  0.00  0.00    +0.000 OA
BRANCH  16  17
ATOM     17  C   UNL     1      44.864   4.742  10.485  0.00  0.00    +0.000 A 
ATOM     18  C   UNL     1      44.571   3.405  10.238  0.00  0.00    +0.000 A 
ATOM     19  C   UNL     1      45.007   2.800   9.056  0.00  0.00    +0.000 A 
ATOM     20  C   UNL     1      45.734   3.552   8.136  0.00  0.00    +0.000 A 
ATOM     21  N   UNL     1      46.032   4.860   8.346  0.00  0.00    +0.000 NA
ATOM     22  C   UNL     1      45.593   5.415   9.508  0.00  0.00    +0.000 A 
BRANCH  20  23
ATOM     23  C   UNL     1      46.231   2.918   6.849  0.00  0.00    +0.000 C 
ATOM     24  C   UNL     1      47.103   1.703   7.127  0.00  0.00    +0.000 C 
BRANCH  23  25
ATOM     25  O   UNL     1      47.009   3.859   6.103  0.00  0.00    +0.000 OA
ATOM     26  H   UNL     1      47.933   3.541   6.185  0.00  0.00    +0.000 HD
ENDBRANCH  23  25
ENDBRANCH  20  23
ENDBRANCH  16  17
ENDBRANCH  15  16
ENDBRANCH   9  15
TORSDOF 5
ENDMDL
MODEL 8
REMARK VINA RESULT:    -6.329      3.532      4.669
REMARK INTER + INTRA:          -8.336
REMARK INTER:                  -7.963
REMARK INTRA:                  -0.374
REMARK UNBOUND:                -0.342
REMARK  Name = 
REMARK  8 active torsions:
REMARK  status: ('A' for Active; 'I' for Inactive)
REMARK    1  A    between atoms: C_1  and  C_2
REMARK    2  A    between atoms: C_9  and  C_10
REMARK    3  A    between atoms: C_10  and  O_11
REMARK    4  A    between atoms: O_11  and  C_12
REMARK    5  A    between atoms: C_15  and  C_16
REMARK    6  A    between atoms: C_16  and  C_17
REMARK    7  A    between atoms: C_16  and  O_18
REMARK    8  A    between atoms: C_23  and  C_24
REMARK                            x       y       z     vdW  Elec       q    Type
REMARK                         _______ _______ _______ _____ _____    ______ ____
ROOT
ATOM      1  C   UNL     1      49.887   8.552  16.805  0.00  0.00    +0.000 C 
ATOM      2  C   UNL     1      50.966   7.846  17.622  0.00  0.00    +0.000 C 
ATOM      3  C   UNL     1      50.993   6.323  17.401  0.00  0.00    +0.000 C 
ATOM      4  N   UNL     1      49.927   5.632  18.129  0.00  0.00    +0.000 N 
ATOM      5  C   UNL     1      48.896   5.016  17.444  0.00  0.00    +0.000 A 
ATOM      6  C   UNL     1      48.250   3.939  18.025  0.00  0.00    +0.000 A 
ATOM      7  C   UNL     1      47.255   3.329  17.305  0.00  0.00    +0.000 A 
ATOM      8  N   UNL     1      46.877   3.731  16.084  0.00  0.00    +0.000 NA
ATOM      9  C   UNL     1      47.552   4.778  15.572  0.00  0.00    +0.000 A 
ATOM     10  N   UNL     1      48.565   5.426  16.202  0.00  0.00    +0.000 NA
ATOM     11  C   UNL     1      49.738   6.049  19.525  0.00  0.00    +0.000 C 
ATOM     12  C   UNL     1      49.739   7.586  19.663  0.00  0.00    +0.000 C 
ATOM     13  C   UNL     1      49.789   7.986  21.135  0.00  0.00    +0.000 C 
ATOM     14  O   UNL     1      50.879   8.181  19.020  0.00  0.00    +0.000 OA
ENDROOT
BRANCH   9  15
ATOM     15  C   UNL     1      47.183   5.213  14.163  0.00  0.00    +0.000 C 
BRANCH  15  16
ATOM     16  O   UNL     1      45.832   4.845  13.846  0.00  0.00    +0.000 OA
BRANCH  16  17
ATOM     17  C   UNL     1      45.573   4.546  12.537  0.00  0.00    +0.000 A 
ATOM     18  C   UNL     1      45.111   3.331  12.042  0.00  0.00    +0.000 A 
ATOM     19  C   UNL     1      44.898   3.171  10.670  0.00  0.00    +0.000 A 
ATOM     20  C   UNL     1      45.155   4.239   9.813  0.00  0.00    +0.000 A 
ATOM     21  N   UNL     1      45.603   5.438  10.267  0.00  0.00    +0.000 NA
ATOM     22  C   UNL     1      45.800   5.557  11.608  0.00  0.00    +0.000 A 
BRANCH  20  23
ATOM     23  C   UNL     1      44.945   4.091   8.317  0.00  0.00    +0.000 C 
ATOM     24  C   UNL     1      44.707   2.638   7.929  0.00  0.00    +0.000 C 
BRANCH  23  25
ATOM     25  O   UNL     1      46.097   4.554   7.607  0.00  0.00    +0.000 OA
ATOM     26  H   UNL     1      46.793   3.892   7.800  0.00  0.00    +0.000 HD
ENDBRANCH  23  25
ENDBRANCH  20  23
ENDBRANCH  16  17
ENDBRANCH  15  16
ENDBRANCH   9  15
TORSDOF 5
ENDMDL
MODEL 9
REMARK VINA RESULT:    -6.151      4.158      5.671
REMARK INTER + INTRA:          -8.112
REMARK INTER:                  -7.411
REMARK INTRA:                  -0.701
REMARK UNBOUND:                -0.342
REMARK  Name = 
REMARK  8 active torsions:
REMARK  status: ('A' for Active; 'I' for Inactive)
REMARK    1  A    between atoms: C_1  and  C_2
REMARK    2  A    between atoms: C_9  and  C_10
REMARK    3  A    between atoms: C_10  and  O_11
REMARK    4  A    between atoms: O_11  and  C_12
REMARK    5  A    between atoms: C_15  and  C_16
REMARK    6  A    between atoms: C_16  and  C_17
REMARK    7  A    between atoms: C_16  and  O_18
REMARK    8  A    between atoms: C_23  and  C_24
REMARK                            x       y       z     vdW  Elec       q    Type
REMARK                         _______ _______ _______ _____ _____    ______ ____
ROOT
ATOM      1  C   UNL     1      48.807   8.497  15.413  0.00  0.00    +0.000 C 
ATOM      2  C   UNL     1      49.971   8.392  16.394  0.00  0.00    +0.000 C 
ATOM      3  C   UNL     1      50.375   6.939  16.702  0.00  0.00    +0.000 C 
ATOM      4  N   UNL     1      49.462   6.292  17.647  0.00  0.00    +0.000 N 
ATOM      5  C   UNL     1      48.652   5.249  17.236  0.00  0.00    +0.000 A 
ATOM      6  C   UNL     1      48.248   4.305  18.163  0.00  0.00    +0.000 A 
ATOM      7  C   UNL     1      47.474   3.265  17.717  0.00  0.00    +0.000 A 
ATOM      8  N   UNL     1      47.086   3.130  16.441  0.00  0.00    +0.000 NA
ATOM      9  C   UNL     1      47.521   4.077  15.589  0.00  0.00    +0.000 A 
ATOM     10  N   UNL     1      48.310   5.126  15.938  0.00  0.00    +0.000 NA
ATOM     11  C   UNL     1      49.094   7.092  18.823  0.00  0.00    +0.000 C 
ATOM     12  C   UNL     1      48.719   8.537  18.432  0.00  0.00    +0.000 C 
ATOM     13  C   UNL     1      48.582   9.404  19.679  0.00  0.00    +0.000 C 
ATOM     14  O   UNL     1      49.721   9.143  17.598  0.00  0.00    +0.000 OA
ENDROOT
BRANCH   9  15
ATOM     15  C   UNL     1      47.146   3.911  14.125  0.00  0.00    +0.000 C 
BRANCH  15  16
ATOM     16  O   UNL     1      45.770   4.256  13.902  0.00  0.00    +0.000 OA
BRANCH  16  17
ATOM     17  C   UNL     1      45.535   5.426  13.234  0.00  0.00    +0.000 A 
ATOM     18  C   UNL     1      46.388   6.522  13.162  0.00  0.00    +0.000 A 
ATOM     19  C   UNL     1      46.006   7.658  12.442  0.00  0.00    +0.000 A 
ATOM     20  C   UNL     1      44.768   7.673  11.803  0.00  0.00    +0.000 A 
ATOM     21  N   UNL     1      43.916   6.617  11.852  0.00  0.00    +0.000 NA
ATOM     22  C   UNL     1      44.320   5.530  12.563  0.00  0.00    +0.000 A 
BRANCH  20  23
ATOM     23  C   UNL     1      44.321   8.898  11.024  0.00  0.00    +0.000 C 
ATOM     24  C   UNL     1      44.556  10.177  11.814  0.00  0.00    +0.000 C 
BRANCH  23  25
ATOM     25  O   UNL     1      42.925   8.812  10.726  0.00  0.00    +0.000 OA
ATOM     26  H   UNL     1      42.882   8.391   9.843  0.00  0.00    +0.000 HD
ENDBRANCH  23  25
ENDBRANCH  20  23
ENDBRANCH  16  17
ENDBRANCH  15  16
ENDBRANCH   9  15
TORSDOF 5
ENDMDL
