MODEL 1
REMARK VINA RESULT:    -7.462      0.000      0.000
REMARK INTER + INTRA:          -9.305
REMARK INTER:                  -8.989
REMARK INTRA:                  -0.315
REMARK UNBOUND:                -0.315
REMARK  Name = 
REMARK  4 active torsions:
REMARK  status: ('A' for Active; 'I' for Inactive)
REMARK    1  A    between atoms: N_1  and  C_2
REMARK    2  A    between atoms: C_2  and  C_3
REMARK    3  A    between atoms: C_7  and  C_8
REMARK    4  A    between atoms: C_8  and  N_9
REMARK                            x       y       z     vdW  Elec       q    Type
REMARK                         _______ _______ _______ _____ _____    ______ ____
ROOT
ATOM      1  C   UNL     1      46.674   2.495   6.759  0.00  0.00    +0.000 A 
ATOM      2  C   UNL     1      46.794   1.237   7.340  0.00  0.00    +0.000 A 
ATOM      3  N   UNL     1      46.104   0.872   8.444  0.00  0.00    +0.000 NA
ATOM      4  C   UNL     1      45.258   1.807   8.937  0.00  0.00    +0.000 A 
ATOM      5  C   UNL     1      45.111   3.071   8.372  0.00  0.00    +0.000 A 
ATOM      6  N   UNL     1      45.822   3.431   7.265  0.00  0.00    +0.000 NA
ENDROOT
BRANCH   1   7
ATOM      7  C   UNL     1      47.423   2.827   5.493  0.00  0.00    +0.000 C 
BRANCH   7   8
ATOM      8  N   UNL     1      48.492   1.863   5.222  0.00  0.00    +0.000 NA
ATOM      9  H   UNL     1      48.095   1.045   4.763  0.00  0.00    +0.000 HD
ATOM     10  H   UNL     1      48.848   1.537   6.122  0.00  0.00    +0.000 HD
ENDBRANCH   7   8
ENDBRANCH   1   7
BRANCH   5  11
ATOM     11  C   UNL     1      44.086   4.043   8.886  0.00  0.00    +0.000 C 
BRANCH  11  12
ATOM     12  N   UNL     1      44.135   4.193  10.332  0.00  0.00    +0.000 N 
ATOM     13  N   UNL     1      43.254   3.498  11.093  0.00  0.00    +0.000 NA
ATOM     14  C   UNL     1      43.559   3.868  12.338  0.00  0.00    +0.000 A 
ATOM     15  C   UNL     1      44.608   4.811  12.390  0.00  0.00    +0.000 A 
ATOM     16  C   UNL     1      45.294   5.499  13.405  0.00  0.00    +0.000 A 
ATOM     17  C   UNL     1      46.312   6.391  13.050  0.00  0.00    +0.000 A 
ATOM     18  C   UNL     1      46.635   6.603  11.710  0.00  0.00    +0.000 A 
ATOM     19  C   UNL     1      45.964   5.926  10.685  0.00  0.00    +0.000 A 
ATOM     20  C   UNL     1      44.957   5.024  11.058  0.00  0.00    +0.000 A 
ENDBRANCH  11  12
ENDBRANCH   5  11
TORSDOF 4
ENDMDL
MODEL 2
REMARK VINA RESULT:    -7.125      1.983      5.765
REMARK INTER + INTRA:          -8.898
REMARK INTER:                  -8.504
REMARK INTRA:                  -0.394
REMARK UNBOUND:                -0.315
REMARK  Name = 
REMARK  4 active torsions:
REMARK  status: ('A' for Active; 'I' for Inactive)
REMARK    1  A    between atoms: N_1  and  C_2
REMARK    2  A    between atoms: C_2  and  C_3
REMARK    3  A    between atoms: C_7  and  C_8
REMARK    4  A    between atoms: C_8  and  N_9
REMARK                            x       y       z     vdW  Elec       q    Type
REMARK                         _______ _______ _______ _____ _____    ______ ____
ROOT
ATOM      1  C   UNL     1      45.221   4.872  12.724  0.00  0.00    +0.000 A 
ATOM      2  C   UNL     1      43.996   5.047  13.358  0.00  0.00    +0.000 A 
ATOM      3  N   UNL     1      42.827   5.128  12.682  0.00  0.00    +0.000 NA
ATOM      4  C   UNL     1      42.924   4.999  11.337  0.00  0.00    +0.000 A 
ATOM      5  C   UNL     1      44.135   4.814  10.677  0.00  0.00    +0.000 A 
ATOM      6  N   UNL     1      45.307   4.746  11.370  0.00  0.00    +0.000 NA
ENDROOT
BRANCH   1   7
ATOM      7  C   UNL     1      46.486   4.727  13.533  0.00  0.00    +0.000 C 
BRANCH   7   8
ATOM      8  N   UNL     1      46.857   3.322  13.719  0.00  0.00    +0.000 NA
ATOM      9  H   UNL     1      46.177   2.732  13.243  0.00  0.00    +0.000 HD
ATOM     10  H   UNL     1      46.769   3.108  14.714  0.00  0.00    +0.000 HD
ENDBRANCH   7   8
ENDBRANCH   1   7
BRANCH   5  11
ATOM     11  C   UNL     1      44.189   4.570   9.194  0.00  0.00    +0.000 C 
BRANCH  11  12
ATOM     12  N   UNL     1      44.740   3.264   8.865  0.00  0.00    +0.000 N 
ATOM     13  N   UNL     1      44.178   2.159   9.411  0.00  0.00    +0.000 NA
ATOM     14  C   UNL     1      44.916   1.160   8.922  0.00  0.00    +0.000 A 
ATOM     15  C   UNL     1      45.961   1.607   8.086  0.00  0.00    +0.000 A 
ATOM     16  C   UNL     1      46.987   0.999   7.343  0.00  0.00    +0.000 A 
ATOM     17  C   UNL     1      47.867   1.807   6.616  0.00  0.00    +0.000 A 
ATOM     18  C   UNL     1      47.737   3.196   6.635  0.00  0.00    +0.000 A 
ATOM     19  C   UNL     1      46.722   3.820   7.369  0.00  0.00    +0.000 A 
ATOM     20  C   UNL     1      45.838   2.995   8.081  0.00  0.00    +0.000 A 
ENDBRANCH  11  12
ENDBRANCH   5  11
TORSDOF 4
ENDMDL
MODEL 3
REMARK VINA RESULT:    -7.013      1.571      2.310
REMARK INTER + INTRA:          -8.763
REMARK INTER:                  -8.508
REMARK INTRA:                  -0.255
REMARK UNBOUND:                -0.315
REMARK  Name = 
REMARK  4 active torsions:
REMARK  status: ('A' for Active; 'I' for Inactive)
REMARK    1  A    between atoms: N_1  and  C_2
REMARK    2  A    between atoms: C_2  and  C_3
REMARK    3  A    between atoms: C_7  and  C_8
REMARK    4  A    between atoms: C_8  and  N_9
REMARK                            x       y       z     vdW  Elec       q    Type
REMARK                         _______ _______ _______ _____ _____    ______ ____
ROOT
ATOM      1  C   UNL     1      46.058   2.077   8.098  0.00  0.00    +0.000 A 
ATOM      2  C   UNL     1      46.068   3.195   7.271  0.00  0.00    +0.000 A 
ATOM      3  N   UNL     1      45.488   4.366   7.617  0.00  0.00    +0.000 NA
ATOM      4  C   UNL     1      44.915   4.391   8.844  0.00  0.00    +0.000 A 
ATOM      5  C   UNL     1      44.897   3.291   9.696  0.00  0.00    +0.000 A 
ATOM      6  N   UNL     1      45.476   2.111   9.330  0.00  0.00    +0.000 NA
ENDROOT
BRANCH   1   7
ATOM      7  C   UNL     1      46.774   0.815   7.686  0.00  0.00    +0.000 C 
BRANCH   7   8
ATOM      8  N   UNL     1      47.901   1.093   6.793  0.00  0.00    +0.000 NA
ATOM      9  H   UNL     1      48.724   0.597   7.130  0.00  0.00    +0.000 HD
ATOM     10  H   UNL     1      48.119   2.087   6.871  0.00  0.00    +0.000 HD
ENDBRANCH   7   8
ENDBRANCH   1   7
BRANCH   5  11
ATOM     11  C   UNL     1      44.345   3.390  11.091  0.00  0.00    +0.000 C 
BRANCH  11  12
ATOM     12  N   UNL     1      45.326   3.883  12.045  0.00  0.00    +0.000 N 
ATOM     13  N   UNL     1      45.916   3.004  12.892  0.00  0.00    +0.000 NA
ATOM     14  C   UNL     1      46.730   3.772  13.620  0.00  0.00    +0.000 A 
ATOM     15  C   UNL     1      46.655   5.137  13.272  0.00  0.00    +0.000 A 
ATOM     16  C   UNL     1      47.275   6.322  13.703  0.00  0.00    +0.000 A 
ATOM     17  C   UNL     1      46.921   7.531  13.095  0.00  0.00    +0.000 A 
ATOM     18  C   UNL     1      45.962   7.565  12.083  0.00  0.00    +0.000 A 
ATOM     19  C   UNL     1      45.335   6.395  11.639  0.00  0.00    +0.000 A 
ATOM     20  C   UNL     1      45.711   5.189  12.248  0.00  0.00    +0.000 A 
ENDBRANCH  11  12
ENDBRANCH   5  11
TORSDOF 4
ENDMDL
MODEL 4
REMARK VINA RESULT:    -6.880      2.003      6.177
REMARK INTER + INTRA:          -8.603
REMARK INTER:                  -8.260
REMARK INTRA:                  -0.342
REMARK UNBOUND:                -0.315
REMARK  Name = 
REMARK  4 active torsions:
REMARK  status: ('A' for Active; 'I' for Inactive)
REMARK    1  A    between atoms: N_1  and  C_2
REMARK    2  A    between atoms: C_2  and  C_3
REMARK    3  A    between atoms: C_7  and  C_8
REMARK    4  A    between atoms: C_8  and  N_9
REMARK                            x       y       z     vdW  Elec       q    Type
REMARK                         _______ _______ _______ _____ _____    ______ ____
ROOT
ATOM      1  C   UNL     1      45.518   6.228  12.638  0.00  0.00    +0.000 A 
ATOM      2  C   UNL     1      45.899   5.264  13.566  0.00  0.00    +0.000 A 
ATOM      3  N   UNL     1      45.713   3.940  13.363  0.00  0.00    +0.000 NA
ATOM      4  C   UNL     1      45.152   3.607  12.177  0.00  0.00    +0.000 A 
ATOM      5  C   UNL     1      44.768   4.549  11.227  0.00  0.00    +0.000 A 
ATOM      6  N   UNL     1      44.950   5.882  11.449  0.00  0.00    +0.000 NA
ENDROOT
BRANCH   1   7
ATOM      7  C   UNL     1      45.805   7.687  12.891  0.00  0.00    +0.000 C 
BRANCH   7   8
ATOM      8  N   UNL     1      46.877   7.871  13.872  0.00  0.00    +0.000 NA
ATOM      9  H   UNL     1      46.833   8.820  14.239  0.00  0.00    +0.000 HD
ATOM     10  H   UNL     1      47.766   7.802  13.374  0.00  0.00    +0.000 HD
ENDBRANCH   7   8
ENDBRANCH   1   7
BRANCH   5  11
ATOM     11  C   UNL     1      44.245   4.134   9.880  0.00  0.00    +0.000 C 
BRANCH  11  12
ATOM     12  N   UNL     1      45.308   3.946   8.904  0.00  0.00    +0.000 N 
ATOM     13  N   UNL     1      45.888   5.038   8.349  0.00  0.00    +0.000 NA
ATOM     14  C   UNL     1      46.788   4.520   7.510  0.00  0.00    +0.000 A 
ATOM     15  C   UNL     1      46.780   3.109   7.498  0.00  0.00    +0.000 A 
ATOM     16  C   UNL     1      47.496   2.104   6.827  0.00  0.00    +0.000 A 
ATOM     17  C   UNL     1      47.185   0.764   7.084  0.00  0.00    +0.000 A 
ATOM     18  C   UNL     1      46.175   0.430   7.985  0.00  0.00    +0.000 A 
ATOM     19  C   UNL     1      45.451   1.417   8.664  0.00  0.00    +0.000 A 
ATOM     20  C   UNL     1      45.784   2.755   8.406  0.00  0.00    +0.000 A 
ENDBRANCH  11  12
ENDBRANCH   5  11
TORSDOF 4
ENDMDL
MODEL 5
REMARK VINA RESULT:    -6.798      2.248      5.696
REMARK INTER + INTRA:          -8.504
REMARK INTER:                  -8.168
REMARK INTRA:                  -0.336
REMARK UNBOUND:                -0.315
REMARK  Name = 
REMARK  4 active torsions:
REMARK  status: ('A' for Active; 'I' for Inactive)
REMARK    1  A    between atoms: N_1  and  C_2
REMARK    2  A    between atoms: C_2  and  C_3
REMARK    3  A    between atoms: C_7  and  C_8
REMARK    4  A    between atoms: C_8  and  N_9
REMARK                            x       y       z     vdW  Elec       q    Type
REMARK                         _______ _______ _______ _____ _____    ______ ____
ROOT
ATOM      1  C   UNL     1      46.384   5.664  13.068  0.00  0.00    +0.000 A 
ATOM      2  C   UNL     1      46.495   7.051  13.074  0.00  0.00    +0.000 A 
ATOM      3  N   UNL     1      45.782   7.845  12.243  0.00  0.00    +0.000 NA
ATOM      4  C   UNL     1      44.925   7.201  11.415  0.00  0.00    +0.000 A 
ATOM      5  C   UNL     1      44.788   5.816  11.393  0.00  0.00    +0.000 A 
ATOM      6  N   UNL     1      45.521   5.025  12.229  0.00  0.00    +0.000 NA
ENDROOT
BRANCH   1   7
ATOM      7  C   UNL     1      47.159   4.832  14.059  0.00  0.00    +0.000 C 
BRANCH   7   8
ATOM      8  N   UNL     1      47.080   3.403  13.751  0.00  0.00    +0.000 NA
ATOM      9  H   UNL     1      47.788   2.907  14.290  0.00  0.00    +0.000 HD
ATOM     10  H   UNL     1      47.338   3.283  12.770  0.00  0.00    +0.000 HD
ENDBRANCH   7   8
ENDBRANCH   1   7
BRANCH   5  11
ATOM     11  C   UNL     1      43.751   5.146  10.536  0.00  0.00    +0.000 C 
BRANCH  11  12
ATOM     12  N   UNL     1      44.201   3.864  10.015  0.00  0.00    +0.000 N 
ATOM     13  N   UNL     1      43.706   2.726  10.557  0.00  0.00    +0.000 NA
ATOM     14  C   UNL     1      44.323   1.760   9.873  0.00  0.00    +0.000 A 
ATOM     15  C   UNL     1      45.229   2.260   8.913  0.00  0.00    +0.000 A 
ATOM     16  C   UNL     1      46.098   1.700   7.962  0.00  0.00    +0.000 A 
ATOM     17  C   UNL     1      46.869   2.554   7.164  0.00  0.00    +0.000 A 
ATOM     18  C   UNL     1      46.784   3.937   7.316  0.00  0.00    +0.000 A 
ATOM     19  C   UNL     1      45.923   4.514   8.257  0.00  0.00    +0.000 A 
ATOM     20  C   UNL     1      45.146   3.645   9.039  0.00  0.00    +0.000 A 
ENDBRANCH  11  12
ENDBRANCH   5  11
TORSDOF 4
ENDMDL
MODEL 6
REMARK VINA RESULT:    -6.780      1.539      2.108
REMARK INTER + INTRA:          -8.482
REMARK INTER:                  -8.339
REMARK INTRA:                  -0.144
REMARK UNBOUND:                -0.315
REMARK  Name = 
REMARK  4 active torsions:
REMARK  status: ('A' for Active; 'I' for Inactive)
REMARK    1  A    between atoms: N_1  and  C_2
REMARK    2  A    between atoms: C_2  and  C_3
REMARK    3  A    between atoms: C_7  and  C_8
REMARK    4  A    between atoms: C_8  and  N_9
REMARK                            x       y       z     vdW  Elec       q    Type
REMARK                         _______ _______ _______ _____ _____    ______ ____
ROOT
ATOM      1  C   UNL     1      46.493   2.027   7.637  0.00  0.00    +0.000 A 
ATOM      2  C   UNL     1      46.790   3.233   7.010  0.00  0.00    +0.000 A 
ATOM      3  N   UNL     1      46.272   4.414   7.416  0.00  0.00    +0.000 NA
ATOM      4  C   UNL     1      45.461   4.353   8.499  0.00  0.00    +0.000 A 
ATOM      5  C   UNL     1      45.153   3.162   9.150  0.00  0.00    +0.000 A 
ATOM      6  N   UNL     1      45.673   1.976   8.724  0.00  0.00    +0.000 NA
ENDROOT
BRANCH   1   7
ATOM      7  C   UNL     1      47.148   0.747   7.179  0.00  0.00    +0.000 C 
BRANCH   7   8
ATOM      8  N   UNL     1      46.669  -0.411   7.936  0.00  0.00    +0.000 NA
ATOM      9  H   UNL     1      45.813  -0.759   7.508  0.00  0.00    +0.000 HD
ATOM     10  H   UNL     1      46.406  -0.085   8.867  0.00  0.00    +0.000 HD
ENDBRANCH   7   8
ENDBRANCH   1   7
BRANCH   5  11
ATOM     11  C   UNL     1      44.334   3.149  10.411  0.00  0.00    +0.000 C 
BRANCH  11  12
ATOM     12  N   UNL     1      44.123   4.483  10.952  0.00  0.00    +0.000 N 
ATOM     13  N   UNL     1      42.944   5.107  10.718  0.00  0.00    +0.000 NA
ATOM     14  C   UNL     1      43.087   6.285  11.329  0.00  0.00    +0.000 A 
ATOM     15  C   UNL     1      44.352   6.439  11.934  0.00  0.00    +0.000 A 
ATOM     16  C   UNL     1      44.997   7.442  12.679  0.00  0.00    +0.000 A 
ATOM     17  C   UNL     1      46.307   7.222  13.119  0.00  0.00    +0.000 A 
ATOM     18  C   UNL     1      46.967   6.031  12.817  0.00  0.00    +0.000 A 
ATOM     19  C   UNL     1      46.342   5.020  12.078  0.00  0.00    +0.000 A 
ATOM     20  C   UNL     1      45.024   5.250  11.656  0.00  0.00    +0.000 A 
ENDBRANCH  11  12
ENDBRANCH   5  11
TORSDOF 4
ENDMDL
MODEL 7
REMARK VINA RESULT:    -5.962      2.667      4.963
REMARK INTER + INTRA:          -7.497
REMARK INTER:                  -7.176
REMARK INTRA:                  -0.320
REMARK UNBOUND:                -0.315
REMARK  Name = 
REMARK  4 active torsions:
REMARK  status: ('A' for Active; 'I' for Inactive)
REMARK    1  A    between atoms: N_1  and  C_2
REMARK    2  A    between atoms: C_2  and  C_3
REMARK    3  A    between atoms: C_7  and  C_8
REMARK    4  A    between atoms: C_8  and  N_9
REMARK                            x       y       z     vdW  Elec       q    Type
REMARK                         _______ _______ _______ _____ _____    ______ ____
ROOT
ATOM      1  C   UNL     1      44.602   4.380  10.542  0.00  0.00    +0.000 A 
ATOM      2  C   UNL     1      43.259   4.413  10.902  0.00  0.00    +0.000 A 
ATOM      3  N   UNL     1      42.847   4.651  12.167  0.00  0.00    +0.000 NA
ATOM      4  C   UNL     1      43.832   4.886  13.066  0.00  0.00    +0.000 A 
ATOM      5  C   UNL     1      45.184   4.868  12.733  0.00  0.00    +0.000 A 
ATOM      6  N   UNL     1      45.587   4.614  11.455  0.00  0.00    +0.000 NA
ENDROOT
BRANCH   1   7
ATOM      7  C   UNL     1      45.003   4.169   9.103  0.00  0.00    +0.000 C 
BRANCH   7   8
ATOM      8  N   UNL     1      45.815   5.277   8.595  0.00  0.00    +0.000 NA
ATOM      9  H   UNL     1      45.234   6.109   8.521  0.00  0.00    +0.000 HD
ATOM     10  H   UNL     1      46.095   5.042   7.642  0.00  0.00    +0.000 HD
ENDBRANCH   7   8
ENDBRANCH   1   7
BRANCH   5  11
ATOM     11  C   UNL     1      46.242   5.237  13.735  0.00  0.00    +0.000 C 
BRANCH  11  12
ATOM     12  N   UNL     1      47.160   6.245  13.230  0.00  0.00    +0.000 N 
ATOM     13  N   UNL     1      48.479   5.946  13.141  0.00  0.00    +0.000 NA
ATOM     14  C   UNL     1      49.022   7.068  12.665  0.00  0.00    +0.000 A 
ATOM     15  C   UNL     1      48.076   8.096  12.468  0.00  0.00    +0.000 A 
ATOM     16  C   UNL     1      48.111   9.422  12.003  0.00  0.00    +0.000 A 
ATOM     17  C   UNL     1      46.920  10.155  11.957  0.00  0.00    +0.000 A 
ATOM     18  C   UNL     1      45.718   9.585  12.374  0.00  0.00    +0.000 A 
ATOM     19  C   UNL     1      45.662   8.266  12.840  0.00  0.00    +0.000 A 
ATOM     20  C   UNL     1      46.862   7.539  12.866  0.00  0.00    +0.000 A 
ENDBRANCH  11  12
ENDBRANCH   5  11
TORSDOF 4
ENDMDL
MODEL 8
REMARK VINA RESULT:    -5.628      6.139      8.329
REMARK INTER + INTRA:          -7.095
REMARK INTER:                  -6.717
REMARK INTRA:                  -0.378
REMARK UNBOUND:                -0.315
REMARK  Name = 
REMARK  4 active torsions:
REMARK  status: ('A' for Active; 'I' for Inactive)
REMARK    1  A    between atoms: N_1  and  C_2
REMARK    2  A    between atoms: C_2  and  C_3
REMARK    3  A    between atoms: C_7  and  C_8
REMARK    4  A    between atoms: C_8  and  N_9
REMARK                            x       y       z     vdW  Elec       q    Type
REMARK                         _______ _______ _______ _____ _____    ______ ____
ROOT
ATOM      1  C   UNL     1      46.327   4.746  13.738  0.00  0.00    +0.000 A 
ATOM      2  C   UNL     1      47.188   5.799  13.447  0.00  0.00    +0.000 A 
ATOM      3  N   UNL     1      48.165   6.200  14.291  0.00  0.00    +0.000 NA
ATOM      4  C   UNL     1      48.273   5.486  15.437  0.00  0.00    +0.000 A 
ATOM      5  C   UNL     1      47.432   4.423  15.751  0.00  0.00    +0.000 A 
ATOM      6  N   UNL     1      46.442   4.036  14.896  0.00  0.00    +0.000 NA
ENDROOT
BRANCH   1   7
ATOM      7  C   UNL     1      45.293   4.304  12.733  0.00  0.00    +0.000 C 
BRANCH   7   8
ATOM      8  N   UNL     1      45.335   2.857  12.508  0.00  0.00    +0.000 NA
ATOM      9  H   UNL     1      46.158   2.472  12.968  0.00  0.00    +0.000 HD
ATOM     10  H   UNL     1      45.474   2.704  11.508  0.00  0.00    +0.000 HD
ENDBRANCH   7   8
ENDBRANCH   1   7
BRANCH   5  11
ATOM     11  C   UNL     1      47.651   3.589  16.983  0.00  0.00    +0.000 C 
BRANCH  11  12
ATOM     12  N   UNL     1      48.990   3.025  17.043  0.00  0.00    +0.000 N 
ATOM     13  N   UNL     1      49.261   1.902  16.336  0.00  0.00    +0.000 NA
ATOM     14  C   UNL     1      50.542   1.655  16.620  0.00  0.00    +0.000 A 
ATOM     15  C   UNL     1      51.095   2.591  17.520  0.00  0.00    +0.000 A 
ATOM     16  C   UNL     1      52.349   2.790  18.122  0.00  0.00    +0.000 A 
ATOM     17  C   UNL     1      52.516   3.868  18.997  0.00  0.00    +0.000 A 
ATOM     18  C   UNL     1      51.455   4.728  19.278  0.00  0.00    +0.000 A 
ATOM     19  C   UNL     1      50.198   4.547  18.687  0.00  0.00    +0.000 A 
ATOM     20  C   UNL     1      50.050   3.470  17.800  0.00  0.00    +0.000 A 
ENDBRANCH  11  12
ENDBRANCH   5  11
TORSDOF 4
ENDMDL
MODEL 9
REMARK VINA RESULT:    -5.588      3.168      5.381
REMARK INTER + INTRA:          -7.047
REMARK INTER:                  -6.684
REMARK INTRA:                  -0.363
REMARK UNBOUND:                -0.315
REMARK  Name = 
REMARK  4 active torsions:
REMARK  status: ('A' for Active; 'I' for Inactive)
REMARK    1  A    between atoms: N_1  and  C_2
REMARK    2  A    between atoms: C_2  and  C_3
REMARK    3  A    between atoms: C_7  and  C_8
REMARK    4  A    between atoms: C_8  and  N_9
REMARK                            x       y       z     vdW  Elec       q    Type
REMARK                         _______ _______ _______ _____ _____    ______ ____
ROOT
ATOM      1  C   UNL     1      44.264   4.400  10.559  0.00  0.00    +0.000 A 
ATOM      2  C   UNL     1      43.266   5.155  11.167  0.00  0.00    +0.000 A 
ATOM      3  N   UNL     1      43.225   5.374  12.501  0.00  0.00    +0.000 NA
ATOM      4  C   UNL     1      44.243   4.832  13.211  0.00  0.00    +0.000 A 
ATOM      5  C   UNL     1      45.259   4.080  12.629  0.00  0.00    +0.000 A 
ATOM      6  N   UNL     1      45.281   3.855  11.284  0.00  0.00    +0.000 NA
ENDROOT
BRANCH   1   7
ATOM      7  C   UNL     1      44.293   4.238   9.060  0.00  0.00    +0.000 C 
BRANCH   7   8
ATOM      8  N   UNL     1      45.458   4.893   8.463  0.00  0.00    +0.000 NA
ATOM      9  H   UNL     1      45.356   5.902   8.552  0.00  0.00    +0.000 HD
ATOM     10  H   UNL     1      45.444   4.696   7.461  0.00  0.00    +0.000 HD
ENDBRANCH   7   8
ENDBRANCH   1   7
BRANCH   5  11
ATOM     11  C   UNL     1      46.426   3.584  13.436  0.00  0.00    +0.000 C 
BRANCH  11  12
ATOM     12  N   UNL     1      47.179   4.667  14.050  0.00  0.00    +0.000 N 
ATOM     13  N   UNL     1      47.706   5.631  13.256  0.00  0.00    +0.000 NA
ATOM     14  C   UNL     1      48.327   6.439  14.118  0.00  0.00    +0.000 A 
ATOM     15  C   UNL     1      48.229   5.996  15.454  0.00  0.00    +0.000 A 
ATOM     16  C   UNL     1      48.681   6.456  16.703  0.00  0.00    +0.000 A 
ATOM     17  C   UNL     1      48.377   5.712  17.849  0.00  0.00    +0.000 A 
ATOM     18  C   UNL     1      47.648   4.528  17.754  0.00  0.00    +0.000 A 
ATOM     19  C   UNL     1      47.188   4.054  16.520  0.00  0.00    +0.000 A 
ATOM     20  C   UNL     1      47.488   4.819  15.382  0.00  0.00    +0.000 A 
ENDBRANCH  11  12
ENDBRANCH   5  11
TORSDOF 4
ENDMDL
