MODEL 1
REMARK VINA RESULT:    -8.843      0.000      0.000
REMARK INTER + INTRA:         -12.156
REMARK INTER:                 -11.427
REMARK INTRA:                  -0.728
REMARK UNBOUND:                -0.728
REMARK  Name = 
REMARK  7 active torsions:
REMARK  status: ('A' for Active; 'I' for Inactive)
REMARK    1  A    between atoms: C_1  and  C_2
REMARK    2  A    between atoms: C_7  and  N_8
REMARK    3  A    between atoms: N_8  and  C_9
REMARK    4  A    between atoms: C_9  and  C_10
REMARK    5  A    between atoms: C_10  and  C_11
REMARK    6  A    between atoms: C_10  and  C_12
REMARK    7  A    between atoms: C_16  and  C_17
REMARK                            x       y       z     vdW  Elec       q    Type
REMARK                         _______ _______ _______ _____ _____    ______ ____
ROOT
ATOM      1  C   UNL     1      45.314   5.160  13.333  0.00  0.00    +0.000 C 
ATOM      2  C   UNL     1      45.232   6.599  12.810  0.00  0.00    +0.000 C 
ENDROOT
BRANCH   1   3
ATOM      3  C   UNL     1      44.775   4.193  12.289  0.00  0.00    +0.000 A 
ATOM      4  C   UNL     1      43.629   3.434  12.509  0.00  0.00    +0.000 A 
ATOM      5  N   UNL     1      43.119   2.557  11.623  0.00  0.00    +0.000 NA
ATOM      6  C   UNL     1      43.795   2.408  10.459  0.00  0.00    +0.000 A 
ATOM      7  C   UNL     1      44.954   3.102  10.101  0.00  0.00    +0.000 A 
ATOM      8  C   UNL     1      45.423   4.024  11.055  0.00  0.00    +0.000 A 
BRANCH   7   9
ATOM      9  C   UNL     1      45.657   2.851   8.821  0.00  0.00    +0.000 A 
ATOM     10  C   UNL     1      46.065   1.555   8.443  0.00  0.00    +0.000 A 
ATOM     11  C   UNL     1      46.781   1.330   7.262  0.00  0.00    +0.000 A 
ATOM     12  C   UNL     1      47.084   2.398   6.431  0.00  0.00    +0.000 A 
ATOM     13  F   UNL     1      47.775   2.186   5.303  0.00  0.00    +0.000 F 
ATOM     14  C   UNL     1      46.682   3.683   6.757  0.00  0.00    +0.000 A 
ATOM     15  C   UNL     1      45.979   3.907   7.945  0.00  0.00    +0.000 A 
ENDBRANCH   7   9
ENDBRANCH   1   3
BRANCH   1  16
ATOM     16  C   UNL     1      46.747   4.759  13.735  0.00  0.00    +0.000 C 
BRANCH  16  17
ATOM     17  N   UNL     1      46.797   3.607  14.611  0.00  0.00    +0.000 N 
ATOM     18  H   UNL     1      46.260   2.768  14.435  0.00  0.00    +0.000 HD
BRANCH  17  25
ATOM     19  C   UNL     1      50.448   1.819  17.058  0.00  0.00    +0.000 C 
ATOM     20  C   UNL     1      49.262   2.737  17.034  0.00  0.00    +0.000 A 
ATOM     21  C   UNL     1      48.943   3.497  18.143  0.00  0.00    +0.000 A 
ATOM     22  C   UNL     1      47.843   4.324  18.051  0.00  0.00    +0.000 A 
ATOM     23  F   UNL     1      47.496   5.083  19.099  0.00  0.00    +0.000 F 
ATOM     24  C   UNL     1      47.096   4.389  16.889  0.00  0.00    +0.000 A 
ATOM     25  C   UNL     1      47.467   3.601  15.813  0.00  0.00    +0.000 A 
ATOM     26  N   UNL     1      48.536   2.781  15.883  0.00  0.00    +0.000 NA
ENDBRANCH  17  25
ENDBRANCH  16  17
ENDBRANCH   1  16
TORSDOF 5
ENDMDL
MODEL 2
REMARK VINA RESULT:    -8.085      3.573      3.906
REMARK INTER + INTRA:         -11.177
REMARK INTER:                 -10.320
REMARK INTRA:                  -0.857
REMARK UNBOUND:                -0.728
REMARK  Name = 
REMARK  7 active torsions:
REMARK  status: ('A' for Active; 'I' for Inactive)
REMARK    1  A    between atoms: C_1  and  C_2
REMARK    2  A    between atoms: C_7  and  N_8
REMARK    3  A    between atoms: N_8  and  C_9
REMARK    4  A    between atoms: C_9  and  C_10
REMARK    5  A    between atoms: C_10  and  C_11
REMARK    6  A    between atoms: C_10  and  C_12
REMARK    7  A    between atoms: C_16  and  C_17
REMARK                            x       y       z     vdW  Elec       q    Type
REMARK                         _______ _______ _______ _____ _____    ______ ____
ROOT
ATOM      1  C   UNL     1      44.570   6.127  12.370  0.00  0.00    +0.000 C 
ATOM      2  C   UNL     1      44.602   7.303  11.387  0.00  0.00    +0.000 C 
ENDROOT
BRANCH   1   3
ATOM      3  C   UNL     1      44.337   4.825  11.618  0.00  0.00    +0.000 A 
ATOM      4  C   UNL     1      43.411   3.880  12.049  0.00  0.00    +0.000 A 
ATOM      5  N   UNL     1      43.177   2.708  11.427  0.00  0.00    +0.000 NA
ATOM      6  C   UNL     1      43.919   2.448  10.325  0.00  0.00    +0.000 A 
ATOM      7  C   UNL     1      44.881   3.301   9.777  0.00  0.00    +0.000 A 
ATOM      8  C   UNL     1      45.061   4.521  10.454  0.00  0.00    +0.000 A 
BRANCH   7   9
ATOM      9  C   UNL     1      45.681   2.923   8.588  0.00  0.00    +0.000 A 
ATOM     10  C   UNL     1      46.138   1.603   8.392  0.00  0.00    +0.000 A 
ATOM     11  C   UNL     1      46.942   1.263   7.299  0.00  0.00    +0.000 A 
ATOM     12  C   UNL     1      47.287   2.236   6.373  0.00  0.00    +0.000 A 
ATOM     13  F   UNL     1      48.062   1.915   5.330  0.00  0.00    +0.000 F 
ATOM     14  C   UNL     1      46.840   3.540   6.519  0.00  0.00    +0.000 A 
ATOM     15  C   UNL     1      46.047   3.880   7.621  0.00  0.00    +0.000 A 
ENDBRANCH   7   9
ENDBRANCH   1   3
BRANCH   1  16
ATOM     16  C   UNL     1      45.856   6.029  13.214  0.00  0.00    +0.000 C 
BRANCH  16  17
ATOM     17  N   UNL     1      46.472   7.313  13.473  0.00  0.00    +0.000 N 
ATOM     18  H   UNL     1      45.933   8.135  13.714  0.00  0.00    +0.000 HD
BRANCH  17  25
ATOM     19  C   UNL     1      50.548   8.603  15.534  0.00  0.00    +0.000 C 
ATOM     20  C   UNL     1      49.832   8.187  14.283  0.00  0.00    +0.000 A 
ATOM     21  C   UNL     1      50.521   8.056  13.093  0.00  0.00    +0.000 A 
ATOM     22  C   UNL     1      49.804   7.665  11.983  0.00  0.00    +0.000 A 
ATOM     23  F   UNL     1      50.429   7.522  10.806  0.00  0.00    +0.000 F 
ATOM     24  C   UNL     1      48.446   7.409  12.065  0.00  0.00    +0.000 A 
ATOM     25  C   UNL     1      47.813   7.559  13.287  0.00  0.00    +0.000 A 
ATOM     26  N   UNL     1      48.496   7.946  14.385  0.00  0.00    +0.000 NA
ENDBRANCH  17  25
ENDBRANCH  16  17
ENDBRANCH   1  16
TORSDOF 5
ENDMDL
MODEL 3
REMARK VINA RESULT:    -8.043      1.910      8.413
REMARK INTER + INTRA:         -11.122
REMARK INTER:                 -10.336
REMARK INTRA:                  -0.786
REMARK UNBOUND:                -0.728
REMARK  Name = 
REMARK  7 active torsions:
REMARK  status: ('A' for Active; 'I' for Inactive)
REMARK    1  A    between atoms: C_1  and  C_2
REMARK    2  A    between atoms: C_7  and  N_8
REMARK    3  A    between atoms: N_8  and  C_9
REMARK    4  A    between atoms: C_9  and  C_10
REMARK    5  A    between atoms: C_10  and  C_11
REMARK    6  A    between atoms: C_10  and  C_12
REMARK    7  A    between atoms: C_16  and  C_17
REMARK                            x       y       z     vdW  Elec       q    Type
REMARK                         _______ _______ _______ _____ _____    ______ ____
ROOT
ATOM      1  C   UNL     1      44.325   4.749  11.697  0.00  0.00    +0.000 C 
ATOM      2  C   UNL     1      43.117   4.962  12.617  0.00  0.00    +0.000 C 
ENDROOT
BRANCH   1   3
ATOM      3  C   UNL     1      45.578   5.325  12.340  0.00  0.00    +0.000 A 
ATOM      4  C   UNL     1      46.378   6.260  11.690  0.00  0.00    +0.000 A 
ATOM      5  N   UNL     1      47.501   6.789  12.210  0.00  0.00    +0.000 NA
ATOM      6  C   UNL     1      47.867   6.351  13.438  0.00  0.00    +0.000 A 
ATOM      7  C   UNL     1      47.163   5.420  14.207  0.00  0.00    +0.000 A 
ATOM      8  C   UNL     1      45.984   4.924  13.623  0.00  0.00    +0.000 A 
BRANCH   7   9
ATOM      9  C   UNL     1      47.653   4.962  15.529  0.00  0.00    +0.000 A 
ATOM     10  C   UNL     1      47.144   3.800  16.146  0.00  0.00    +0.000 A 
ATOM     11  C   UNL     1      47.568   3.404  17.419  0.00  0.00    +0.000 A 
ATOM     12  C   UNL     1      48.522   4.155  18.088  0.00  0.00    +0.000 A 
ATOM     13  F   UNL     1      48.923   3.781  19.309  0.00  0.00    +0.000 F 
ATOM     14  C   UNL     1      49.062   5.291  17.506  0.00  0.00    +0.000 A 
ATOM     15  C   UNL     1      48.627   5.693  16.239  0.00  0.00    +0.000 A 
ENDBRANCH   7   9
ENDBRANCH   1   3
BRANCH   1  16
ATOM     16  C   UNL     1      44.544   3.264  11.346  0.00  0.00    +0.000 C 
BRANCH  16  17
ATOM     17  N   UNL     1      44.149   2.930   9.993  0.00  0.00    +0.000 N 
ATOM     18  H   UNL     1      43.190   2.729   9.741  0.00  0.00    +0.000 HD
BRANCH  17  25
ATOM     19  C   UNL     1      46.787  -0.246   7.655  0.00  0.00    +0.000 C 
ATOM     20  C   UNL     1      46.352   1.181   7.803  0.00  0.00    +0.000 A 
ATOM     21  C   UNL     1      46.828   2.151   6.942  0.00  0.00    +0.000 A 
ATOM     22  C   UNL     1      46.383   3.442   7.131  0.00  0.00    +0.000 A 
ATOM     23  F   UNL     1      46.814   4.417   6.319  0.00  0.00    +0.000 F 
ATOM     24  C   UNL     1      45.488   3.747   8.141  0.00  0.00    +0.000 A 
ATOM     25  C   UNL     1      45.049   2.730   8.971  0.00  0.00    +0.000 A 
ATOM     26  N   UNL     1      45.476   1.460   8.808  0.00  0.00    +0.000 NA
ENDBRANCH  17  25
ENDBRANCH  16  17
ENDBRANCH   1  16
TORSDOF 5
ENDMDL
MODEL 4
REMARK VINA RESULT:    -7.940      1.909      2.345
REMARK INTER + INTRA:         -10.989
REMARK INTER:                 -10.434
REMARK INTRA:                  -0.554
REMARK UNBOUND:                -0.728
REMARK  Name = 
REMARK  7 active torsions:
REMARK  status: ('A' for Active; 'I' for Inactive)
REMARK    1  A    between atoms: C_1  and  C_2
REMARK    2  A    between atoms: C_7  and  N_8
REMARK    3  A    between atoms: N_8  and  C_9
REMARK    4  A    between atoms: C_9  and  C_10
REMARK    5  A    between atoms: C_10  and  C_11
REMARK    6  A    between atoms: C_10  and  C_12
REMARK    7  A    between atoms: C_16  and  C_17
REMARK                            x       y       z     vdW  Elec       q    Type
REMARK                         _______ _______ _______ _____ _____    ______ ____
ROOT
ATOM      1  C   UNL     1      45.544   7.367  12.530  0.00  0.00    +0.000 C 
ATOM      2  C   UNL     1      45.095   8.708  11.936  0.00  0.00    +0.000 C 
ENDROOT
BRANCH   1   3
ATOM      3  C   UNL     1      44.819   6.222  11.837  0.00  0.00    +0.000 A 
ATOM      4  C   UNL     1      43.543   5.818  12.219  0.00  0.00    +0.000 A 
ATOM      5  N   UNL     1      42.866   4.804  11.647  0.00  0.00    +0.000 NA
ATOM      6  C   UNL     1      43.498   4.137  10.652  0.00  0.00    +0.000 A 
ATOM      7  C   UNL     1      44.775   4.430  10.165  0.00  0.00    +0.000 A 
ATOM      8  C   UNL     1      45.421   5.516  10.782  0.00  0.00    +0.000 A 
BRANCH   7   9
ATOM      9  C   UNL     1      45.413   3.623   9.099  0.00  0.00    +0.000 A 
ATOM     10  C   UNL     1      45.424   2.213   9.143  0.00  0.00    +0.000 A 
ATOM     11  C   UNL     1      46.079   1.457   8.165  0.00  0.00    +0.000 A 
ATOM     12  C   UNL     1      46.719   2.100   7.116  0.00  0.00    +0.000 A 
ATOM     13  F   UNL     1      47.352   1.378   6.183  0.00  0.00    +0.000 F 
ATOM     14  C   UNL     1      46.713   3.483   7.026  0.00  0.00    +0.000 A 
ATOM     15  C   UNL     1      46.069   4.237   8.013  0.00  0.00    +0.000 A 
ENDBRANCH   7   9
ENDBRANCH   1   3
BRANCH   1  16
ATOM     16  C   UNL     1      47.068   7.162  12.439  0.00  0.00    +0.000 C 
BRANCH  16  17
ATOM     17  N   UNL     1      47.504   5.869  12.925  0.00  0.00    +0.000 N 
ATOM     18  H   UNL     1      47.577   5.059  12.322  0.00  0.00    +0.000 HD
BRANCH  17  25
ATOM     19  C   UNL     1      49.851   7.137  16.849  0.00  0.00    +0.000 C 
ATOM     20  C   UNL     1      48.868   6.209  16.201  0.00  0.00    +0.000 A 
ATOM     21  C   UNL     1      48.258   5.210  16.935  0.00  0.00    +0.000 A 
ATOM     22  C   UNL     1      47.361   4.395  16.279  0.00  0.00    +0.000 A 
ATOM     23  F   UNL     1      46.742   3.414  16.950  0.00  0.00    +0.000 F 
ATOM     24  C   UNL     1      47.081   4.579  14.936  0.00  0.00    +0.000 A 
ATOM     25  C   UNL     1      47.726   5.597  14.255  0.00  0.00    +0.000 A 
ATOM     26  N   UNL     1      48.612   6.403  14.877  0.00  0.00    +0.000 NA
ENDBRANCH  17  25
ENDBRANCH  16  17
ENDBRANCH   1  16
TORSDOF 5
ENDMDL
MODEL 5
REMARK VINA RESULT:    -7.750      3.138      4.040
REMARK INTER + INTRA:         -10.744
REMARK INTER:                 -10.124
REMARK INTRA:                  -0.620
REMARK UNBOUND:                -0.728
REMARK  Name = 
REMARK  7 active torsions:
REMARK  status: ('A' for Active; 'I' for Inactive)
REMARK    1  A    between atoms: C_1  and  C_2
REMARK    2  A    between atoms: C_7  and  N_8
REMARK    3  A    between atoms: N_8  and  C_9
REMARK    4  A    between atoms: C_9  and  C_10
REMARK    5  A    between atoms: C_10  and  C_11
REMARK    6  A    between atoms: C_10  and  C_12
REMARK    7  A    between atoms: C_16  and  C_17
REMARK                            x       y       z     vdW  Elec       q    Type
REMARK                         _______ _______ _______ _____ _____    ______ ____
ROOT
ATOM      1  C   UNL     1      45.059   5.155  13.101  0.00  0.00    +0.000 C 
ATOM      2  C   UNL     1      44.552   6.537  12.673  0.00  0.00    +0.000 C 
ENDROOT
BRANCH   1   3
ATOM      3  C   UNL     1      44.629   4.105  12.087  0.00  0.00    +0.000 A 
ATOM      4  C   UNL     1      43.564   3.241  12.325  0.00  0.00    +0.000 A 
ATOM      5  N   UNL     1      43.153   2.289  11.467  0.00  0.00    +0.000 NA
ATOM      6  C   UNL     1      43.853   2.169  10.313  0.00  0.00    +0.000 A 
ATOM      7  C   UNL     1      44.940   2.964   9.940  0.00  0.00    +0.000 A 
ATOM      8  C   UNL     1      45.304   3.959  10.865  0.00  0.00    +0.000 A 
BRANCH   7   9
ATOM      9  C   UNL     1      45.679   2.741   8.675  0.00  0.00    +0.000 A 
ATOM     10  C   UNL     1      46.183   1.471   8.325  0.00  0.00    +0.000 A 
ATOM     11  C   UNL     1      46.930   1.278   7.158  0.00  0.00    +0.000 A 
ATOM     12  C   UNL     1      47.170   2.350   6.312  0.00  0.00    +0.000 A 
ATOM     13  F   UNL     1      47.890   2.169   5.199  0.00  0.00    +0.000 F 
ATOM     14  C   UNL     1      46.673   3.609   6.611  0.00  0.00    +0.000 A 
ATOM     15  C   UNL     1      45.938   3.803   7.785  0.00  0.00    +0.000 A 
ENDBRANCH   7   9
ENDBRANCH   1   3
BRANCH   1  16
ATOM     16  C   UNL     1      46.588   5.118  13.287  0.00  0.00    +0.000 C 
BRANCH  16  17
ATOM     17  N   UNL     1      47.109   6.271  13.992  0.00  0.00    +0.000 N 
ATOM     18  H   UNL     1      46.948   6.421  14.980  0.00  0.00    +0.000 HD
BRANCH  17  25
ATOM     19  C   UNL     1      50.668   7.543  11.123  0.00  0.00    +0.000 C 
ATOM     20  C   UNL     1      49.489   7.964  11.948  0.00  0.00    +0.000 A 
ATOM     21  C   UNL     1      49.115   9.292  12.008  0.00  0.00    +0.000 A 
ATOM     22  C   UNL     1      48.018   9.610  12.781  0.00  0.00    +0.000 A 
ATOM     23  F   UNL     1      47.615  10.885  12.867  0.00  0.00    +0.000 F 
ATOM     24  C   UNL     1      47.320   8.630  13.463  0.00  0.00    +0.000 A 
ATOM     25  C   UNL     1      47.746   7.317  13.364  0.00  0.00    +0.000 A 
ATOM     26  N   UNL     1      48.820   6.985  12.617  0.00  0.00    +0.000 NA
ENDBRANCH  17  25
ENDBRANCH  16  17
ENDBRANCH   1  16
TORSDOF 5
ENDMDL
MODEL 6
REMARK VINA RESULT:    -7.715      3.432      7.630
REMARK INTER + INTRA:         -10.699
REMARK INTER:                  -9.974
REMARK INTRA:                  -0.725
REMARK UNBOUND:                -0.728
REMARK  Name = 
REMARK  7 active torsions:
REMARK  status: ('A' for Active; 'I' for Inactive)
REMARK    1  A    between atoms: C_1  and  C_2
REMARK    2  A    between atoms: C_7  and  N_8
REMARK    3  A    between atoms: N_8  and  C_9
REMARK    4  A    between atoms: C_9  and  C_10
REMARK    5  A    between atoms: C_10  and  C_11
REMARK    6  A    between atoms: C_10  and  C_12
REMARK    7  A    between atoms: C_16  and  C_17
REMARK                            x       y       z     vdW  Elec       q    Type
REMARK                         _______ _______ _______ _____ _____    ______ ____
ROOT
ATOM      1  C   UNL     1      44.095   4.824  11.291  0.00  0.00    +0.000 C 
ATOM      2  C   UNL     1      42.856   5.529  11.856  0.00  0.00    +0.000 C 
ENDROOT
BRANCH   1   3
ATOM      3  C   UNL     1      45.330   5.223  12.085  0.00  0.00    +0.000 A 
ATOM      4  C   UNL     1      45.714   4.548  13.240  0.00  0.00    +0.000 A 
ATOM      5  N   UNL     1      46.790   4.869  13.984  0.00  0.00    +0.000 NA
ATOM      6  C   UNL     1      47.515   5.937  13.573  0.00  0.00    +0.000 A 
ATOM      7  C   UNL     1      47.249   6.706  12.437  0.00  0.00    +0.000 A 
ATOM      8  C   UNL     1      46.130   6.305  11.685  0.00  0.00    +0.000 A 
BRANCH   7   9
ATOM      9  C   UNL     1      48.070   7.886  12.078  0.00  0.00    +0.000 A 
ATOM     10  C   UNL     1      49.433   7.764  11.735  0.00  0.00    +0.000 A 
ATOM     11  C   UNL     1      50.219   8.887  11.454  0.00  0.00    +0.000 A 
ATOM     12  C   UNL     1      49.649  10.150  11.494  0.00  0.00    +0.000 A 
ATOM     13  F   UNL     1      50.400  11.226  11.232  0.00  0.00    +0.000 F 
ATOM     14  C   UNL     1      48.307  10.310  11.806  0.00  0.00    +0.000 A 
ATOM     15  C   UNL     1      47.527   9.187  12.100  0.00  0.00    +0.000 A 
ENDBRANCH   7   9
ENDBRANCH   1   3
BRANCH   1  16
ATOM     16  C   UNL     1      43.946   3.290  11.277  0.00  0.00    +0.000 C 
BRANCH  16  17
ATOM     17  N   UNL     1      43.828   2.737   9.944  0.00  0.00    +0.000 N 
ATOM     18  H   UNL     1      42.986   2.279   9.619  0.00  0.00    +0.000 HD
BRANCH  17  25
ATOM     19  C   UNL     1      46.836  -0.123   7.644  0.00  0.00    +0.000 C 
ATOM     20  C   UNL     1      46.367   1.276   7.912  0.00  0.00    +0.000 A 
ATOM     21  C   UNL     1      46.962   2.348   7.276  0.00  0.00    +0.000 A 
ATOM     22  C   UNL     1      46.479   3.607   7.565  0.00  0.00    +0.000 A 
ATOM     23  F   UNL     1      47.022   4.678   6.970  0.00  0.00    +0.000 F 
ATOM     24  C   UNL     1      45.433   3.782   8.453  0.00  0.00    +0.000 A 
ATOM     25  C   UNL     1      44.880   2.666   9.059  0.00  0.00    +0.000 A 
ATOM     26  N   UNL     1      45.341   1.426   8.795  0.00  0.00    +0.000 NA
ENDBRANCH  17  25
ENDBRANCH  16  17
ENDBRANCH   1  16
TORSDOF 5
ENDMDL
MODEL 7
REMARK VINA RESULT:    -7.367      2.544      3.598
REMARK INTER + INTRA:         -10.249
REMARK INTER:                  -9.637
REMARK INTRA:                  -0.612
REMARK UNBOUND:                -0.728
REMARK  Name = 
REMARK  7 active torsions:
REMARK  status: ('A' for Active; 'I' for Inactive)
REMARK    1  A    between atoms: C_1  and  C_2
REMARK    2  A    between atoms: C_7  and  N_8
REMARK    3  A    between atoms: N_8  and  C_9
REMARK    4  A    between atoms: C_9  and  C_10
REMARK    5  A    between atoms: C_10  and  C_11
REMARK    6  A    between atoms: C_10  and  C_12
REMARK    7  A    between atoms: C_16  and  C_17
REMARK                            x       y       z     vdW  Elec       q    Type
REMARK                         _______ _______ _______ _____ _____    ______ ____
ROOT
ATOM      1  C   UNL     1      48.507   7.921  13.277  0.00  0.00    +0.000 C 
ATOM      2  C   UNL     1      49.595   7.201  12.472  0.00  0.00    +0.000 C 
ENDROOT
BRANCH   1   3
ATOM      3  C   UNL     1      47.158   7.758  12.592  0.00  0.00    +0.000 A 
ATOM      4  C   UNL     1      46.171   8.736  12.664  0.00  0.00    +0.000 A 
ATOM      5  N   UNL     1      44.959   8.635  12.087  0.00  0.00    +0.000 NA
ATOM      6  C   UNL     1      44.700   7.486  11.418  0.00  0.00    +0.000 A 
ATOM      7  C   UNL     1      45.592   6.422  11.262  0.00  0.00    +0.000 A 
ATOM      8  C   UNL     1      46.852   6.598  11.863  0.00  0.00    +0.000 A 
BRANCH   7   9
ATOM      9  C   UNL     1      45.216   5.180  10.547  0.00  0.00    +0.000 A 
ATOM     10  C   UNL     1      44.489   4.150  11.181  0.00  0.00    +0.000 A 
ATOM     11  C   UNL     1      44.187   2.955  10.520  0.00  0.00    +0.000 A 
ATOM     12  C   UNL     1      44.592   2.777   9.206  0.00  0.00    +0.000 A 
ATOM     13  F   UNL     1      44.310   1.632   8.574  0.00  0.00    +0.000 F 
ATOM     14  C   UNL     1      45.289   3.774   8.541  0.00  0.00    +0.000 A 
ATOM     15  C   UNL     1      45.602   4.963   9.209  0.00  0.00    +0.000 A 
ENDBRANCH   7   9
ENDBRANCH   1   3
BRANCH   1  16
ATOM     16  C   UNL     1      48.426   7.424  14.734  0.00  0.00    +0.000 C 
BRANCH  16  17
ATOM     17  N   UNL     1      47.768   6.141  14.867  0.00  0.00    +0.000 N 
ATOM     18  H   UNL     1      46.966   5.882  14.307  0.00  0.00    +0.000 HD
BRANCH  17  25
ATOM     19  C   UNL     1      51.080   4.660  17.926  0.00  0.00    +0.000 C 
ATOM     20  C   UNL     1      49.701   4.485  17.362  0.00  0.00    +0.000 A 
ATOM     21  C   UNL     1      48.869   3.493  17.844  0.00  0.00    +0.000 A 
ATOM     22  C   UNL     1      47.613   3.390  17.286  0.00  0.00    +0.000 A 
ATOM     23  F   UNL     1      46.768   2.445  17.722  0.00  0.00    +0.000 F 
ATOM     24  C   UNL     1      47.205   4.254  16.286  0.00  0.00    +0.000 A 
ATOM     25  C   UNL     1      48.086   5.227  15.845  0.00  0.00    +0.000 A 
ATOM     26  N   UNL     1      49.322   5.341  16.374  0.00  0.00    +0.000 NA
ENDBRANCH  17  25
ENDBRANCH  16  17
ENDBRANCH   1  16
TORSDOF 5
ENDMDL
MODEL 8
REMARK VINA RESULT:    -7.343      3.608      8.086
REMARK INTER + INTRA:         -10.217
REMARK INTER:                  -9.524
REMARK INTRA:                  -0.693
REMARK UNBOUND:                -0.728
REMARK  Name = 
REMARK  7 active torsions:
REMARK  status: ('A' for Active; 'I' for Inactive)
REMARK    1  A    between atoms: C_1  and  C_2
REMARK    2  A    between atoms: C_7  and  N_8
REMARK    3  A    between atoms: N_8  and  C_9
REMARK    4  A    between atoms: C_9  and  C_10
REMARK    5  A    between atoms: C_10  and  C_11
REMARK    6  A    between atoms: C_10  and  C_12
REMARK    7  A    between atoms: C_16  and  C_17
REMARK                            x       y       z     vdW  Elec       q    Type
REMARK                         _______ _______ _______ _____ _____    ______ ____
ROOT
ATOM      1  C   UNL     1      44.678   5.480  10.948  0.00  0.00    +0.000 C 
ATOM      2  C   UNL     1      43.400   6.199  11.397  0.00  0.00    +0.000 C 
ENDROOT
BRANCH   1   3
ATOM      3  C   UNL     1      45.734   5.563  12.040  0.00  0.00    +0.000 A 
ATOM      4  C   UNL     1      45.609   4.872  13.242  0.00  0.00    +0.000 A 
ATOM      5  N   UNL     1      46.509   4.923  14.243  0.00  0.00    +0.000 NA
ATOM      6  C   UNL     1      47.585   5.722  14.052  0.00  0.00    +0.000 A 
ATOM      7  C   UNL     1      47.842   6.472  12.901  0.00  0.00    +0.000 A 
ATOM      8  C   UNL     1      46.882   6.356  11.879  0.00  0.00    +0.000 A 
BRANCH   7   9
ATOM      9  C   UNL     1      49.025   7.356  12.787  0.00  0.00    +0.000 A 
ATOM     10  C   UNL     1      49.904   7.560  13.871  0.00  0.00    +0.000 A 
ATOM     11  C   UNL     1      50.987   8.442  13.777  0.00  0.00    +0.000 A 
ATOM     12  C   UNL     1      51.218   9.120  12.590  0.00  0.00    +0.000 A 
ATOM     13  F   UNL     1      52.249   9.969  12.501  0.00  0.00    +0.000 F 
ATOM     14  C   UNL     1      50.389   8.930  11.495  0.00  0.00    +0.000 A 
ATOM     15  C   UNL     1      49.299   8.059  11.596  0.00  0.00    +0.000 A 
ENDBRANCH   7   9
ENDBRANCH   1   3
BRANCH   1  16
ATOM     16  C   UNL     1      44.424   4.008  10.567  0.00  0.00    +0.000 C 
BRANCH  16  17
ATOM     17  N   UNL     1      44.275   3.801   9.142  0.00  0.00    +0.000 N 
ATOM     18  H   UNL     1      43.468   4.129   8.628  0.00  0.00    +0.000 HD
BRANCH  17  25
ATOM     19  C   UNL     1      47.139   3.682   5.360  0.00  0.00    +0.000 C 
ATOM     20  C   UNL     1      46.562   2.958   6.540  0.00  0.00    +0.000 A 
ATOM     21  C   UNL     1      46.929   1.654   6.810  0.00  0.00    +0.000 A 
ATOM     22  C   UNL     1      46.365   1.050   7.914  0.00  0.00    +0.000 A 
ATOM     23  F   UNL     1      46.692  -0.213   8.218  0.00  0.00    +0.000 F 
ATOM     24  C   UNL     1      45.470   1.732   8.720  0.00  0.00    +0.000 A 
ATOM     25  C   UNL     1      45.142   3.037   8.395  0.00  0.00    +0.000 A 
ATOM     26  N   UNL     1      45.678   3.645   7.316  0.00  0.00    +0.000 NA
ENDBRANCH  17  25
ENDBRANCH  16  17
ENDBRANCH   1  16
TORSDOF 5
ENDMDL
MODEL 9
REMARK VINA RESULT:    -6.908      3.003      4.177
REMARK INTER + INTRA:          -9.656
REMARK INTER:                  -8.731
REMARK INTRA:                  -0.925
REMARK UNBOUND:                -0.728
REMARK  Name = 
REMARK  7 active torsions:
REMARK  status: ('A' for Active; 'I' for Inactive)
REMARK    1  A    between atoms: C_1  and  C_2
REMARK    2  A    between atoms: C_7  and  N_8
REMARK    3  A    between atoms: N_8  and  C_9
REMARK    4  A    between atoms: C_9  and  C_10
REMARK    5  A    between atoms: C_10  and  C_11
REMARK    6  A    between atoms: C_10  and  C_12
REMARK    7  A    between atoms: C_16  and  C_17
REMARK                            x       y       z     vdW  Elec       q    Type
REMARK                         _______ _______ _______ _____ _____    ______ ____
ROOT
ATOM      1  C   UNL     1      49.080   8.552  12.503  0.00  0.00    +0.000 C 
ATOM      2  C   UNL     1      49.948   7.679  11.589  0.00  0.00    +0.000 C 
ENDROOT
BRANCH   1   3
ATOM      3  C   UNL     1      47.609   8.222  12.294  0.00  0.00    +0.000 A 
ATOM      4  C   UNL     1      46.593   9.052  12.760  0.00  0.00    +0.000 A 
ATOM      5  N   UNL     1      45.279   8.799  12.612  0.00  0.00    +0.000 NA
ATOM      6  C   UNL     1      44.951   7.645  11.983  0.00  0.00    +0.000 A 
ATOM      7  C   UNL     1      45.860   6.720  11.463  0.00  0.00    +0.000 A 
ATOM      8  C   UNL     1      47.217   7.052  11.624  0.00  0.00    +0.000 A 
BRANCH   7   9
ATOM      9  C   UNL     1      45.417   5.458  10.824  0.00  0.00    +0.000 A 
ATOM     10  C   UNL     1      44.852   4.406  11.574  0.00  0.00    +0.000 A 
ATOM     11  C   UNL     1      44.490   3.194  10.975  0.00  0.00    +0.000 A 
ATOM     12  C   UNL     1      44.672   3.022   9.611  0.00  0.00    +0.000 A 
ATOM     13  F   UNL     1      44.333   1.861   9.038  0.00  0.00    +0.000 F 
ATOM     14  C   UNL     1      45.205   4.041   8.837  0.00  0.00    +0.000 A 
ATOM     15  C   UNL     1      45.579   5.246   9.440  0.00  0.00    +0.000 A 
ENDBRANCH   7   9
ENDBRANCH   1   3
BRANCH   1  16
ATOM     16  C   UNL     1      49.451   8.399  13.991  0.00  0.00    +0.000 C 
BRANCH  16  17
ATOM     17  N   UNL     1      49.443   7.025  14.447  0.00  0.00    +0.000 N 
ATOM     18  H   UNL     1      49.702   6.253  13.846  0.00  0.00    +0.000 HD
BRANCH  17  25
ATOM     19  C   UNL     1      47.477   3.521  16.972  0.00  0.00    +0.000 C 
ATOM     20  C   UNL     1      48.001   4.926  16.941  0.00  0.00    +0.000 A 
ATOM     21  C   UNL     1      47.998   5.699  18.086  0.00  0.00    +0.000 A 
ATOM     22  C   UNL     1      48.499   6.980  17.989  0.00  0.00    +0.000 A 
ATOM     23  F   UNL     1      48.520   7.767  19.073  0.00  0.00    +0.000 F 
ATOM     24  C   UNL     1      48.990   7.464  16.790  0.00  0.00    +0.000 A 
ATOM     25  C   UNL     1      48.964   6.640  15.678  0.00  0.00    +0.000 A 
ATOM     26  N   UNL     1      48.473   5.385  15.749  0.00  0.00    +0.000 NA
ENDBRANCH  17  25
ENDBRANCH  16  17
ENDBRANCH   1  16
TORSDOF 5
ENDMDL
