MODEL 1
REMARK VINA RESULT:    -7.861      0.000      0.000
REMARK INTER + INTRA:          -9.496
REMARK INTER:                  -9.240
REMARK INTRA:                  -0.256
REMARK UNBOUND:                -0.256
REMARK  Name = 
REMARK  3 active torsions:
REMARK  status: ('A' for Active; 'I' for Inactive)
REMARK    1  A    between atoms: C_2  and  C_4
REMARK    2  A    between atoms: C_8  and  C_9
REMARK    3  A    between atoms: C_9  and  C_10
REMARK                            x       y       z     vdW  Elec       q    Type
REMARK                         _______ _______ _______ _____ _____    ______ ____
ROOT
ATOM      1  C   UNL     1      44.439   3.669  11.288  0.00  0.00    +0.000 C 
ATOM      2  C   UNL     1      43.335   2.778  11.867  0.00  0.00    +0.000 C 
ATOM      3  C   UNL     1      43.020   4.194  11.513  0.00  0.00    +0.000 C 
ENDROOT
BRANCH   1   4
ATOM      4  C   UNL     1      45.500   4.156  12.276  0.00  0.00    +0.000 A 
ATOM      5  C   UNL     1      46.048   3.326  13.253  0.00  0.00    +0.000 A 
ATOM      6  C   UNL     1      47.146   3.774  13.962  0.00  0.00    +0.000 A 
ATOM      7  N   UNL     1      47.723   4.980  13.775  0.00  0.00    +0.000 NA
ATOM      8  C   UNL     1      47.170   5.829  12.884  0.00  0.00    +0.000 A 
ATOM      9  N   UNL     1      47.738   7.066  12.720  0.00  0.00    +0.000 N 
ATOM     10  C   UNL     1      49.184   7.240  12.882  0.00  0.00    +0.000 C 
ATOM     11  C   UNL     1      49.457   8.518  13.688  0.00  0.00    +0.000 C 
ATOM     12  O   UNL     1      48.808   9.664  13.104  0.00  0.00    +0.000 OA
ATOM     13  C   UNL     1      47.387   9.455  13.049  0.00  0.00    +0.000 C 
ATOM     14  C   UNL     1      47.028   8.230  12.196  0.00  0.00    +0.000 C 
ATOM     15  C   UNL     1      46.054   5.438  12.149  0.00  0.00    +0.000 A 
ENDBRANCH   1   4
BRANCH   1  20
ATOM     16  C   UNL     1      46.056   2.164   8.124  0.00  0.00    +0.000 A 
ATOM     17  C   UNL     1      45.567   3.059   7.185  0.00  0.00    +0.000 A 
ATOM     18  N   UNL     1      44.757   4.099   7.495  0.00  0.00    +0.000 NA
ATOM     19  C   UNL     1      44.441   4.248   8.803  0.00  0.00    +0.000 A 
ATOM     20  C   UNL     1      44.875   3.423   9.846  0.00  0.00    +0.000 A 
ATOM     21  C   UNL     1      45.715   2.358   9.471  0.00  0.00    +0.000 A 
BRANCH  16  23
ATOM     22  N   UNL     1      48.024   1.390   6.927  0.00  0.00    +0.000 N 
ATOM     23  C   UNL     1      46.916   1.060   7.651  0.00  0.00    +0.000 C 
ATOM     24  O   UNL     1      46.681  -0.105   7.936  0.00  0.00    +0.000 OA
ATOM     25  H   UNL     1      48.665   0.632   6.729  0.00  0.00    +0.000 HD
ATOM     26  H   UNL     1      48.403   2.328   6.913  0.00  0.00    +0.000 HD
ENDBRANCH  16  23
ENDBRANCH   1  20
TORSDOF 3
ENDMDL
MODEL 2
REMARK VINA RESULT:    -7.516      2.708      3.783
REMARK INTER + INTRA:          -9.090
REMARK INTER:                  -9.067
REMARK INTRA:                  -0.022
REMARK UNBOUND:                -0.256
REMARK  Name = 
REMARK  3 active torsions:
REMARK  status: ('A' for Active; 'I' for Inactive)
REMARK    1  A    between atoms: C_2  and  C_4
REMARK    2  A    between atoms: C_8  and  C_9
REMARK    3  A    between atoms: C_9  and  C_10
REMARK                            x       y       z     vdW  Elec       q    Type
REMARK                         _______ _______ _______ _____ _____    ______ ____
ROOT
ATOM      1  C   UNL     1      45.073   5.784  11.733  0.00  0.00    +0.000 C 
ATOM      2  C   UNL     1      43.829   6.243  12.501  0.00  0.00    +0.000 C 
ATOM      3  C   UNL     1      44.354   7.090  11.390  0.00  0.00    +0.000 C 
ENDROOT
BRANCH   1   4
ATOM      4  C   UNL     1      46.407   5.924  12.465  0.00  0.00    +0.000 A 
ATOM      5  C   UNL     1      47.416   6.780  12.024  0.00  0.00    +0.000 A 
ATOM      6  C   UNL     1      48.499   7.009  12.851  0.00  0.00    +0.000 A 
ATOM      7  N   UNL     1      48.650   6.445  14.068  0.00  0.00    +0.000 NA
ATOM      8  C   UNL     1      47.723   5.560  14.489  0.00  0.00    +0.000 A 
ATOM      9  N   UNL     1      47.896   4.963  15.712  0.00  0.00    +0.000 N 
ATOM     10  C   UNL     1      48.555   5.691  16.799  0.00  0.00    +0.000 C 
ATOM     11  C   UNL     1      49.540   4.755  17.515  0.00  0.00    +0.000 C 
ATOM     12  O   UNL     1      48.899   3.539  17.950  0.00  0.00    +0.000 OA
ATOM     13  C   UNL     1      48.345   2.841  16.822  0.00  0.00    +0.000 C 
ATOM     14  C   UNL     1      47.293   3.688  16.093  0.00  0.00    +0.000 C 
ATOM     15  C   UNL     1      46.616   5.278  13.692  0.00  0.00    +0.000 A 
ENDBRANCH   1   4
BRANCH   1  20
ATOM     16  C   UNL     1      45.493   3.419   8.713  0.00  0.00    +0.000 A 
ATOM     17  C   UNL     1      44.581   2.440   9.077  0.00  0.00    +0.000 A 
ATOM     18  N   UNL     1      43.852   2.484  10.217  0.00  0.00    +0.000 NA
ATOM     19  C   UNL     1      44.041   3.564  11.012  0.00  0.00    +0.000 A 
ATOM     20  C   UNL     1      44.921   4.622  10.755  0.00  0.00    +0.000 A 
ATOM     21  C   UNL     1      45.653   4.528   9.557  0.00  0.00    +0.000 A 
BRANCH  16  23
ATOM     22  N   UNL     1      46.732   1.997   7.180  0.00  0.00    +0.000 N 
ATOM     23  C   UNL     1      46.239   3.240   7.451  0.00  0.00    +0.000 C 
ATOM     24  O   UNL     1      46.371   4.152   6.647  0.00  0.00    +0.000 OA
ATOM     25  H   UNL     1      47.120   1.866   6.255  0.00  0.00    +0.000 HD
ATOM     26  H   UNL     1      46.409   1.169   7.664  0.00  0.00    +0.000 HD
ENDBRANCH  16  23
ENDBRANCH   1  20
TORSDOF 3
ENDMDL
MODEL 3
REMARK VINA RESULT:    -7.190      2.904      4.568
REMARK INTER + INTRA:          -8.707
REMARK INTER:                  -8.556
REMARK INTRA:                  -0.150
REMARK UNBOUND:                -0.256
REMARK  Name = 
REMARK  3 active torsions:
REMARK  status: ('A' for Active; 'I' for Inactive)
REMARK    1  A    between atoms: C_2  and  C_4
REMARK    2  A    between atoms: C_8  and  C_9
REMARK    3  A    between atoms: C_9  and  C_10
REMARK                            x       y       z     vdW  Elec       q    Type
REMARK                         _______ _______ _______ _____ _____    ______ ____
ROOT
ATOM      1  C   UNL     1      45.791   6.535  12.324  0.00  0.00    +0.000 C 
ATOM      2  C   UNL     1      44.936   7.780  12.578  0.00  0.00    +0.000 C 
ATOM      3  C   UNL     1      45.707   7.672  11.305  0.00  0.00    +0.000 C 
ENDROOT
BRANCH   1   4
ATOM      4  C   UNL     1      47.094   6.439  13.118  0.00  0.00    +0.000 A 
ATOM      5  C   UNL     1      48.233   7.168  12.777  0.00  0.00    +0.000 A 
ATOM      6  C   UNL     1      49.294   7.190  13.662  0.00  0.00    +0.000 A 
ATOM      7  N   UNL     1      49.304   6.537  14.843  0.00  0.00    +0.000 NA
ATOM      8  C   UNL     1      48.243   5.769  15.165  0.00  0.00    +0.000 A 
ATOM      9  N   UNL     1      48.270   5.080  16.351  0.00  0.00    +0.000 N 
ATOM     10  C   UNL     1      48.969   5.639  17.511  0.00  0.00    +0.000 C 
ATOM     11  C   UNL     1      49.777   4.531  18.202  0.00  0.00    +0.000 C 
ATOM     12  O   UNL     1      48.953   3.395  18.527  0.00  0.00    +0.000 OA
ATOM     13  C   UNL     1      48.364   2.852  17.334  0.00  0.00    +0.000 C 
ATOM     14  C   UNL     1      47.477   3.884  16.621  0.00  0.00    +0.000 C 
ATOM     15  C   UNL     1      47.149   5.697  14.307  0.00  0.00    +0.000 A 
ENDBRANCH   1   4
BRANCH   1  20
ATOM     16  C   UNL     1      44.462   3.432  10.455  0.00  0.00    +0.000 A 
ATOM     17  C   UNL     1      43.758   2.840  11.493  0.00  0.00    +0.000 A 
ATOM     18  N   UNL     1      43.686   3.361  12.740  0.00  0.00    +0.000 NA
ATOM     19  C   UNL     1      44.338   4.531  12.943  0.00  0.00    +0.000 A 
ATOM     20  C   UNL     1      45.074   5.232  11.981  0.00  0.00    +0.000 A 
ATOM     21  C   UNL     1      45.116   4.648  10.702  0.00  0.00    +0.000 A 
BRANCH  16  23
ATOM     22  N   UNL     1      44.371   3.524   8.028  0.00  0.00    +0.000 N 
ATOM     23  C   UNL     1      44.476   2.748   9.146  0.00  0.00    +0.000 C 
ATOM     24  O   UNL     1      44.628   1.539   9.054  0.00  0.00    +0.000 OA
ATOM     25  H   UNL     1      44.516   3.051   7.145  0.00  0.00    +0.000 HD
ATOM     26  H   UNL     1      44.529   4.523   8.045  0.00  0.00    +0.000 HD
ENDBRANCH  16  23
ENDBRANCH   1  20
TORSDOF 3
ENDMDL
MODEL 4
REMARK VINA RESULT:    -6.815      3.367      5.254
REMARK INTER + INTRA:          -8.267
REMARK INTER:                  -7.999
REMARK INTRA:                  -0.268
REMARK UNBOUND:                -0.256
REMARK  Name = 
REMARK  3 active torsions:
REMARK  status: ('A' for Active; 'I' for Inactive)
REMARK    1  A    between atoms: C_2  and  C_4
REMARK    2  A    between atoms: C_8  and  C_9
REMARK    3  A    between atoms: C_9  and  C_10
REMARK                            x       y       z     vdW  Elec       q    Type
REMARK                         _______ _______ _______ _____ _____    ______ ____
ROOT
ATOM      1  C   UNL     1      46.655   7.378  12.584  0.00  0.00    +0.000 C 
ATOM      2  C   UNL     1      45.792   8.571  13.007  0.00  0.00    +0.000 C 
ATOM      3  C   UNL     1      46.746   8.727  11.870  0.00  0.00    +0.000 C 
ENDROOT
BRANCH   1   4
ATOM      4  C   UNL     1      47.820   7.027  13.510  0.00  0.00    +0.000 A 
ATOM      5  C   UNL     1      49.071   7.634  13.400  0.00  0.00    +0.000 A 
ATOM      6  C   UNL     1      50.000   7.421  14.400  0.00  0.00    +0.000 A 
ATOM      7  N   UNL     1      49.777   6.649  15.485  0.00  0.00    +0.000 NA
ATOM      8  C   UNL     1      48.600   5.996  15.580  0.00  0.00    +0.000 A 
ATOM      9  N   UNL     1      48.389   5.185  16.666  0.00  0.00    +0.000 N 
ATOM     10  C   UNL     1      48.987   5.520  17.962  0.00  0.00    +0.000 C 
ATOM     11  C   UNL     1      49.561   4.247  18.602  0.00  0.00    +0.000 C 
ATOM     12  O   UNL     1      48.575   3.200  18.683  0.00  0.00    +0.000 OA
ATOM     13  C   UNL     1      48.092   2.871  17.370  0.00  0.00    +0.000 C 
ATOM     14  C   UNL     1      47.434   4.080  16.690  0.00  0.00    +0.000 C 
ATOM     15  C   UNL     1      47.630   6.160  14.595  0.00  0.00    +0.000 A 
ENDBRANCH   1   4
BRANCH   1  20
ATOM     16  C   UNL     1      44.583   4.235  11.737  0.00  0.00    +0.000 A 
ATOM     17  C   UNL     1      44.762   4.223  10.362  0.00  0.00    +0.000 A 
ATOM     18  N   UNL     1      45.490   5.148   9.695  0.00  0.00    +0.000 NA
ATOM     19  C   UNL     1      46.071   6.114  10.446  0.00  0.00    +0.000 A 
ATOM     20  C   UNL     1      45.976   6.233  11.837  0.00  0.00    +0.000 A 
ATOM     21  C   UNL     1      45.209   5.245  12.481  0.00  0.00    +0.000 A 
BRANCH  16  23
ATOM     22  N   UNL     1      43.417   2.110  11.554  0.00  0.00    +0.000 N 
ATOM     23  C   UNL     1      43.748   3.176  12.339  0.00  0.00    +0.000 C 
ATOM     24  O   UNL     1      43.403   3.217  13.511  0.00  0.00    +0.000 OA
ATOM     25  H   UNL     1      42.960   1.339  12.023  0.00  0.00    +0.000 HD
ATOM     26  H   UNL     1      43.905   1.899  10.692  0.00  0.00    +0.000 HD
ENDBRANCH  16  23
ENDBRANCH   1  20
TORSDOF 3
ENDMDL
MODEL 5
REMARK VINA RESULT:    -6.635      2.708      4.610
REMARK INTER + INTRA:          -8.055
REMARK INTER:                  -7.821
REMARK INTRA:                  -0.234
REMARK UNBOUND:                -0.256
REMARK  Name = 
REMARK  3 active torsions:
REMARK  status: ('A' for Active; 'I' for Inactive)
REMARK    1  A    between atoms: C_2  and  C_4
REMARK    2  A    between atoms: C_8  and  C_9
REMARK    3  A    between atoms: C_9  and  C_10
REMARK                            x       y       z     vdW  Elec       q    Type
REMARK                         _______ _______ _______ _____ _____    ______ ____
ROOT
ATOM      1  C   UNL     1      46.206   7.230  12.341  0.00  0.00    +0.000 C 
ATOM      2  C   UNL     1      45.315   8.347  12.893  0.00  0.00    +0.000 C 
ATOM      3  C   UNL     1      45.684   8.355  11.447  0.00  0.00    +0.000 C 
ENDROOT
BRANCH   1   4
ATOM      4  C   UNL     1      47.686   7.301  12.715  0.00  0.00    +0.000 A 
ATOM      5  C   UNL     1      48.657   7.783  11.838  0.00  0.00    +0.000 A 
ATOM      6  C   UNL     1      49.931   8.015  12.322  0.00  0.00    +0.000 A 
ATOM      7  N   UNL     1      50.303   7.793  13.601  0.00  0.00    +0.000 NA
ATOM      8  C   UNL     1      49.402   7.261  14.452  0.00  0.00    +0.000 A 
ATOM      9  N   UNL     1      49.792   7.005  15.742  0.00  0.00    +0.000 N 
ATOM     10  C   UNL     1      50.788   7.861  16.393  0.00  0.00    +0.000 C 
ATOM     11  C   UNL     1      51.789   6.986  17.160  0.00  0.00    +0.000 C 
ATOM     12  O   UNL     1      51.124   6.091  18.072  0.00  0.00    +0.000 OA
ATOM     13  C   UNL     1      50.224   5.230  17.355  0.00  0.00    +0.000 C 
ATOM     14  C   UNL     1      49.143   6.032  16.616  0.00  0.00    +0.000 C 
ATOM     15  C   UNL     1      48.106   6.994  14.018  0.00  0.00    +0.000 A 
ENDBRANCH   1   4
BRANCH   1  20
ATOM     16  C   UNL     1      44.796   3.989  10.792  0.00  0.00    +0.000 A 
ATOM     17  C   UNL     1      44.494   3.305  11.961  0.00  0.00    +0.000 A 
ATOM     18  N   UNL     1      44.715   3.806  13.198  0.00  0.00    +0.000 NA
ATOM     19  C   UNL     1      45.249   5.050  13.259  0.00  0.00    +0.000 A 
ATOM     20  C   UNL     1      45.588   5.846  12.159  0.00  0.00    +0.000 A 
ATOM     21  C   UNL     1      45.336   5.279  10.896  0.00  0.00    +0.000 A 
BRANCH  16  23
ATOM     22  N   UNL     1      44.194   4.109   8.441  0.00  0.00    +0.000 N 
ATOM     23  C   UNL     1      44.522   3.320   9.505  0.00  0.00    +0.000 C 
ATOM     24  O   UNL     1      44.632   2.109   9.373  0.00  0.00    +0.000 OA
ATOM     25  H   UNL     1      44.142   3.644   7.544  0.00  0.00    +0.000 HD
ATOM     26  H   UNL     1      44.368   5.106   8.432  0.00  0.00    +0.000 HD
ENDBRANCH  16  23
ENDBRANCH   1  20
TORSDOF 3
ENDMDL
MODEL 6
REMARK VINA RESULT:    -6.409      3.353      7.923
REMARK INTER + INTRA:          -7.790
REMARK INTER:                  -7.557
REMARK INTRA:                  -0.233
REMARK UNBOUND:                -0.256
REMARK  Name = 
REMARK  3 active torsions:
REMARK  status: ('A' for Active; 'I' for Inactive)
REMARK    1  A    between atoms: C_2  and  C_4
REMARK    2  A    between atoms: C_8  and  C_9
REMARK    3  A    between atoms: C_9  and  C_10
REMARK                            x       y       z     vdW  Elec       q    Type
REMARK                         _______ _______ _______ _____ _____    ______ ____
ROOT
ATOM      1  C   UNL     1      48.731   7.548  14.600  0.00  0.00    +0.000 C 
ATOM      2  C   UNL     1      50.061   7.418  13.849  0.00  0.00    +0.000 C 
ATOM      3  C   UNL     1      49.675   8.739  14.427  0.00  0.00    +0.000 C 
ENDROOT
BRANCH   1   4
ATOM      4  C   UNL     1      47.469   7.560  13.738  0.00  0.00    +0.000 A 
ATOM      5  C   UNL     1      46.866   8.743  13.312  0.00  0.00    +0.000 A 
ATOM      6  C   UNL     1      45.861   8.671  12.367  0.00  0.00    +0.000 A 
ATOM      7  N   UNL     1      45.413   7.516  11.829  0.00  0.00    +0.000 NA
ATOM      8  C   UNL     1      45.932   6.353  12.275  0.00  0.00    +0.000 A 
ATOM      9  N   UNL     1      45.452   5.180  11.751  0.00  0.00    +0.000 N 
ATOM     10  C   UNL     1      44.992   5.128  10.361  0.00  0.00    +0.000 C 
ATOM     11  C   UNL     1      43.683   4.329  10.286  0.00  0.00    +0.000 C 
ATOM     12  O   UNL     1      43.818   3.028  10.890  0.00  0.00    +0.000 OA
ATOM     13  C   UNL     1      44.193   3.159  12.272  0.00  0.00    +0.000 C 
ATOM     14  C   UNL     1      45.536   3.887  12.426  0.00  0.00    +0.000 C 
ATOM     15  C   UNL     1      46.938   6.362  13.237  0.00  0.00    +0.000 A 
ENDBRANCH   1   4
BRANCH   1  20
ATOM     16  C   UNL     1      48.131   5.092  17.515  0.00  0.00    +0.000 A 
ATOM     17  C   UNL     1      48.532   5.903  18.566  0.00  0.00    +0.000 A 
ATOM     18  N   UNL     1      48.983   7.168  18.404  0.00  0.00    +0.000 NA
ATOM     19  C   UNL     1      49.016   7.638  17.134  0.00  0.00    +0.000 A 
ATOM     20  C   UNL     1      48.632   6.928  15.991  0.00  0.00    +0.000 A 
ATOM     21  C   UNL     1      48.170   5.618  16.216  0.00  0.00    +0.000 A 
BRANCH  16  23
ATOM     22  N   UNL     1      48.303   3.068  18.849  0.00  0.00    +0.000 N 
ATOM     23  C   UNL     1      47.678   3.722  17.828  0.00  0.00    +0.000 C 
ATOM     24  O   UNL     1      46.743   3.202  17.234  0.00  0.00    +0.000 OA
ATOM     25  H   UNL     1      47.889   2.188  19.131  0.00  0.00    +0.000 HD
ATOM     26  H   UNL     1      48.869   3.550  19.536  0.00  0.00    +0.000 HD
ENDBRANCH  16  23
ENDBRANCH   1  20
TORSDOF 3
ENDMDL
MODEL 7
REMARK VINA RESULT:    -6.063      2.798      3.868
REMARK INTER + INTRA:          -7.382
REMARK INTER:                  -7.391
REMARK INTRA:                   0.009
REMARK UNBOUND:                -0.256
REMARK  Name = 
REMARK  3 active torsions:
REMARK  status: ('A' for Active; 'I' for Inactive)
REMARK    1  A    between atoms: C_2  and  C_4
REMARK    2  A    between atoms: C_8  and  C_9
REMARK    3  A    between atoms: C_9  and  C_10
REMARK                            x       y       z     vdW  Elec       q    Type
REMARK                         _______ _______ _______ _____ _____    ______ ____
ROOT
ATOM      1  C   UNL     1      46.175   6.809  12.358  0.00  0.00    +0.000 C 
ATOM      2  C   UNL     1      45.795   8.284  12.524  0.00  0.00    +0.000 C 
ATOM      3  C   UNL     1      47.038   7.930  11.779  0.00  0.00    +0.000 C 
ENDROOT
BRANCH   1   4
ATOM      4  C   UNL     1      46.725   6.111  13.602  0.00  0.00    +0.000 A 
ATOM      5  C   UNL     1      46.422   4.786  13.912  0.00  0.00    +0.000 A 
ATOM      6  C   UNL     1      47.124   4.166  14.928  0.00  0.00    +0.000 A 
ATOM      7  N   UNL     1      48.087   4.770  15.655  0.00  0.00    +0.000 NA
ATOM      8  C   UNL     1      48.352   6.072  15.422  0.00  0.00    +0.000 A 
ATOM      9  N   UNL     1      49.308   6.692  16.185  0.00  0.00    +0.000 N 
ATOM     10  C   UNL     1      50.461   5.934  16.679  0.00  0.00    +0.000 C 
ATOM     11  C   UNL     1      50.727   6.309  18.144  0.00  0.00    +0.000 C 
ATOM     12  O   UNL     1      50.867   7.733  18.313  0.00  0.00    +0.000 OA
ATOM     13  C   UNL     1      49.671   8.403  17.882  0.00  0.00    +0.000 C 
ATOM     14  C   UNL     1      49.375   8.135  16.399  0.00  0.00    +0.000 C 
ATOM     15  C   UNL     1      47.667   6.753  14.419  0.00  0.00    +0.000 A 
ENDBRANCH   1   4
BRANCH   1  20
ATOM     16  C   UNL     1      45.155   4.509   9.432  0.00  0.00    +0.000 A 
ATOM     17  C   UNL     1      43.792   4.440   9.678  0.00  0.00    +0.000 A 
ATOM     18  N   UNL     1      43.185   5.069  10.711  0.00  0.00    +0.000 NA
ATOM     19  C   UNL     1      43.983   5.809  11.519  0.00  0.00    +0.000 A 
ATOM     20  C   UNL     1      45.365   5.968  11.375  0.00  0.00    +0.000 A 
ATOM     21  C   UNL     1      45.946   5.294  10.284  0.00  0.00    +0.000 A 
BRANCH  16  23
ATOM     22  N   UNL     1      45.727   2.398   8.375  0.00  0.00    +0.000 N 
ATOM     23  C   UNL     1      45.693   3.758   8.280  0.00  0.00    +0.000 C 
ATOM     24  O   UNL     1      46.050   4.322   7.255  0.00  0.00    +0.000 OA
ATOM     25  H   UNL     1      45.973   1.901   7.528  0.00  0.00    +0.000 HD
ATOM     26  H   UNL     1      45.192   1.889   9.067  0.00  0.00    +0.000 HD
ENDBRANCH  16  23
ENDBRANCH   1  20
TORSDOF 3
ENDMDL
MODEL 8
REMARK VINA RESULT:    -6.030      4.555      7.990
REMARK INTER + INTRA:          -7.344
REMARK INTER:                  -7.406
REMARK INTRA:                   0.062
REMARK UNBOUND:                -0.256
REMARK  Name = 
REMARK  3 active torsions:
REMARK  status: ('A' for Active; 'I' for Inactive)
REMARK    1  A    between atoms: C_2  and  C_4
REMARK    2  A    between atoms: C_8  and  C_9
REMARK    3  A    between atoms: C_9  and  C_10
REMARK                            x       y       z     vdW  Elec       q    Type
REMARK                         _______ _______ _______ _____ _____    ______ ____
ROOT
ATOM      1  C   UNL     1      48.087   4.557  16.872  0.00  0.00    +0.000 C 
ATOM      2  C   UNL     1      47.117   4.791  18.035  0.00  0.00    +0.000 C 
ATOM      3  C   UNL     1      47.118   3.470  17.341  0.00  0.00    +0.000 C 
ENDROOT
BRANCH   1   4
ATOM      4  C   UNL     1      47.736   5.246  15.553  0.00  0.00    +0.000 A 
ATOM      5  C   UNL     1      48.534   6.245  14.996  0.00  0.00    +0.000 A 
ATOM      6  C   UNL     1      48.266   6.664  13.707  0.00  0.00    +0.000 A 
ATOM      7  N   UNL     1      47.266   6.170  12.946  0.00  0.00    +0.000 NA
ATOM      8  C   UNL     1      46.438   5.252  13.486  0.00  0.00    +0.000 A 
ATOM      9  N   UNL     1      45.402   4.777  12.723  0.00  0.00    +0.000 N 
ATOM     10  C   UNL     1      45.554   4.655  11.270  0.00  0.00    +0.000 C 
ATOM     11  C   UNL     1      44.280   5.163  10.580  0.00  0.00    +0.000 C 
ATOM     12  O   UNL     1      43.102   4.506  11.086  0.00  0.00    +0.000 OA
ATOM     13  C   UNL     1      42.976   4.735  12.500  0.00  0.00    +0.000 C 
ATOM     14  C   UNL     1      44.184   4.186  13.272  0.00  0.00    +0.000 C 
ATOM     15  C   UNL     1      46.649   4.802  14.786  0.00  0.00    +0.000 A 
ENDBRANCH   1   4
BRANCH   1  20
ATOM     16  C   UNL     1      51.532   2.991  17.625  0.00  0.00    +0.000 A 
ATOM     17  C   UNL     1      52.273   4.155  17.762  0.00  0.00    +0.000 A 
ATOM     18  N   UNL     1      51.748   5.395  17.626  0.00  0.00    +0.000 NA
ATOM     19  C   UNL     1      50.423   5.463  17.354  0.00  0.00    +0.000 A 
ATOM     20  C   UNL     1      49.565   4.368  17.201  0.00  0.00    +0.000 A 
ATOM     21  C   UNL     1      50.161   3.102  17.354  0.00  0.00    +0.000 A 
BRANCH  16  23
ATOM     22  N   UNL     1      53.193   1.614  18.744  0.00  0.00    +0.000 N 
ATOM     23  C   UNL     1      52.231   1.700  17.779  0.00  0.00    +0.000 C 
ATOM     24  O   UNL     1      51.932   0.722  17.109  0.00  0.00    +0.000 OA
ATOM     25  H   UNL     1      53.562   0.689  18.921  0.00  0.00    +0.000 HD
ATOM     26  H   UNL     1      53.270   2.291  19.493  0.00  0.00    +0.000 HD
ENDBRANCH  16  23
ENDBRANCH   1  20
TORSDOF 3
ENDMDL
MODEL 9
REMARK VINA RESULT:    -5.849      2.531      4.468
REMARK INTER + INTRA:          -7.131
REMARK INTER:                  -7.035
REMARK INTRA:                  -0.096
REMARK UNBOUND:                -0.256
REMARK  Name = 
REMARK  3 active torsions:
REMARK  status: ('A' for Active; 'I' for Inactive)
REMARK    1  A    between atoms: C_2  and  C_4
REMARK    2  A    between atoms: C_8  and  C_9
REMARK    3  A    between atoms: C_9  and  C_10
REMARK                            x       y       z     vdW  Elec       q    Type
REMARK                         _______ _______ _______ _____ _____    ______ ____
ROOT
ATOM      1  C   UNL     1      46.318   7.461  12.528  0.00  0.00    +0.000 C 
ATOM      2  C   UNL     1      45.281   8.521  12.912  0.00  0.00    +0.000 C 
ATOM      3  C   UNL     1      45.821   8.498  11.520  0.00  0.00    +0.000 C 
ENDROOT
BRANCH   1   4
ATOM      4  C   UNL     1      47.731   7.673  13.069  0.00  0.00    +0.000 A 
ATOM      5  C   UNL     1      48.163   7.119  14.274  0.00  0.00    +0.000 A 
ATOM      6  C   UNL     1      49.507   7.178  14.586  0.00  0.00    +0.000 A 
ATOM      7  N   UNL     1      50.440   7.753  13.798  0.00  0.00    +0.000 NA
ATOM      8  C   UNL     1      50.039   8.357  12.660  0.00  0.00    +0.000 A 
ATOM      9  N   UNL     1      50.984   8.969  11.877  0.00  0.00    +0.000 N 
ATOM     10  C   UNL     1      52.347   8.434  11.814  0.00  0.00    +0.000 C 
ATOM     11  C   UNL     1      53.353   9.592  11.884  0.00  0.00    +0.000 C 
ATOM     12  O   UNL     1      53.087  10.590  10.881  0.00  0.00    +0.000 OA
ATOM     13  C   UNL     1      51.764  11.126  11.053  0.00  0.00    +0.000 C 
ATOM     14  C   UNL     1      50.691  10.036  10.923  0.00  0.00    +0.000 C 
ATOM     15  C   UNL     1      48.694   8.342  12.299  0.00  0.00    +0.000 A 
ENDBRANCH   1   4
BRANCH   1  20
ATOM     16  C   UNL     1      45.024   4.162  10.999  0.00  0.00    +0.000 A 
ATOM     17  C   UNL     1      45.021   3.381  12.144  0.00  0.00    +0.000 A 
ATOM     18  N   UNL     1      45.407   3.834  13.359  0.00  0.00    +0.000 NA
ATOM     19  C   UNL     1      45.798   5.129  13.424  0.00  0.00    +0.000 A 
ATOM     20  C   UNL     1      45.838   6.023  12.348  0.00  0.00    +0.000 A 
ATOM     21  C   UNL     1      45.425   5.502  11.108  0.00  0.00    +0.000 A 
BRANCH  16  23
ATOM     22  N   UNL     1      44.096   4.360   8.761  0.00  0.00    +0.000 N 
ATOM     23  C   UNL     1      44.596   3.539   9.730  0.00  0.00    +0.000 C 
ATOM     24  O   UNL     1      44.729   2.341   9.526  0.00  0.00    +0.000 OA
ATOM     25  H   UNL     1      43.935   3.932   7.858  0.00  0.00    +0.000 HD
ATOM     26  H   UNL     1      44.232   5.363   8.777  0.00  0.00    +0.000 HD
ENDBRANCH  16  23
ENDBRANCH   1  20
TORSDOF 3
ENDMDL
