MODEL 1
REMARK VINA RESULT:    -8.303      0.000      0.000
REMARK INTER + INTRA:         -11.054
REMARK INTER:                 -10.729
REMARK INTRA:                  -0.324
REMARK UNBOUND:                -0.324
REMARK  Name = 
REMARK  5 active torsions:
REMARK  status: ('A' for Active; 'I' for Inactive)
REMARK    1  A    between atoms: C_2  and  C_18
REMARK    2  A    between atoms: N_3  and  C_4
REMARK    3  A    between atoms: C_4  and  C_5
REMARK    4  A    between atoms: N_8  and  C_9
REMARK    5  A    between atoms: C_9  and  C_10
REMARK                            x       y       z     vdW  Elec       q    Type
REMARK                         _______ _______ _______ _____ _____    ______ ____
ROOT
ATOM      1  O   UNL     1      47.061   3.269  13.989  0.00  0.00    +0.000 OA
ATOM      2  C   UNL     1      46.781   4.412  14.326  0.00  0.00    +0.000 C 
ATOM      3  N   UNL     1      45.592   5.028  13.984  0.00  0.00    +0.000 N 
ATOM      4  H   UNL     1      45.464   6.001  14.217  0.00  0.00    +0.000 HD
ENDROOT
BRANCH   2   5
ATOM      5  C   UNL     1      47.660   5.222  15.174  0.00  0.00    +0.000 A 
ATOM      6  C   UNL     1      48.411   6.285  14.691  0.00  0.00    +0.000 A 
ATOM      7  S   UNL     1      49.274   7.113  15.911  0.00  0.00    +0.000 S 
ATOM      8  C   UNL     1      48.654   6.090  17.122  0.00  0.00    +0.000 A 
ATOM      9  N   UNL     1      48.982   6.278  18.429  0.00  0.00    +0.000 NA
ATOM     10  C   UNL     1      48.420   5.445  19.239  0.00  0.00    +0.000 A 
ATOM     11  N   UNL     1      47.577   4.433  18.858  0.00  0.00    +0.000 N 
ATOM     12  C   UNL     1      47.292   4.143  17.540  0.00  0.00    +0.000 A 
ATOM     13  O   UNL     1      46.696   3.116  17.240  0.00  0.00    +0.000 OA
ATOM     14  C   UNL     1      47.833   5.108  16.600  0.00  0.00    +0.000 A 
ATOM     15  H   UNL     1      47.220   3.776  19.534  0.00  0.00    +0.000 HD
ENDBRANCH   2   5
BRANCH   3  16
ATOM     16  C   UNL     1      44.570   4.376  13.185  0.00  0.00    +0.000 C 
BRANCH  16  17
ATOM     17  C   UNL     1      43.806   5.355  12.276  0.00  0.00    +0.000 C 
ATOM     18  C   UNL     1      43.128   4.674  11.083  0.00  0.00    +0.000 C 
ATOM     19  C   UNL     1      44.130   4.143  10.050  0.00  0.00    +0.000 C 
ATOM     20  N   UNL     1      45.091   5.148   9.579  0.00  0.00    +0.000 NA
ATOM     21  C   UNL     1      45.721   5.904  10.678  0.00  0.00    +0.000 C 
ATOM     22  C   UNL     1      44.729   6.444  11.715  0.00  0.00    +0.000 C 
BRANCH  20  23
ATOM     23  C   UNL     1      46.151   4.565   8.706  0.00  0.00    +0.000 C 
BRANCH  23  24
ATOM     24  C   UNL     1      45.670   3.585   7.602  0.00  0.00    +0.000 C 
ATOM     25  C   UNL     1      45.485   2.143   8.133  0.00  0.00    +0.000 C 
ATOM     26  C   UNL     1      46.708   1.237   7.987  0.00  0.00    +0.000 C 
ATOM     27  C   UNL     1      47.364   1.379   6.622  0.00  0.00    +0.000 C 
ATOM     28  N   UNL     1      47.739   2.777   6.413  0.00  0.00    +0.000 NA
ATOM     29  C   UNL     1      46.542   3.618   6.336  0.00  0.00    +0.000 C 
ATOM     30  H   UNL     1      48.255   2.859   5.537  0.00  0.00    +0.000 HD
ENDBRANCH  23  24
ENDBRANCH  20  23
ENDBRANCH  16  17
ENDBRANCH   3  16
TORSDOF 5
ENDMDL
MODEL 2
REMARK VINA RESULT:    -8.111      1.617      2.455
REMARK INTER + INTRA:         -10.807
REMARK INTER:                 -10.051
REMARK INTRA:                  -0.756
REMARK UNBOUND:                -0.324
REMARK  Name = 
REMARK  5 active torsions:
REMARK  status: ('A' for Active; 'I' for Inactive)
REMARK    1  A    between atoms: C_2  and  C_18
REMARK    2  A    between atoms: N_3  and  C_4
REMARK    3  A    between atoms: C_4  and  C_5
REMARK    4  A    between atoms: N_8  and  C_9
REMARK    5  A    between atoms: C_9  and  C_10
REMARK                            x       y       z     vdW  Elec       q    Type
REMARK                         _______ _______ _______ _____ _____    ______ ____
ROOT
ATOM      1  O   UNL     1      47.627   2.804  14.780  0.00  0.00    +0.000 OA
ATOM      2  C   UNL     1      47.206   3.937  14.970  0.00  0.00    +0.000 C 
ATOM      3  N   UNL     1      46.311   4.560  14.121  0.00  0.00    +0.000 N 
ATOM      4  H   UNL     1      46.076   5.527  14.286  0.00  0.00    +0.000 HD
ENDROOT
BRANCH   2   5
ATOM      5  C   UNL     1      47.571   4.727  16.150  0.00  0.00    +0.000 A 
ATOM      6  C   UNL     1      47.179   4.391  17.438  0.00  0.00    +0.000 A 
ATOM      7  S   UNL     1      47.819   5.430  18.633  0.00  0.00    +0.000 S 
ATOM      8  C   UNL     1      48.656   6.346  17.468  0.00  0.00    +0.000 A 
ATOM      9  N   UNL     1      49.441   7.395  17.836  0.00  0.00    +0.000 NA
ATOM     10  C   UNL     1      50.034   7.981  16.851  0.00  0.00    +0.000 A 
ATOM     11  N   UNL     1      49.898   7.627  15.533  0.00  0.00    +0.000 N 
ATOM     12  C   UNL     1      49.040   6.635  15.103  0.00  0.00    +0.000 A 
ATOM     13  O   UNL     1      48.805   6.486  13.910  0.00  0.00    +0.000 OA
ATOM     14  C   UNL     1      48.420   5.891  16.184  0.00  0.00    +0.000 A 
ATOM     15  H   UNL     1      50.339   8.166  14.805  0.00  0.00    +0.000 HD
ENDBRANCH   2   5
BRANCH   3  16
ATOM     16  C   UNL     1      45.795   3.927  12.920  0.00  0.00    +0.000 C 
BRANCH  16  17
ATOM     17  C   UNL     1      44.484   4.564  12.425  0.00  0.00    +0.000 C 
ATOM     18  C   UNL     1      43.437   3.535  11.987  0.00  0.00    +0.000 C 
ATOM     19  C   UNL     1      43.827   2.795  10.701  0.00  0.00    +0.000 C 
ATOM     20  N   UNL     1      44.164   3.683   9.581  0.00  0.00    +0.000 NA
ATOM     21  C   UNL     1      45.106   4.754   9.955  0.00  0.00    +0.000 C 
ATOM     22  C   UNL     1      44.724   5.503  11.237  0.00  0.00    +0.000 C 
BRANCH  20  23
ATOM     23  C   UNL     1      44.697   2.941   8.401  0.00  0.00    +0.000 C 
BRANCH  23  24
ATOM     24  C   UNL     1      46.242   2.912   8.248  0.00  0.00    +0.000 C 
ATOM     25  C   UNL     1      46.747   3.906   7.174  0.00  0.00    +0.000 C 
ATOM     26  C   UNL     1      46.895   3.320   5.769  0.00  0.00    +0.000 C 
ATOM     27  C   UNL     1      47.553   1.949   5.788  0.00  0.00    +0.000 C 
ATOM     28  N   UNL     1      46.764   1.051   6.633  0.00  0.00    +0.000 NA
ATOM     29  C   UNL     1      46.806   1.499   8.027  0.00  0.00    +0.000 C 
ATOM     30  H   UNL     1      47.155   0.110   6.578  0.00  0.00    +0.000 HD
ENDBRANCH  23  24
ENDBRANCH  20  23
ENDBRANCH  16  17
ENDBRANCH   3  16
TORSDOF 5
ENDMDL
MODEL 3
REMARK VINA RESULT:    -7.593      4.048      8.566
REMARK INTER + INTRA:         -10.137
REMARK INTER:                  -9.273
REMARK INTRA:                  -0.864
REMARK UNBOUND:                -0.324
REMARK  Name = 
REMARK  5 active torsions:
REMARK  status: ('A' for Active; 'I' for Inactive)
REMARK    1  A    between atoms: C_2  and  C_18
REMARK    2  A    between atoms: N_3  and  C_4
REMARK    3  A    between atoms: C_4  and  C_5
REMARK    4  A    between atoms: N_8  and  C_9
REMARK    5  A    between atoms: C_9  and  C_10
REMARK                            x       y       z     vdW  Elec       q    Type
REMARK                         _______ _______ _______ _____ _____    ______ ____
ROOT
ATOM      1  O   UNL     1      48.646   5.928  13.253  0.00  0.00    +0.000 OA
ATOM      2  C   UNL     1      47.515   5.825  13.709  0.00  0.00    +0.000 C 
ATOM      3  N   UNL     1      47.260   5.600  15.048  0.00  0.00    +0.000 N 
ATOM      4  H   UNL     1      46.309   5.435  15.342  0.00  0.00    +0.000 HD
ENDROOT
BRANCH   2   5
ATOM      5  C   UNL     1      46.314   5.985  12.883  0.00  0.00    +0.000 A 
ATOM      6  C   UNL     1      45.849   7.219  12.451  0.00  0.00    +0.000 A 
ATOM      7  S   UNL     1      44.486   7.108  11.428  0.00  0.00    +0.000 S 
ATOM      8  C   UNL     1      44.489   5.408  11.515  0.00  0.00    +0.000 A 
ATOM      9  N   UNL     1      43.575   4.673  10.825  0.00  0.00    +0.000 NA
ATOM     10  C   UNL     1      43.712   3.396  10.965  0.00  0.00    +0.000 A 
ATOM     11  N   UNL     1      44.665   2.793  11.743  0.00  0.00    +0.000 N 
ATOM     12  C   UNL     1      45.550   3.496  12.535  0.00  0.00    +0.000 A 
ATOM     13  O   UNL     1      46.249   2.918  13.358  0.00  0.00    +0.000 OA
ATOM     14  C   UNL     1      45.490   4.934  12.342  0.00  0.00    +0.000 A 
ATOM     15  H   UNL     1      44.679   1.792  11.860  0.00  0.00    +0.000 HD
ENDBRANCH   2   5
BRANCH   3  16
ATOM     16  C   UNL     1      48.315   5.457  16.036  0.00  0.00    +0.000 C 
BRANCH  16  17
ATOM     17  C   UNL     1      47.893   4.598  17.241  0.00  0.00    +0.000 C 
ATOM     18  C   UNL     1      48.926   4.589  18.373  0.00  0.00    +0.000 C 
ATOM     19  C   UNL     1      50.211   3.839  18.002  0.00  0.00    +0.000 C 
ATOM     20  N   UNL     1      49.985   2.473  17.512  0.00  0.00    +0.000 NA
ATOM     21  C   UNL     1      48.938   2.397  16.477  0.00  0.00    +0.000 C 
ATOM     22  C   UNL     1      47.646   3.139  16.838  0.00  0.00    +0.000 C 
BRANCH  20  23
ATOM     23  C   UNL     1      51.233   1.831  17.004  0.00  0.00    +0.000 C 
BRANCH  23  24
ATOM     24  C   UNL     1      52.343   1.561  18.055  0.00  0.00    +0.000 C 
ATOM     25  C   UNL     1      53.536   2.538  17.917  0.00  0.00    +0.000 C 
ATOM     26  C   UNL     1      54.676   2.046  17.024  0.00  0.00    +0.000 C 
ATOM     27  C   UNL     1      55.020   0.588  17.288  0.00  0.00    +0.000 C 
ATOM     28  N   UNL     1      53.824  -0.230  17.084  0.00  0.00    +0.000 NA
ATOM     29  C   UNL     1      52.808   0.096  18.088  0.00  0.00    +0.000 C 
ATOM     30  H   UNL     1      54.073  -1.215  17.177  0.00  0.00    +0.000 HD
ENDBRANCH  23  24
ENDBRANCH  20  23
ENDBRANCH  16  17
ENDBRANCH   3  16
TORSDOF 5
ENDMDL
MODEL 4
REMARK VINA RESULT:    -7.492      3.377      8.681
REMARK INTER + INTRA:         -10.006
REMARK INTER:                  -9.092
REMARK INTRA:                  -0.914
REMARK UNBOUND:                -0.324
REMARK  Name = 
REMARK  5 active torsions:
REMARK  status: ('A' for Active; 'I' for Inactive)
REMARK    1  A    between atoms: C_2  and  C_18
REMARK    2  A    between atoms: N_3  and  C_4
REMARK    3  A    between atoms: C_4  and  C_5
REMARK    4  A    between atoms: N_8  and  C_9
REMARK    5  A    between atoms: C_9  and  C_10
REMARK                            x       y       z     vdW  Elec       q    Type
REMARK                         _______ _______ _______ _____ _____    ______ ____
ROOT
ATOM      1  O   UNL     1      48.500   6.048  13.750  0.00  0.00    +0.000 OA
ATOM      2  C   UNL     1      47.359   5.661  13.961  0.00  0.00    +0.000 C 
ATOM      3  N   UNL     1      46.996   4.971  15.102  0.00  0.00    +0.000 N 
ATOM      4  H   UNL     1      46.059   4.602  15.171  0.00  0.00    +0.000 HD
ENDROOT
BRANCH   2   5
ATOM      5  C   UNL     1      46.249   5.941  13.045  0.00  0.00    +0.000 A 
ATOM      6  C   UNL     1      45.848   7.226  12.708  0.00  0.00    +0.000 A 
ATOM      7  S   UNL     1      44.593   7.262  11.550  0.00  0.00    +0.000 S 
ATOM      8  C   UNL     1      44.561   5.564  11.449  0.00  0.00    +0.000 A 
ATOM      9  N   UNL     1      43.710   4.931  10.596  0.00  0.00    +0.000 NA
ATOM     10  C   UNL     1      43.813   3.644  10.606  0.00  0.00    +0.000 A 
ATOM     11  N   UNL     1      44.675   2.935  11.403  0.00  0.00    +0.000 N 
ATOM     12  C   UNL     1      45.486   3.525  12.350  0.00  0.00    +0.000 A 
ATOM     13  O   UNL     1      46.090   2.843  13.168  0.00  0.00    +0.000 OA
ATOM     14  C   UNL     1      45.467   4.976  12.313  0.00  0.00    +0.000 A 
ATOM     15  H   UNL     1      44.662   1.927  11.409  0.00  0.00    +0.000 HD
ENDBRANCH   2   5
BRANCH   3  16
ATOM     16  C   UNL     1      47.941   4.635  16.151  0.00  0.00    +0.000 C 
BRANCH  16  17
ATOM     17  C   UNL     1      48.110   5.760  17.188  0.00  0.00    +0.000 C 
ATOM     18  C   UNL     1      49.453   6.491  17.079  0.00  0.00    +0.000 C 
ATOM     19  C   UNL     1      50.643   5.619  17.499  0.00  0.00    +0.000 C 
ATOM     20  N   UNL     1      50.501   5.016  18.830  0.00  0.00    +0.000 NA
ATOM     21  C   UNL     1      49.193   4.367  19.034  0.00  0.00    +0.000 C 
ATOM     22  C   UNL     1      47.995   5.231  18.622  0.00  0.00    +0.000 C 
BRANCH  20  23
ATOM     23  C   UNL     1      51.591   4.046  19.141  0.00  0.00    +0.000 C 
BRANCH  23  24
ATOM     24  C   UNL     1      52.297   3.393  17.922  0.00  0.00    +0.000 C 
ATOM     25  C   UNL     1      51.455   2.257  17.292  0.00  0.00    +0.000 C 
ATOM     26  C   UNL     1      51.746   0.857  17.834  0.00  0.00    +0.000 C 
ATOM     27  C   UNL     1      53.238   0.598  17.973  0.00  0.00    +0.000 C 
ATOM     28  N   UNL     1      53.821   1.614  18.849  0.00  0.00    +0.000 NA
ATOM     29  C   UNL     1      53.734   2.935  18.223  0.00  0.00    +0.000 C 
ATOM     30  H   UNL     1      54.804   1.393  19.013  0.00  0.00    +0.000 HD
ENDBRANCH  23  24
ENDBRANCH  20  23
ENDBRANCH  16  17
ENDBRANCH   3  16
TORSDOF 5
ENDMDL
MODEL 5
REMARK VINA RESULT:    -7.437      1.884      2.396
REMARK INTER + INTRA:          -9.935
REMARK INTER:                  -9.888
REMARK INTRA:                  -0.047
REMARK UNBOUND:                -0.324
REMARK  Name = 
REMARK  5 active torsions:
REMARK  status: ('A' for Active; 'I' for Inactive)
REMARK    1  A    between atoms: C_2  and  C_18
REMARK    2  A    between atoms: N_3  and  C_4
REMARK    3  A    between atoms: C_4  and  C_5
REMARK    4  A    between atoms: N_8  and  C_9
REMARK    5  A    between atoms: C_9  and  C_10
REMARK                            x       y       z     vdW  Elec       q    Type
REMARK                         _______ _______ _______ _____ _____    ______ ____
ROOT
ATOM      1  O   UNL     1      48.946   6.259  14.294  0.00  0.00    +0.000 OA
ATOM      2  C   UNL     1      47.917   5.815  14.786  0.00  0.00    +0.000 C 
ATOM      3  N   UNL     1      46.670   6.006  14.223  0.00  0.00    +0.000 N 
ATOM      4  H   UNL     1      45.854   5.692  14.727  0.00  0.00    +0.000 HD
ENDROOT
BRANCH   2   5
ATOM      5  C   UNL     1      47.913   4.989  15.997  0.00  0.00    +0.000 A 
ATOM      6  C   UNL     1      47.565   3.645  15.998  0.00  0.00    +0.000 A 
ATOM      7  S   UNL     1      47.737   2.902  17.526  0.00  0.00    +0.000 S 
ATOM      8  C   UNL     1      48.303   4.347  18.227  0.00  0.00    +0.000 A 
ATOM      9  N   UNL     1      48.668   4.391  19.537  0.00  0.00    +0.000 NA
ATOM     10  C   UNL     1      49.101   5.543  19.926  0.00  0.00    +0.000 A 
ATOM     11  N   UNL     1      49.184   6.656  19.129  0.00  0.00    +0.000 N 
ATOM     12  C   UNL     1      48.737   6.686  17.824  0.00  0.00    +0.000 A 
ATOM     13  O   UNL     1      48.650   7.746  17.217  0.00  0.00    +0.000 OA
ATOM     14  C   UNL     1      48.323   5.390  17.319  0.00  0.00    +0.000 A 
ATOM     15  H   UNL     1      49.472   7.544  19.510  0.00  0.00    +0.000 HD
ENDBRANCH   2   5
BRANCH   3  16
ATOM     16  C   UNL     1      46.467   6.759  12.998  0.00  0.00    +0.000 C 
BRANCH  16  17
ATOM     17  C   UNL     1      45.009   6.720  12.506  0.00  0.00    +0.000 C 
ATOM     18  C   UNL     1      44.230   5.499  13.008  0.00  0.00    +0.000 C 
ATOM     19  C   UNL     1      44.713   4.185  12.382  0.00  0.00    +0.000 C 
ATOM     20  N   UNL     1      44.744   4.198  10.915  0.00  0.00    +0.000 NA
ATOM     21  C   UNL     1      45.406   5.393  10.361  0.00  0.00    +0.000 C 
ATOM     22  C   UNL     1      44.928   6.714  10.975  0.00  0.00    +0.000 C 
BRANCH  20  23
ATOM     23  C   UNL     1      45.372   2.971  10.342  0.00  0.00    +0.000 C 
BRANCH  23  24
ATOM     24  C   UNL     1      44.891   2.548   8.929  0.00  0.00    +0.000 C 
ATOM     25  C   UNL     1      45.681   1.337   8.375  0.00  0.00    +0.000 C 
ATOM     26  C   UNL     1      46.903   1.694   7.527  0.00  0.00    +0.000 C 
ATOM     27  C   UNL     1      46.609   2.819   6.546  0.00  0.00    +0.000 C 
ATOM     28  N   UNL     1      46.145   3.991   7.288  0.00  0.00    +0.000 NA
ATOM     29  C   UNL     1      44.856   3.712   7.924  0.00  0.00    +0.000 C 
ATOM     30  H   UNL     1      46.029   4.772   6.642  0.00  0.00    +0.000 HD
ENDBRANCH  23  24
ENDBRANCH  20  23
ENDBRANCH  16  17
ENDBRANCH   3  16
TORSDOF 5
ENDMDL
MODEL 6
REMARK VINA RESULT:    -7.306      3.283      5.123
REMARK INTER + INTRA:          -9.766
REMARK INTER:                  -8.928
REMARK INTRA:                  -0.838
REMARK UNBOUND:                -0.324
REMARK  Name = 
REMARK  5 active torsions:
REMARK  status: ('A' for Active; 'I' for Inactive)
REMARK    1  A    between atoms: C_2  and  C_18
REMARK    2  A    between atoms: N_3  and  C_4
REMARK    3  A    between atoms: C_4  and  C_5
REMARK    4  A    between atoms: N_8  and  C_9
REMARK    5  A    between atoms: C_9  and  C_10
REMARK                            x       y       z     vdW  Elec       q    Type
REMARK                         _______ _______ _______ _____ _____    ______ ____
ROOT
ATOM      1  O   UNL     1      48.424   4.758  17.613  0.00  0.00    +0.000 OA
ATOM      2  C   UNL     1      49.503   5.121  17.163  0.00  0.00    +0.000 C 
ATOM      3  N   UNL     1      49.625   6.113  16.209  0.00  0.00    +0.000 N 
ATOM      4  H   UNL     1      50.535   6.300  15.815  0.00  0.00    +0.000 HD
ENDROOT
BRANCH   2   5
ATOM      5  C   UNL     1      50.779   4.573  17.633  0.00  0.00    +0.000 A 
ATOM      6  C   UNL     1      51.741   5.337  18.279  0.00  0.00    +0.000 A 
ATOM      7  S   UNL     1      53.089   4.428  18.801  0.00  0.00    +0.000 S 
ATOM      8  C   UNL     1      52.419   2.983  18.199  0.00  0.00    +0.000 A 
ATOM      9  N   UNL     1      53.069   1.797  18.348  0.00  0.00    +0.000 NA
ATOM     10  C   UNL     1      52.432   0.783  17.866  0.00  0.00    +0.000 A 
ATOM     11  N   UNL     1      51.217   0.851  17.234  0.00  0.00    +0.000 N 
ATOM     12  C   UNL     1      50.567   2.039  16.974  0.00  0.00    +0.000 A 
ATOM     13  O   UNL     1      49.588   2.068  16.238  0.00  0.00    +0.000 OA
ATOM     14  C   UNL     1      51.204   3.197  17.575  0.00  0.00    +0.000 A 
ATOM     15  H   UNL     1      50.802   0.029  16.823  0.00  0.00    +0.000 HD
ENDBRANCH   2   5
BRANCH   3  16
ATOM     16  C   UNL     1      48.482   6.810  15.648  0.00  0.00    +0.000 C 
BRANCH  16  17
ATOM     17  C   UNL     1      48.883   7.916  14.656  0.00  0.00    +0.000 C 
ATOM     18  C   UNL     1      47.703   8.780  14.198  0.00  0.00    +0.000 C 
ATOM     19  C   UNL     1      46.720   8.019  13.299  0.00  0.00    +0.000 C 
ATOM     20  N   UNL     1      47.349   7.367  12.144  0.00  0.00    +0.000 NA
ATOM     21  C   UNL     1      48.547   6.586  12.502  0.00  0.00    +0.000 C 
ATOM     22  C   UNL     1      49.540   7.338  13.397  0.00  0.00    +0.000 C 
BRANCH  20  23
ATOM     23  C   UNL     1      46.400   6.501  11.385  0.00  0.00    +0.000 C 
BRANCH  23  24
ATOM     24  C   UNL     1      45.139   6.026  12.155  0.00  0.00    +0.000 C 
ATOM     25  C   UNL     1      45.251   4.552  12.617  0.00  0.00    +0.000 C 
ATOM     26  C   UNL     1      44.679   3.522  11.641  0.00  0.00    +0.000 C 
ATOM     27  C   UNL     1      43.336   3.956  11.075  0.00  0.00    +0.000 C 
ATOM     28  N   UNL     1      43.490   5.252  10.414  0.00  0.00    +0.000 NA
ATOM     29  C   UNL     1      43.827   6.285  11.395  0.00  0.00    +0.000 C 
ATOM     30  H   UNL     1      42.612   5.503   9.960  0.00  0.00    +0.000 HD
ENDBRANCH  23  24
ENDBRANCH  20  23
ENDBRANCH  16  17
ENDBRANCH   3  16
TORSDOF 5
ENDMDL
MODEL 7
REMARK VINA RESULT:    -7.292      3.711      9.022
REMARK INTER + INTRA:          -9.748
REMARK INTER:                  -8.677
REMARK INTRA:                  -1.071
REMARK UNBOUND:                -0.324
REMARK  Name = 
REMARK  5 active torsions:
REMARK  status: ('A' for Active; 'I' for Inactive)
REMARK    1  A    between atoms: C_2  and  C_18
REMARK    2  A    between atoms: N_3  and  C_4
REMARK    3  A    between atoms: C_4  and  C_5
REMARK    4  A    between atoms: N_8  and  C_9
REMARK    5  A    between atoms: C_9  and  C_10
REMARK                            x       y       z     vdW  Elec       q    Type
REMARK                         _______ _______ _______ _____ _____    ______ ____
ROOT
ATOM      1  O   UNL     1      47.206   3.262  13.632  0.00  0.00    +0.000 OA
ATOM      2  C   UNL     1      46.735   4.259  14.164  0.00  0.00    +0.000 C 
ATOM      3  N   UNL     1      46.768   4.472  15.528  0.00  0.00    +0.000 N 
ATOM      4  H   UNL     1      46.281   5.269  15.909  0.00  0.00    +0.000 HD
ENDROOT
BRANCH   2   5
ATOM      5  C   UNL     1      46.135   5.354  13.395  0.00  0.00    +0.000 A 
ATOM      6  C   UNL     1      46.805   6.534  13.107  0.00  0.00    +0.000 A 
ATOM      7  S   UNL     1      45.906   7.599  12.118  0.00  0.00    +0.000 S 
ATOM      8  C   UNL     1      44.604   6.506  12.029  0.00  0.00    +0.000 A 
ATOM      9  N   UNL     1      43.497   6.798  11.294  0.00  0.00    +0.000 NA
ATOM     10  C   UNL     1      42.602   5.868  11.296  0.00  0.00    +0.000 A 
ATOM     11  N   UNL     1      42.707   4.684  11.979  0.00  0.00    +0.000 N 
ATOM     12  C   UNL     1      43.764   4.384  12.813  0.00  0.00    +0.000 A 
ATOM     13  O   UNL     1      43.722   3.407  13.550  0.00  0.00    +0.000 OA
ATOM     14  C   UNL     1      44.835   5.363  12.772  0.00  0.00    +0.000 A 
ATOM     15  H   UNL     1      41.944   4.025  11.991  0.00  0.00    +0.000 HD
ENDBRANCH   2   5
BRANCH   3  16
ATOM     16  C   UNL     1      47.359   3.525  16.458  0.00  0.00    +0.000 C 
BRANCH  16  17
ATOM     17  C   UNL     1      47.584   4.123  17.858  0.00  0.00    +0.000 C 
ATOM     18  C   UNL     1      47.994   5.599  17.831  0.00  0.00    +0.000 C 
ATOM     19  C   UNL     1      49.404   5.816  17.265  0.00  0.00    +0.000 C 
ATOM     20  N   UNL     1      50.442   5.014  17.925  0.00  0.00    +0.000 NA
ATOM     21  C   UNL     1      50.074   3.593  18.062  0.00  0.00    +0.000 C 
ATOM     22  C   UNL     1      48.668   3.363  18.631  0.00  0.00    +0.000 C 
BRANCH  20  23
ATOM     23  C   UNL     1      51.767   5.121  17.247  0.00  0.00    +0.000 C 
BRANCH  23  24
ATOM     24  C   UNL     1      52.995   5.341  18.170  0.00  0.00    +0.000 C 
ATOM     25  C   UNL     1      53.864   4.067  18.308  0.00  0.00    +0.000 C 
ATOM     26  C   UNL     1      53.510   3.166  19.492  0.00  0.00    +0.000 C 
ATOM     27  C   UNL     1      53.267   3.962  20.764  0.00  0.00    +0.000 C 
ATOM     28  N   UNL     1      52.198   4.932  20.525  0.00  0.00    +0.000 NA
ATOM     29  C   UNL     1      52.628   5.930  19.543  0.00  0.00    +0.000 C 
ATOM     30  H   UNL     1      51.976   5.408  21.400  0.00  0.00    +0.000 HD
ENDBRANCH  23  24
ENDBRANCH  20  23
ENDBRANCH  16  17
ENDBRANCH   3  16
TORSDOF 5
ENDMDL
MODEL 8
REMARK VINA RESULT:    -6.964      2.606      4.104
REMARK INTER + INTRA:          -9.324
REMARK INTER:                  -8.000
REMARK INTRA:                  -1.324
REMARK UNBOUND:                -0.324
REMARK  Name = 
REMARK  5 active torsions:
REMARK  status: ('A' for Active; 'I' for Inactive)
REMARK    1  A    between atoms: C_2  and  C_18
REMARK    2  A    between atoms: N_3  and  C_4
REMARK    3  A    between atoms: C_4  and  C_5
REMARK    4  A    between atoms: N_8  and  C_9
REMARK    5  A    between atoms: C_9  and  C_10
REMARK                            x       y       z     vdW  Elec       q    Type
REMARK                         _______ _______ _______ _____ _____    ______ ____
ROOT
ATOM      1  O   UNL     1      48.426   8.502  16.939  0.00  0.00    +0.000 OA
ATOM      2  C   UNL     1      48.935   7.670  16.201  0.00  0.00    +0.000 C 
ATOM      3  N   UNL     1      48.665   7.596  14.848  0.00  0.00    +0.000 N 
ATOM      4  H   UNL     1      49.048   6.830  14.315  0.00  0.00    +0.000 HD
ENDROOT
BRANCH   2   5
ATOM      5  C   UNL     1      49.929   6.700  16.672  0.00  0.00    +0.000 A 
ATOM      6  C   UNL     1      51.237   7.044  16.984  0.00  0.00    +0.000 A 
ATOM      7  S   UNL     1      52.152   5.738  17.597  0.00  0.00    +0.000 S 
ATOM      8  C   UNL     1      50.823   4.681  17.485  0.00  0.00    +0.000 A 
ATOM      9  N   UNL     1      50.926   3.385  17.888  0.00  0.00    +0.000 NA
ATOM     10  C   UNL     1      49.834   2.707  17.769  0.00  0.00    +0.000 A 
ATOM     11  N   UNL     1      48.657   3.202  17.268  0.00  0.00    +0.000 N 
ATOM     12  C   UNL     1      48.531   4.478  16.758  0.00  0.00    +0.000 A 
ATOM     13  O   UNL     1      47.523   4.810  16.146  0.00  0.00    +0.000 OA
ATOM     14  C   UNL     1      49.709   5.303  16.952  0.00  0.00    +0.000 A 
ATOM     15  H   UNL     1      47.857   2.603  17.142  0.00  0.00    +0.000 HD
ENDBRANCH   2   5
BRANCH   3  16
ATOM     16  C   UNL     1      47.742   8.497  14.181  0.00  0.00    +0.000 C 
BRANCH  16  17
ATOM     17  C   UNL     1      47.578   8.185  12.682  0.00  0.00    +0.000 C 
ATOM     18  C   UNL     1      46.210   8.588  12.123  0.00  0.00    +0.000 C 
ATOM     19  C   UNL     1      45.066   7.718  12.659  0.00  0.00    +0.000 C 
ATOM     20  N   UNL     1      45.280   6.276  12.484  0.00  0.00    +0.000 NA
ATOM     21  C   UNL     1      46.616   5.832  12.925  0.00  0.00    +0.000 C 
ATOM     22  C   UNL     1      47.768   6.692  12.391  0.00  0.00    +0.000 C 
BRANCH  20  23
ATOM     23  C   UNL     1      44.235   5.454  13.161  0.00  0.00    +0.000 C 
BRANCH  23  24
ATOM     24  C   UNL     1      43.376   4.544  12.243  0.00  0.00    +0.000 C 
ATOM     25  C   UNL     1      44.026   3.158  12.011  0.00  0.00    +0.000 C 
ATOM     26  C   UNL     1      44.918   3.060  10.773  0.00  0.00    +0.000 C 
ATOM     27  C   UNL     1      44.286   3.724   9.559  0.00  0.00    +0.000 C 
ATOM     28  N   UNL     1      44.003   5.125   9.873  0.00  0.00    +0.000 NA
ATOM     29  C   UNL     1      42.980   5.215  10.917  0.00  0.00    +0.000 C 
ATOM     30  H   UNL     1      43.659   5.594   9.035  0.00  0.00    +0.000 HD
ENDBRANCH  23  24
ENDBRANCH  20  23
ENDBRANCH  16  17
ENDBRANCH   3  16
TORSDOF 5
ENDMDL
MODEL 9
REMARK VINA RESULT:    -6.659      2.702      9.067
REMARK INTER + INTRA:          -8.930
REMARK INTER:                  -8.159
REMARK INTRA:                  -0.771
REMARK UNBOUND:                -0.324
REMARK  Name = 
REMARK  5 active torsions:
REMARK  status: ('A' for Active; 'I' for Inactive)
REMARK    1  A    between atoms: C_2  and  C_18
REMARK    2  A    between atoms: N_3  and  C_4
REMARK    3  A    between atoms: C_4  and  C_5
REMARK    4  A    between atoms: N_8  and  C_9
REMARK    5  A    between atoms: C_9  and  C_10
REMARK                            x       y       z     vdW  Elec       q    Type
REMARK                         _______ _______ _______ _____ _____    ______ ____
ROOT
ATOM      1  O   UNL     1      47.516   3.014  14.551  0.00  0.00    +0.000 OA
ATOM      2  C   UNL     1      47.179   4.173  14.750  0.00  0.00    +0.000 C 
ATOM      3  N   UNL     1      47.060   4.718  16.014  0.00  0.00    +0.000 N 
ATOM      4  H   UNL     1      46.691   5.651  16.110  0.00  0.00    +0.000 HD
ENDROOT
BRANCH   2   5
ATOM      5  C   UNL     1      46.919   5.117  13.658  0.00  0.00    +0.000 A 
ATOM      6  C   UNL     1      47.540   6.355  13.562  0.00  0.00    +0.000 A 
ATOM      7  S   UNL     1      47.125   7.212  12.144  0.00  0.00    +0.000 S 
ATOM      8  C   UNL     1      46.120   5.947  11.606  0.00  0.00    +0.000 A 
ATOM      9  N   UNL     1      45.470   6.031  10.414  0.00  0.00    +0.000 NA
ATOM     10  C   UNL     1      44.765   4.989  10.124  0.00  0.00    +0.000 A 
ATOM     11  N   UNL     1      44.638   3.883  10.924  0.00  0.00    +0.000 N 
ATOM     12  C   UNL     1      45.199   3.792  12.181  0.00  0.00    +0.000 A 
ATOM     13  O   UNL     1      44.899   2.874  12.935  0.00  0.00    +0.000 OA
ATOM     14  C   UNL     1      46.072   4.903  12.512  0.00  0.00    +0.000 A 
ATOM     15  H   UNL     1      44.021   3.128  10.668  0.00  0.00    +0.000 HD
ENDBRANCH   2   5
BRANCH   3  16
ATOM     16  C   UNL     1      47.317   3.958  17.224  0.00  0.00    +0.000 C 
BRANCH  16  17
ATOM     17  C   UNL     1      48.620   4.377  17.929  0.00  0.00    +0.000 C 
ATOM     18  C   UNL     1      48.432   4.694  19.416  0.00  0.00    +0.000 C 
ATOM     19  C   UNL     1      47.626   5.977  19.655  0.00  0.00    +0.000 C 
ATOM     20  N   UNL     1      48.150   7.152  18.949  0.00  0.00    +0.000 NA
ATOM     21  C   UNL     1      48.436   6.892  17.526  0.00  0.00    +0.000 C 
ATOM     22  C   UNL     1      49.245   5.614  17.274  0.00  0.00    +0.000 C 
BRANCH  20  23
ATOM     23  C   UNL     1      47.254   8.340  19.066  0.00  0.00    +0.000 C 
BRANCH  23  24
ATOM     24  C   UNL     1      47.944   9.691  19.395  0.00  0.00    +0.000 C 
ATOM     25  C   UNL     1      48.070  10.607  18.154  0.00  0.00    +0.000 C 
ATOM     26  C   UNL     1      49.380  10.467  17.376  0.00  0.00    +0.000 C 
ATOM     27  C   UNL     1      50.588  10.405  18.299  0.00  0.00    +0.000 C 
ATOM     28  N   UNL     1      50.425   9.285  19.226  0.00  0.00    +0.000 NA
ATOM     29  C   UNL     1      49.291   9.527  20.120  0.00  0.00    +0.000 C 
ATOM     30  H   UNL     1      51.271   9.189  19.788  0.00  0.00    +0.000 HD
ENDBRANCH  23  24
ENDBRANCH  20  23
ENDBRANCH  16  17
ENDBRANCH   3  16
TORSDOF 5
ENDMDL
