MODEL 1
REMARK VINA RESULT:    -7.736      0.000      0.000
REMARK INTER + INTRA:         -11.328
REMARK INTER:                 -10.675
REMARK INTRA:                  -0.653
REMARK UNBOUND:                -0.653
REMARK  Name = 
REMARK  7 active torsions:
REMARK  status: ('A' for Active; 'I' for Inactive)
REMARK    1  A    between atoms: N_1  and  C_2
REMARK    2  A    between atoms: C_2  and  C_3
REMARK    3  A    between atoms: C_7  and  O_8
REMARK    4  A    between atoms: O_8  and  C_9
REMARK    5  A    between atoms: C_9  and  C_10
REMARK    6  A    between atoms: C_10  and  C_11
REMARK    7  A    between atoms: C_15  and  C_16
REMARK                            x       y       z     vdW  Elec       q    Type
REMARK                         _______ _______ _______ _____ _____    ______ ____
ROOT
ATOM      1  C   UNL     1      43.337   3.588  11.120  0.00  0.00    +0.000 C 
ENDROOT
BRANCH   1   2
ATOM      2  O   UNL     1      43.866   2.521  10.323  0.00  0.00    +0.000 OA
BRANCH   2   7
ATOM      3  C   UNL     1      46.437   2.030   7.780  0.00  0.00    +0.000 A 
ATOM      4  C   UNL     1      46.679   3.344   7.359  0.00  0.00    +0.000 A 
ATOM      5  C   UNL     1      45.988   4.409   7.932  0.00  0.00    +0.000 A 
ATOM      6  C   UNL     1      45.039   4.176   8.928  0.00  0.00    +0.000 A 
ATOM      7  C   UNL     1      44.779   2.875   9.362  0.00  0.00    +0.000 A 
ATOM      8  C   UNL     1      45.484   1.810   8.789  0.00  0.00    +0.000 A 
BRANCH   3   9
ATOM      9  C   UNL     1      47.155   0.876   7.126  0.00  0.00    +0.000 C 
BRANCH   9  10
ATOM     10  N   UNL     1      46.781  -0.404   7.718  0.00  0.00    +0.000 NA
ATOM     11  H   UNL     1      46.319  -0.974   7.012  0.00  0.00    +0.000 HD
ATOM     12  H   UNL     1      46.092  -0.235   8.450  0.00  0.00    +0.000 HD
ENDBRANCH   9  10
ENDBRANCH   3   9
ENDBRANCH   2   7
ENDBRANCH   1   2
BRANCH   1  13
ATOM     13  C   UNL     1      43.774   3.396  12.565  0.00  0.00    +0.000 C 
BRANCH  13  14
ATOM     14  C   UNL     1      44.909   4.325  12.891  0.00  0.00    +0.000 A 
ATOM     15  N   UNL     1      45.996   3.791  13.478  0.00  0.00    +0.000 NA
ATOM     16  C   UNL     1      47.002   4.633  13.793  0.00  0.00    +0.000 A 
ATOM     17  C   UNL     1      46.959   5.980  13.554  0.00  0.00    +0.000 A 
ATOM     18  C   UNL     1      45.801   6.429  12.963  0.00  0.00    +0.000 A 
ATOM     19  N   UNL     1      44.754   5.632  12.623  0.00  0.00    +0.000 NA
BRANCH  18  20
ATOM     20  C   UNL     1      45.655   7.889  12.667  0.00  0.00    +0.000 C 
ATOM     21  N   UNL     1      46.172   8.739  13.606  0.00  0.00    +0.000 N 
ATOM     22  O   UNL     1      45.109   8.303  11.652  0.00  0.00    +0.000 OA
ATOM     23  H   UNL     1      46.607   8.366  14.442  0.00  0.00    +0.000 HD
ATOM     24  H   UNL     1      46.096   9.736  13.471  0.00  0.00    +0.000 HD
ENDBRANCH  18  20
ENDBRANCH  13  14
ENDBRANCH   1  13
TORSDOF 7
ENDMDL
MODEL 2
REMARK VINA RESULT:    -7.720      1.689      2.451
REMARK INTER + INTRA:         -11.306
REMARK INTER:                 -10.644
REMARK INTRA:                  -0.661
REMARK UNBOUND:                -0.653
REMARK  Name = 
REMARK  7 active torsions:
REMARK  status: ('A' for Active; 'I' for Inactive)
REMARK    1  A    between atoms: N_1  and  C_2
REMARK    2  A    between atoms: C_2  and  C_3
REMARK    3  A    between atoms: C_7  and  O_8
REMARK    4  A    between atoms: O_8  and  C_9
REMARK    5  A    between atoms: C_9  and  C_10
REMARK    6  A    between atoms: C_10  and  C_11
REMARK    7  A    between atoms: C_15  and  C_16
REMARK                            x       y       z     vdW  Elec       q    Type
REMARK                         _______ _______ _______ _____ _____    ______ ____
ROOT
ATOM      1  C   UNL     1      43.401   3.962  10.680  0.00  0.00    +0.000 C 
ENDROOT
BRANCH   1   2
ATOM      2  O   UNL     1      44.225   2.852  10.303  0.00  0.00    +0.000 OA
BRANCH   2   7
ATOM      3  C   UNL     1      46.572   1.982   7.647  0.00  0.00    +0.000 A 
ATOM      4  C   UNL     1      46.876   3.239   7.109  0.00  0.00    +0.000 A 
ATOM      5  C   UNL     1      46.304   4.393   7.640  0.00  0.00    +0.000 A 
ATOM      6  C   UNL     1      45.412   4.306   8.710  0.00  0.00    +0.000 A 
ATOM      7  C   UNL     1      45.092   3.064   9.260  0.00  0.00    +0.000 A 
ATOM      8  C   UNL     1      45.678   1.910   8.729  0.00  0.00    +0.000 A 
BRANCH   3   9
ATOM      9  C   UNL     1      47.160   0.732   7.041  0.00  0.00    +0.000 C 
BRANCH   9  10
ATOM     10  N   UNL     1      46.781  -0.464   7.786  0.00  0.00    +0.000 NA
ATOM     11  H   UNL     1      46.025  -0.231   8.427  0.00  0.00    +0.000 HD
ATOM     12  H   UNL     1      47.570  -0.752   8.363  0.00  0.00    +0.000 HD
ENDBRANCH   9  10
ENDBRANCH   3   9
ENDBRANCH   2   7
ENDBRANCH   1   2
BRANCH   1  13
ATOM     13  C   UNL     1      43.425   4.111  12.194  0.00  0.00    +0.000 C 
BRANCH  13  14
ATOM     14  C   UNL     1      44.745   4.672  12.639  0.00  0.00    +0.000 A 
ATOM     15  N   UNL     1      45.255   5.695  11.926  0.00  0.00    +0.000 NA
ATOM     16  C   UNL     1      46.453   6.178  12.313  0.00  0.00    +0.000 A 
ATOM     17  C   UNL     1      47.162   5.676  13.372  0.00  0.00    +0.000 A 
ATOM     18  C   UNL     1      46.563   4.625  14.027  0.00  0.00    +0.000 A 
ATOM     19  N   UNL     1      45.359   4.094  13.685  0.00  0.00    +0.000 NA
BRANCH  18  20
ATOM     20  C   UNL     1      47.262   4.003  15.195  0.00  0.00    +0.000 C 
ATOM     21  N   UNL     1      47.194   4.704  16.368  0.00  0.00    +0.000 N 
ATOM     22  O   UNL     1      47.859   2.938  15.113  0.00  0.00    +0.000 OA
ATOM     23  H   UNL     1      46.703   5.590  16.401  0.00  0.00    +0.000 HD
ATOM     24  H   UNL     1      47.655   4.344  17.190  0.00  0.00    +0.000 HD
ENDBRANCH  18  20
ENDBRANCH  13  14
ENDBRANCH   1  13
TORSDOF 7
ENDMDL
MODEL 3
REMARK VINA RESULT:    -7.359      1.976      2.891
REMARK INTER + INTRA:         -10.807
REMARK INTER:                 -10.213
REMARK INTRA:                  -0.595
REMARK UNBOUND:                -0.653
REMARK  Name = 
REMARK  7 active torsions:
REMARK  status: ('A' for Active; 'I' for Inactive)
REMARK    1  A    between atoms: N_1  and  C_2
REMARK    2  A    between atoms: C_2  and  C_3
REMARK    3  A    between atoms: C_7  and  O_8
REMARK    4  A    between atoms: O_8  and  C_9
REMARK    5  A    between atoms: C_9  and  C_10
REMARK    6  A    between atoms: C_10  and  C_11
REMARK    7  A    between atoms: C_15  and  C_16
REMARK                            x       y       z     vdW  Elec       q    Type
REMARK                         _______ _______ _______ _____ _____    ______ ____
ROOT
ATOM      1  C   UNL     1      43.695   4.666  10.459  0.00  0.00    +0.000 C 
ENDROOT
BRANCH   1   2
ATOM      2  O   UNL     1      44.506   4.798   9.285  0.00  0.00    +0.000 OA
BRANCH   2   7
ATOM      3  C   UNL     1      46.860   2.742   7.401  0.00  0.00    +0.000 A 
ATOM      4  C   UNL     1      46.444   1.448   7.737  0.00  0.00    +0.000 A 
ATOM      5  C   UNL     1      45.361   1.252   8.592  0.00  0.00    +0.000 A 
ATOM      6  C   UNL     1      44.685   2.348   9.131  0.00  0.00    +0.000 A 
ATOM      7  C   UNL     1      45.084   3.647   8.813  0.00  0.00    +0.000 A 
ATOM      8  C   UNL     1      46.166   3.836   7.944  0.00  0.00    +0.000 A 
BRANCH   3   9
ATOM      9  C   UNL     1      48.059   2.949   6.510  0.00  0.00    +0.000 C 
BRANCH   9  10
ATOM     10  N   UNL     1      48.504   1.703   5.896  0.00  0.00    +0.000 NA
ATOM     11  H   UNL     1      49.219   1.279   6.485  0.00  0.00    +0.000 HD
ATOM     12  H   UNL     1      48.953   1.920   5.007  0.00  0.00    +0.000 HD
ENDBRANCH   9  10
ENDBRANCH   3   9
ENDBRANCH   2   7
ENDBRANCH   1   2
BRANCH   1  13
ATOM     13  C   UNL     1      43.809   5.936  11.290  0.00  0.00    +0.000 C 
BRANCH  13  14
ATOM     14  C   UNL     1      45.169   6.021  11.923  0.00  0.00    +0.000 A 
ATOM     15  N   UNL     1      46.020   6.945  11.438  0.00  0.00    +0.000 NA
ATOM     16  C   UNL     1      47.250   7.000  11.991  0.00  0.00    +0.000 A 
ATOM     17  C   UNL     1      47.661   6.166  12.996  0.00  0.00    +0.000 A 
ATOM     18  C   UNL     1      46.724   5.249  13.412  0.00  0.00    +0.000 A 
ATOM     19  N   UNL     1      45.471   5.144  12.895  0.00  0.00    +0.000 NA
BRANCH  18  20
ATOM     20  C   UNL     1      47.081   4.288  14.502  0.00  0.00    +0.000 C 
ATOM     21  N   UNL     1      47.078   4.803  15.770  0.00  0.00    +0.000 N 
ATOM     22  O   UNL     1      47.360   3.117  14.281  0.00  0.00    +0.000 OA
ATOM     23  H   UNL     1      46.855   5.780  15.919  0.00  0.00    +0.000 HD
ATOM     24  H   UNL     1      47.322   4.209  16.549  0.00  0.00    +0.000 HD
ENDBRANCH  18  20
ENDBRANCH  13  14
ENDBRANCH   1  13
TORSDOF 7
ENDMDL
MODEL 4
REMARK VINA RESULT:    -7.016      1.965      6.591
REMARK INTER + INTRA:         -10.335
REMARK INTER:                  -9.650
REMARK INTRA:                  -0.685
REMARK UNBOUND:                -0.653
REMARK  Name = 
REMARK  7 active torsions:
REMARK  status: ('A' for Active; 'I' for Inactive)
REMARK    1  A    between atoms: N_1  and  C_2
REMARK    2  A    between atoms: C_2  and  C_3
REMARK    3  A    between atoms: C_7  and  O_8
REMARK    4  A    between atoms: O_8  and  C_9
REMARK    5  A    between atoms: C_9  and  C_10
REMARK    6  A    between atoms: C_10  and  C_11
REMARK    7  A    between atoms: C_15  and  C_16
REMARK                            x       y       z     vdW  Elec       q    Type
REMARK                         _______ _______ _______ _____ _____    ______ ____
ROOT
ATOM      1  C   UNL     1      43.386   4.166  11.801  0.00  0.00    +0.000 C 
ENDROOT
BRANCH   1   2
ATOM      2  O   UNL     1      44.086   4.280  13.046  0.00  0.00    +0.000 OA
BRANCH   2   7
ATOM      3  C   UNL     1      45.857   7.425  12.509  0.00  0.00    +0.000 A 
ATOM      4  C   UNL     1      47.121   7.137  13.038  0.00  0.00    +0.000 A 
ATOM      5  C   UNL     1      47.396   5.879  13.571  0.00  0.00    +0.000 A 
ATOM      6  C   UNL     1      46.407   4.895  13.591  0.00  0.00    +0.000 A 
ATOM      7  C   UNL     1      45.138   5.160  13.073  0.00  0.00    +0.000 A 
ATOM      8  C   UNL     1      44.873   6.422  12.529  0.00  0.00    +0.000 A 
BRANCH   3   9
ATOM      9  C   UNL     1      45.551   8.801  11.972  0.00  0.00    +0.000 C 
BRANCH   9  10
ATOM     10  N   UNL     1      44.717   9.571  12.889  0.00  0.00    +0.000 NA
ATOM     11  H   UNL     1      45.278  10.313  13.305  0.00  0.00    +0.000 HD
ATOM     12  H   UNL     1      44.429   8.963  13.655  0.00  0.00    +0.000 HD
ENDBRANCH   9  10
ENDBRANCH   3   9
ENDBRANCH   2   7
ENDBRANCH   1   2
BRANCH   1  13
ATOM     13  C   UNL     1      43.729   2.832  11.154  0.00  0.00    +0.000 C 
BRANCH  13  14
ATOM     14  C   UNL     1      44.603   3.049   9.952  0.00  0.00    +0.000 A 
ATOM     15  N   UNL     1      44.630   4.286   9.421  0.00  0.00    +0.000 NA
ATOM     16  C   UNL     1      45.396   4.470   8.326  0.00  0.00    +0.000 A 
ATOM     17  C   UNL     1      46.124   3.468   7.740  0.00  0.00    +0.000 A 
ATOM     18  C   UNL     1      46.020   2.240   8.349  0.00  0.00    +0.000 A 
ATOM     19  N   UNL     1      45.265   1.992   9.452  0.00  0.00    +0.000 NA
BRANCH  18  20
ATOM     20  C   UNL     1      46.774   1.080   7.779  0.00  0.00    +0.000 C 
ATOM     21  N   UNL     1      47.831   1.400   6.972  0.00  0.00    +0.000 N 
ATOM     22  O   UNL     1      46.469  -0.082   8.014  0.00  0.00    +0.000 OA
ATOM     23  H   UNL     1      48.051   2.371   6.786  0.00  0.00    +0.000 HD
ATOM     24  H   UNL     1      48.374   0.662   6.546  0.00  0.00    +0.000 HD
ENDBRANCH  18  20
ENDBRANCH  13  14
ENDBRANCH   1  13
TORSDOF 7
ENDMDL
MODEL 5
REMARK VINA RESULT:    -6.986      2.046      2.527
REMARK INTER + INTRA:         -10.294
REMARK INTER:                  -9.653
REMARK INTRA:                  -0.640
REMARK UNBOUND:                -0.653
REMARK  Name = 
REMARK  7 active torsions:
REMARK  status: ('A' for Active; 'I' for Inactive)
REMARK    1  A    between atoms: N_1  and  C_2
REMARK    2  A    between atoms: C_2  and  C_3
REMARK    3  A    between atoms: C_7  and  O_8
REMARK    4  A    between atoms: O_8  and  C_9
REMARK    5  A    between atoms: C_9  and  C_10
REMARK    6  A    between atoms: C_10  and  C_11
REMARK    7  A    between atoms: C_15  and  C_16
REMARK                            x       y       z     vdW  Elec       q    Type
REMARK                         _______ _______ _______ _____ _____    ______ ____
ROOT
ATOM      1  C   UNL     1      43.995   4.552  10.232  0.00  0.00    +0.000 C 
ENDROOT
BRANCH   1   2
ATOM      2  O   UNL     1      44.253   4.453   8.826  0.00  0.00    +0.000 OA
BRANCH   2   7
ATOM      3  C   UNL     1      46.604   2.582   6.754  0.00  0.00    +0.000 A 
ATOM      4  C   UNL     1      46.641   1.345   7.409  0.00  0.00    +0.000 A 
ATOM      5  C   UNL     1      45.869   1.122   8.547  0.00  0.00    +0.000 A 
ATOM      6  C   UNL     1      45.056   2.137   9.053  0.00  0.00    +0.000 A 
ATOM      7  C   UNL     1      45.005   3.380   8.419  0.00  0.00    +0.000 A 
ATOM      8  C   UNL     1      45.774   3.593   7.270  0.00  0.00    +0.000 A 
BRANCH   3   9
ATOM      9  C   UNL     1      47.474   2.834   5.548  0.00  0.00    +0.000 C 
BRANCH   9  10
ATOM     10  N   UNL     1      48.521   1.827   5.412  0.00  0.00    +0.000 NA
ATOM     11  H   UNL     1      49.154   1.897   6.207  0.00  0.00    +0.000 HD
ATOM     12  H   UNL     1      49.073   2.042   4.583  0.00  0.00    +0.000 HD
ENDBRANCH   9  10
ENDBRANCH   3   9
ENDBRANCH   2   7
ENDBRANCH   1   2
BRANCH   1  13
ATOM     13  C   UNL     1      44.850   5.664  10.821  0.00  0.00    +0.000 C 
BRANCH  13  14
ATOM     14  C   UNL     1      45.673   5.137  11.962  0.00  0.00    +0.000 A 
ATOM     15  N   UNL     1      45.540   3.833  12.270  0.00  0.00    +0.000 NA
ATOM     16  C   UNL     1      46.260   3.370  13.312  0.00  0.00    +0.000 A 
ATOM     17  C   UNL     1      47.097   4.157  14.058  0.00  0.00    +0.000 A 
ATOM     18  C   UNL     1      47.153   5.475  13.672  0.00  0.00    +0.000 A 
ATOM     19  N   UNL     1      46.452   6.001  12.633  0.00  0.00    +0.000 NA
BRANCH  18  20
ATOM     20  C   UNL     1      48.035   6.417  14.430  0.00  0.00    +0.000 C 
ATOM     21  N   UNL     1      47.694   7.740  14.354  0.00  0.00    +0.000 N 
ATOM     22  O   UNL     1      49.001   6.036  15.078  0.00  0.00    +0.000 OA
ATOM     23  H   UNL     1      46.895   8.026  13.799  0.00  0.00    +0.000 HD
ATOM     24  H   UNL     1      48.256   8.428  14.834  0.00  0.00    +0.000 HD
ENDBRANCH  18  20
ENDBRANCH  13  14
ENDBRANCH   1  13
TORSDOF 7
ENDMDL
MODEL 6
REMARK VINA RESULT:    -6.708      2.208      6.491
REMARK INTER + INTRA:          -9.910
REMARK INTER:                  -9.292
REMARK INTRA:                  -0.618
REMARK UNBOUND:                -0.653
REMARK  Name = 
REMARK  7 active torsions:
REMARK  status: ('A' for Active; 'I' for Inactive)
REMARK    1  A    between atoms: N_1  and  C_2
REMARK    2  A    between atoms: C_2  and  C_3
REMARK    3  A    between atoms: C_7  and  O_8
REMARK    4  A    between atoms: O_8  and  C_9
REMARK    5  A    between atoms: C_9  and  C_10
REMARK    6  A    between atoms: C_10  and  C_11
REMARK    7  A    between atoms: C_15  and  C_16
REMARK                            x       y       z     vdW  Elec       q    Type
REMARK                         _______ _______ _______ _____ _____    ______ ____
ROOT
ATOM      1  C   UNL     1      43.978   3.690  12.037  0.00  0.00    +0.000 C 
ENDROOT
BRANCH   1   2
ATOM      2  O   UNL     1      45.375   3.858  12.306  0.00  0.00    +0.000 OA
BRANCH   2   7
ATOM      3  C   UNL     1      47.410   6.610  13.573  0.00  0.00    +0.000 A 
ATOM      4  C   UNL     1      46.908   7.697  12.847  0.00  0.00    +0.000 A 
ATOM      5  C   UNL     1      45.873   7.519  11.930  0.00  0.00    +0.000 A 
ATOM      6  C   UNL     1      45.332   6.249  11.721  0.00  0.00    +0.000 A 
ATOM      7  C   UNL     1      45.819   5.151  12.431  0.00  0.00    +0.000 A 
ATOM      8  C   UNL     1      46.851   5.339  13.358  0.00  0.00    +0.000 A 
BRANCH   3   9
ATOM      9  C   UNL     1      48.559   6.800  14.532  0.00  0.00    +0.000 C 
BRANCH   9  10
ATOM     10  N   UNL     1      49.831   6.954  13.834  0.00  0.00    +0.000 NA
ATOM     11  H   UNL     1      50.335   6.070  13.864  0.00  0.00    +0.000 HD
ATOM     12  H   UNL     1      50.401   7.629  14.342  0.00  0.00    +0.000 HD
ENDBRANCH   9  10
ENDBRANCH   3   9
ENDBRANCH   2   7
ENDBRANCH   1   2
BRANCH   1  13
ATOM     13  C   UNL     1      43.792   2.545  11.053  0.00  0.00    +0.000 C 
BRANCH  13  14
ATOM     14  C   UNL     1      44.571   2.810   9.797  0.00  0.00    +0.000 A 
ATOM     15  N   UNL     1      44.374   3.992   9.184  0.00  0.00    +0.000 NA
ATOM     16  C   UNL     1      45.056   4.216   8.042  0.00  0.00    +0.000 A 
ATOM     17  C   UNL     1      45.915   3.304   7.487  0.00  0.00    +0.000 A 
ATOM     18  C   UNL     1      46.037   2.122   8.181  0.00  0.00    +0.000 A 
ATOM     19  N   UNL     1      45.377   1.839   9.335  0.00  0.00    +0.000 NA
BRANCH  18  20
ATOM     20  C   UNL     1      46.947   1.059   7.651  0.00  0.00    +0.000 C 
ATOM     21  N   UNL     1      48.019   1.505   6.927  0.00  0.00    +0.000 N 
ATOM     22  O   UNL     1      46.751  -0.132   7.848  0.00  0.00    +0.000 OA
ATOM     23  H   UNL     1      48.148   2.498   6.771  0.00  0.00    +0.000 HD
ATOM     24  H   UNL     1      48.665   0.837   6.532  0.00  0.00    +0.000 HD
ENDBRANCH  18  20
ENDBRANCH  13  14
ENDBRANCH   1  13
TORSDOF 7
ENDMDL
MODEL 7
REMARK VINA RESULT:    -6.625      2.448      6.429
REMARK INTER + INTRA:          -9.795
REMARK INTER:                  -9.227
REMARK INTRA:                  -0.568
REMARK UNBOUND:                -0.653
REMARK  Name = 
REMARK  7 active torsions:
REMARK  status: ('A' for Active; 'I' for Inactive)
REMARK    1  A    between atoms: N_1  and  C_2
REMARK    2  A    between atoms: C_2  and  C_3
REMARK    3  A    between atoms: C_7  and  O_8
REMARK    4  A    between atoms: O_8  and  C_9
REMARK    5  A    between atoms: C_9  and  C_10
REMARK    6  A    between atoms: C_10  and  C_11
REMARK    7  A    between atoms: C_15  and  C_16
REMARK                            x       y       z     vdW  Elec       q    Type
REMARK                         _______ _______ _______ _____ _____    ______ ____
ROOT
ATOM      1  C   UNL     1      44.144   5.029  10.702  0.00  0.00    +0.000 C 
ENDROOT
BRANCH   1   2
ATOM      2  O   UNL     1      44.391   6.200  11.491  0.00  0.00    +0.000 OA
BRANCH   2   7
ATOM      3  C   UNL     1      46.950   5.373  13.957  0.00  0.00    +0.000 A 
ATOM      4  C   UNL     1      48.011   6.195  13.558  0.00  0.00    +0.000 A 
ATOM      5  C   UNL     1      47.874   7.044  12.461  0.00  0.00    +0.000 A 
ATOM      6  C   UNL     1      46.678   7.076  11.743  0.00  0.00    +0.000 A 
ATOM      7  C   UNL     1      45.608   6.262  12.121  0.00  0.00    +0.000 A 
ATOM      8  C   UNL     1      45.749   5.420  13.230  0.00  0.00    +0.000 A 
BRANCH   3   9
ATOM      9  C   UNL     1      47.117   4.423  15.117  0.00  0.00    +0.000 C 
BRANCH   9  10
ATOM     10  N   UNL     1      47.570   3.106  14.683  0.00  0.00    +0.000 NA
ATOM     11  H   UNL     1      48.134   2.689  15.421  0.00  0.00    +0.000 HD
ATOM     12  H   UNL     1      48.186   3.222  13.879  0.00  0.00    +0.000 HD
ENDBRANCH   9  10
ENDBRANCH   3   9
ENDBRANCH   2   7
ENDBRANCH   1   2
BRANCH   1  13
ATOM     13  C   UNL     1      44.883   5.153   9.377  0.00  0.00    +0.000 C 
BRANCH  13  14
ATOM     14  C   UNL     1      45.274   3.793   8.873  0.00  0.00    +0.000 A 
ATOM     15  N   UNL     1      44.711   2.726   9.470  0.00  0.00    +0.000 NA
ATOM     16  C   UNL     1      45.085   1.506   9.032  0.00  0.00    +0.000 A 
ATOM     17  C   UNL     1      46.003   1.314   8.034  0.00  0.00    +0.000 A 
ATOM     18  C   UNL     1      46.531   2.466   7.498  0.00  0.00    +0.000 A 
ATOM     19  N   UNL     1      46.194   3.721   7.897  0.00  0.00    +0.000 NA
BRANCH  18  20
ATOM     20  C   UNL     1      47.547   2.360   6.405  0.00  0.00    +0.000 C 
ATOM     21  N   UNL     1      47.448   3.294   5.411  0.00  0.00    +0.000 N 
ATOM     22  O   UNL     1      48.414   1.496   6.396  0.00  0.00    +0.000 OA
ATOM     23  H   UNL     1      46.711   3.989   5.441  0.00  0.00    +0.000 HD
ATOM     24  H   UNL     1      48.097   3.269   4.638  0.00  0.00    +0.000 HD
ENDBRANCH  18  20
ENDBRANCH  13  14
ENDBRANCH   1  13
TORSDOF 7
ENDMDL
MODEL 8
REMARK VINA RESULT:    -6.391      5.034      6.758
REMARK INTER + INTRA:          -9.473
REMARK INTER:                  -9.070
REMARK INTRA:                  -0.403
REMARK UNBOUND:                -0.653
REMARK  Name = 
REMARK  7 active torsions:
REMARK  status: ('A' for Active; 'I' for Inactive)
REMARK    1  A    between atoms: N_1  and  C_2
REMARK    2  A    between atoms: C_2  and  C_3
REMARK    3  A    between atoms: C_7  and  O_8
REMARK    4  A    between atoms: O_8  and  C_9
REMARK    5  A    between atoms: C_9  and  C_10
REMARK    6  A    between atoms: C_10  and  C_11
REMARK    7  A    between atoms: C_15  and  C_16
REMARK                            x       y       z     vdW  Elec       q    Type
REMARK                         _______ _______ _______ _____ _____    ______ ____
ROOT
ATOM      1  C   UNL     1      47.374   4.189  15.525  0.00  0.00    +0.000 C 
ENDROOT
BRANCH   1   2
ATOM      2  O   UNL     1      47.117   3.412  14.349  0.00  0.00    +0.000 OA
BRANCH   2   7
ATOM      3  C   UNL     1      44.907   3.870  11.482  0.00  0.00    +0.000 A 
ATOM      4  C   UNL     1      45.158   5.203  11.135  0.00  0.00    +0.000 A 
ATOM      5  C   UNL     1      46.081   5.960  11.855  0.00  0.00    +0.000 A 
ATOM      6  C   UNL     1      46.758   5.396  12.938  0.00  0.00    +0.000 A 
ATOM      7  C   UNL     1      46.521   4.070  13.303  0.00  0.00    +0.000 A 
ATOM      8  C   UNL     1      45.601   3.313  12.569  0.00  0.00    +0.000 A 
BRANCH   3   9
ATOM      9  C   UNL     1      43.875   3.068  10.728  0.00  0.00    +0.000 C 
BRANCH   9  10
ATOM     10  N   UNL     1      43.058   2.254  11.621  0.00  0.00    +0.000 NA
ATOM     11  H   UNL     1      42.734   1.431  11.116  0.00  0.00    +0.000 HD
ATOM     12  H   UNL     1      42.226   2.784  11.875  0.00  0.00    +0.000 HD
ENDBRANCH   9  10
ENDBRANCH   3   9
ENDBRANCH   2   7
ENDBRANCH   1   2
BRANCH   1  13
ATOM     13  C   UNL     1      47.778   3.260  16.661  0.00  0.00    +0.000 C 
BRANCH  13  14
ATOM     14  C   UNL     1      49.215   3.492  17.033  0.00  0.00    +0.000 A 
ATOM     15  N   UNL     1      49.627   4.768  17.149  0.00  0.00    +0.000 NA
ATOM     16  C   UNL     1      50.924   4.972  17.457  0.00  0.00    +0.000 A 
ATOM     17  C   UNL     1      51.822   3.955  17.644  0.00  0.00    +0.000 A 
ATOM     18  C   UNL     1      51.307   2.688  17.490  0.00  0.00    +0.000 A 
ATOM     19  N   UNL     1      50.011   2.420  17.180  0.00  0.00    +0.000 NA
BRANCH  18  20
ATOM     20  C   UNL     1      52.212   1.510  17.668  0.00  0.00    +0.000 C 
ATOM     21  N   UNL     1      51.597   0.337  18.014  0.00  0.00    +0.000 N 
ATOM     22  O   UNL     1      53.424   1.583  17.516  0.00  0.00    +0.000 OA
ATOM     23  H   UNL     1      50.593   0.312  18.144  0.00  0.00    +0.000 HD
ATOM     24  H   UNL     1      52.154  -0.492  18.160  0.00  0.00    +0.000 HD
ENDBRANCH  18  20
ENDBRANCH  13  14
ENDBRANCH   1  13
TORSDOF 7
ENDMDL
MODEL 9
REMARK VINA RESULT:    -6.375      3.009      4.310
REMARK INTER + INTRA:          -9.450
REMARK INTER:                  -8.970
REMARK INTRA:                  -0.480
REMARK UNBOUND:                -0.653
REMARK  Name = 
REMARK  7 active torsions:
REMARK  status: ('A' for Active; 'I' for Inactive)
REMARK    1  A    between atoms: N_1  and  C_2
REMARK    2  A    between atoms: C_2  and  C_3
REMARK    3  A    between atoms: C_7  and  O_8
REMARK    4  A    between atoms: O_8  and  C_9
REMARK    5  A    between atoms: C_9  and  C_10
REMARK    6  A    between atoms: C_10  and  C_11
REMARK    7  A    between atoms: C_15  and  C_16
REMARK                            x       y       z     vdW  Elec       q    Type
REMARK                         _______ _______ _______ _____ _____    ______ ____
ROOT
ATOM      1  C   UNL     1      45.698   6.183  12.790  0.00  0.00    +0.000 C 
ENDROOT
BRANCH   1   2
ATOM      2  O   UNL     1      45.246   6.244  11.432  0.00  0.00    +0.000 OA
BRANCH   2   7
ATOM      3  C   UNL     1      45.176   3.685   8.831  0.00  0.00    +0.000 A 
ATOM      4  C   UNL     1      44.426   2.673   9.444  0.00  0.00    +0.000 A 
ATOM      5  C   UNL     1      43.927   2.844  10.734  0.00  0.00    +0.000 A 
ATOM      6  C   UNL     1      44.179   4.025  11.433  0.00  0.00    +0.000 A 
ATOM      7  C   UNL     1      44.926   5.046  10.844  0.00  0.00    +0.000 A 
ATOM      8  C   UNL     1      45.415   4.872   9.544  0.00  0.00    +0.000 A 
BRANCH   3   9
ATOM      9  C   UNL     1      45.751   3.478   7.452  0.00  0.00    +0.000 C 
BRANCH   9  10
ATOM     10  N   UNL     1      46.885   4.360   7.197  0.00  0.00    +0.000 NA
ATOM     11  H   UNL     1      47.691   3.796   6.933  0.00  0.00    +0.000 HD
ATOM     12  H   UNL     1      47.134   4.830   8.067  0.00  0.00    +0.000 HD
ENDBRANCH   9  10
ENDBRANCH   3   9
ENDBRANCH   2   7
ENDBRANCH   1   2
BRANCH   1  13
ATOM     13  C   UNL     1      47.061   5.508  12.834  0.00  0.00    +0.000 C 
BRANCH  13  14
ATOM     14  C   UNL     1      47.632   5.582  14.221  0.00  0.00    +0.000 A 
ATOM     15  N   UNL     1      48.542   6.544  14.466  0.00  0.00    +0.000 NA
ATOM     16  C   UNL     1      49.071   6.590  15.706  0.00  0.00    +0.000 A 
ATOM     17  C   UNL     1      48.736   5.711  16.701  0.00  0.00    +0.000 A 
ATOM     18  C   UNL     1      47.810   4.758  16.347  0.00  0.00    +0.000 A 
ATOM     19  N   UNL     1      47.241   4.659  15.116  0.00  0.00    +0.000 NA
BRANCH  18  20
ATOM     20  C   UNL     1      47.383   3.746  17.365  0.00  0.00    +0.000 C 
ATOM     21  N   UNL     1      48.185   3.642  18.469  0.00  0.00    +0.000 N 
ATOM     22  O   UNL     1      46.384   3.053  17.225  0.00  0.00    +0.000 OA
ATOM     23  H   UNL     1      49.013   4.222  18.550  0.00  0.00    +0.000 HD
ATOM     24  H   UNL     1      47.958   2.970  19.187  0.00  0.00    +0.000 HD
ENDBRANCH  18  20
ENDBRANCH  13  14
ENDBRANCH   1  13
TORSDOF 7
ENDMDL
