MODEL 1
REMARK VINA RESULT:    -7.076      0.000      0.000
REMARK INTER + INTRA:          -8.766
REMARK INTER:                  -8.317
REMARK INTRA:                  -0.449
REMARK UNBOUND:                -0.449
REMARK  Name = 
REMARK  6 active torsions:
REMARK  status: ('A' for Active; 'I' for Inactive)
REMARK    1  A    between atoms: C_1  and  C_2
REMARK    2  A    between atoms: C_2  and  C_3
REMARK    3  A    between atoms: C_2  and  C_4
REMARK    4  A    between atoms: C_2  and  C_5
REMARK    5  A    between atoms: N_7  and  C_8
REMARK    6  A    between atoms: C_8  and  C_9
REMARK                            x       y       z     vdW  Elec       q    Type
REMARK                         _______ _______ _______ _____ _____    ______ ____
ROOT
ATOM      1  C   UNL     1      46.001   5.854  11.539  0.00  0.00    +0.000 A 
ATOM      2  C   UNL     1      46.018   5.755  10.155  0.00  0.00    +0.000 A 
ATOM      3  N   UNL     1      45.217   4.720   9.758  0.00  0.00    +0.000 N 
ATOM      4  C   UNL     1      44.590   4.170  10.853  0.00  0.00    +0.000 A 
ATOM      5  C   UNL     1      43.648   3.146  10.941  0.00  0.00    +0.000 A 
ATOM      6  N   UNL     1      43.168   2.779  12.148  0.00  0.00    +0.000 NA
ATOM      7  C   UNL     1      43.632   3.406  13.245  0.00  0.00    +0.000 A 
ATOM      8  C   UNL     1      44.573   4.423  13.234  0.00  0.00    +0.000 A 
ATOM      9  C   UNL     1      45.072   4.841  11.987  0.00  0.00    +0.000 A 
ENDROOT
BRANCH   1  11
ATOM     10  C   UNL     1      45.902   8.063  12.733  0.00  0.00    +0.000 C 
ATOM     11  C   UNL     1      46.819   6.892  12.315  0.00  0.00    +0.000 C 
ATOM     12  C   UNL     1      47.947   7.445  11.413  0.00  0.00    +0.000 C 
ATOM     13  C   UNL     1      47.484   6.351  13.591  0.00  0.00    +0.000 C 
ENDBRANCH   1  11
BRANCH   3  14
ATOM     14  C   UNL     1      44.999   4.349   8.363  0.00  0.00    +0.000 C 
BRANCH  14  15
ATOM     15  C   UNL     1      45.882   3.217   7.912  0.00  0.00    +0.000 A 
ATOM     16  C   UNL     1      45.673   1.909   8.346  0.00  0.00    +0.000 A 
ATOM     17  N   UNL     1      46.511   0.887   8.048  0.00  0.00    +0.000 NA
ATOM     18  C   UNL     1      47.576   1.214   7.287  0.00  0.00    +0.000 A 
ATOM     19  C   UNL     1      47.791   2.505   6.838  0.00  0.00    +0.000 A 
ATOM     20  N   UNL     1      46.960   3.530   7.143  0.00  0.00    +0.000 NA
ENDBRANCH  14  15
ENDBRANCH   3  14
TORSDOF 3
ENDMDL
MODEL 2
REMARK VINA RESULT:    -6.895      1.540      2.144
REMARK INTER + INTRA:          -8.553
REMARK INTER:                  -8.137
REMARK INTRA:                  -0.417
REMARK UNBOUND:                -0.449
REMARK  Name = 
REMARK  6 active torsions:
REMARK  status: ('A' for Active; 'I' for Inactive)
REMARK    1  A    between atoms: C_1  and  C_2
REMARK    2  A    between atoms: C_2  and  C_3
REMARK    3  A    between atoms: C_2  and  C_4
REMARK    4  A    between atoms: C_2  and  C_5
REMARK    5  A    between atoms: N_7  and  C_8
REMARK    6  A    between atoms: C_8  and  C_9
REMARK                            x       y       z     vdW  Elec       q    Type
REMARK                         _______ _______ _______ _____ _____    ______ ____
ROOT
ATOM      1  C   UNL     1      46.180   7.079  12.135  0.00  0.00    +0.000 A 
ATOM      2  C   UNL     1      45.308   6.743  11.109  0.00  0.00    +0.000 A 
ATOM      3  N   UNL     1      45.100   5.392  11.107  0.00  0.00    +0.000 N 
ATOM      4  C   UNL     1      45.755   4.818  12.172  0.00  0.00    +0.000 A 
ATOM      5  C   UNL     1      45.787   3.495  12.612  0.00  0.00    +0.000 A 
ATOM      6  N   UNL     1      46.510   3.170  13.705  0.00  0.00    +0.000 NA
ATOM      7  C   UNL     1      47.201   4.139  14.334  0.00  0.00    +0.000 A 
ATOM      8  C   UNL     1      47.221   5.471  13.949  0.00  0.00    +0.000 A 
ATOM      9  C   UNL     1      46.458   5.841  12.826  0.00  0.00    +0.000 A 
ENDROOT
BRANCH   1  11
ATOM     10  C   UNL     1      45.623   9.509  11.816  0.00  0.00    +0.000 C 
ATOM     11  C   UNL     1      46.651   8.513  12.398  0.00  0.00    +0.000 C 
ATOM     12  C   UNL     1      48.014   8.748  11.707  0.00  0.00    +0.000 C 
ATOM     13  C   UNL     1      46.833   8.858  13.886  0.00  0.00    +0.000 C 
ENDBRANCH   1  11
BRANCH   3  14
ATOM     14  C   UNL     1      44.222   4.706  10.163  0.00  0.00    +0.000 C 
BRANCH  14  15
ATOM     15  C   UNL     1      44.973   3.863   9.168  0.00  0.00    +0.000 A 
ATOM     16  C   UNL     1      45.025   2.474   9.277  0.00  0.00    +0.000 A 
ATOM     17  N   UNL     1      45.779   1.694   8.466  0.00  0.00    +0.000 NA
ATOM     18  C   UNL     1      46.486   2.353   7.524  0.00  0.00    +0.000 A 
ATOM     19  C   UNL     1      46.437   3.729   7.395  0.00  0.00    +0.000 A 
ATOM     20  N   UNL     1      45.691   4.511   8.211  0.00  0.00    +0.000 NA
ENDBRANCH  14  15
ENDBRANCH   3  14
TORSDOF 3
ENDMDL
MODEL 3
REMARK VINA RESULT:    -6.116      2.019      5.284
REMARK INTER + INTRA:          -7.637
REMARK INTER:                  -7.042
REMARK INTRA:                  -0.594
REMARK UNBOUND:                -0.449
REMARK  Name = 
REMARK  6 active torsions:
REMARK  status: ('A' for Active; 'I' for Inactive)
REMARK    1  A    between atoms: C_1  and  C_2
REMARK    2  A    between atoms: C_2  and  C_3
REMARK    3  A    between atoms: C_2  and  C_4
REMARK    4  A    between atoms: C_2  and  C_5
REMARK    5  A    between atoms: N_7  and  C_8
REMARK    6  A    between atoms: C_8  and  C_9
REMARK                            x       y       z     vdW  Elec       q    Type
REMARK                         _______ _______ _______ _____ _____    ______ ____
ROOT
ATOM      1  C   UNL     1      45.377   4.221   9.539  0.00  0.00    +0.000 A 
ATOM      2  C   UNL     1      45.920   5.475   9.776  0.00  0.00    +0.000 A 
ATOM      3  N   UNL     1      45.509   5.931  10.998  0.00  0.00    +0.000 N 
ATOM      4  C   UNL     1      44.761   4.963  11.628  0.00  0.00    +0.000 A 
ATOM      5  C   UNL     1      44.186   4.944  12.898  0.00  0.00    +0.000 A 
ATOM      6  N   UNL     1      43.490   3.860  13.301  0.00  0.00    +0.000 NA
ATOM      7  C   UNL     1      43.354   2.825  12.451  0.00  0.00    +0.000 A 
ATOM      8  C   UNL     1      43.891   2.779  11.174  0.00  0.00    +0.000 A 
ATOM      9  C   UNL     1      44.641   3.886  10.736  0.00  0.00    +0.000 A 
ENDROOT
BRANCH   1  11
ATOM     10  C   UNL     1      46.722   4.126   7.417  0.00  0.00    +0.000 C 
ATOM     11  C   UNL     1      45.612   3.437   8.243  0.00  0.00    +0.000 C 
ATOM     12  C   UNL     1      44.313   3.415   7.405  0.00  0.00    +0.000 C 
ATOM     13  C   UNL     1      46.039   1.975   8.454  0.00  0.00    +0.000 C 
ENDBRANCH   1  11
BRANCH   3  14
ATOM     14  C   UNL     1      45.910   7.216  11.564  0.00  0.00    +0.000 C 
BRANCH  14  15
ATOM     15  C   UNL     1      47.287   7.188  12.169  0.00  0.00    +0.000 A 
ATOM     16  C   UNL     1      47.545   6.527  13.370  0.00  0.00    +0.000 A 
ATOM     17  N   UNL     1      48.744   6.573  13.998  0.00  0.00    +0.000 NA
ATOM     18  C   UNL     1      49.694   7.304  13.379  0.00  0.00    +0.000 A 
ATOM     19  C   UNL     1      49.458   7.956  12.182  0.00  0.00    +0.000 A 
ATOM     20  N   UNL     1      48.257   7.919  11.558  0.00  0.00    +0.000 NA
ENDBRANCH  14  15
ENDBRANCH   3  14
TORSDOF 3
ENDMDL
MODEL 4
REMARK VINA RESULT:    -5.695      3.116      5.258
REMARK INTER + INTRA:          -7.142
REMARK INTER:                  -6.504
REMARK INTRA:                  -0.639
REMARK UNBOUND:                -0.449
REMARK  Name = 
REMARK  6 active torsions:
REMARK  status: ('A' for Active; 'I' for Inactive)
REMARK    1  A    between atoms: C_1  and  C_2
REMARK    2  A    between atoms: C_2  and  C_3
REMARK    3  A    between atoms: C_2  and  C_4
REMARK    4  A    between atoms: C_2  and  C_5
REMARK    5  A    between atoms: N_7  and  C_8
REMARK    6  A    between atoms: C_8  and  C_9
REMARK                            x       y       z     vdW  Elec       q    Type
REMARK                         _______ _______ _______ _____ _____    ______ ____
ROOT
ATOM      1  C   UNL     1      48.227   6.675  13.796  0.00  0.00    +0.000 A 
ATOM      2  C   UNL     1      47.498   5.812  12.990  0.00  0.00    +0.000 A 
ATOM      3  N   UNL     1      47.096   4.729  13.722  0.00  0.00    +0.000 N 
ATOM      4  C   UNL     1      47.473   4.889  15.036  0.00  0.00    +0.000 A 
ATOM      5  C   UNL     1      47.237   4.087  16.152  0.00  0.00    +0.000 A 
ATOM      6  N   UNL     1      47.712   4.462  17.359  0.00  0.00    +0.000 NA
ATOM      7  C   UNL     1      48.424   5.602  17.447  0.00  0.00    +0.000 A 
ATOM      8  C   UNL     1      48.704   6.441  16.381  0.00  0.00    +0.000 A 
ATOM      9  C   UNL     1      48.201   6.086  15.116  0.00  0.00    +0.000 A 
ENDROOT
BRANCH   1  11
ATOM     10  C   UNL     1      48.145   9.183  13.931  0.00  0.00    +0.000 C 
ATOM     11  C   UNL     1      48.854   7.975  13.280  0.00  0.00    +0.000 C 
ATOM     12  C   UNL     1      48.677   8.064  11.746  0.00  0.00    +0.000 C 
ATOM     13  C   UNL     1      50.358   8.113  13.571  0.00  0.00    +0.000 C 
ENDBRANCH   1  11
BRANCH   3  14
ATOM     14  C   UNL     1      46.296   3.634  13.182  0.00  0.00    +0.000 C 
BRANCH  14  15
ATOM     15  C   UNL     1      44.963   4.087  12.650  0.00  0.00    +0.000 A 
ATOM     16  C   UNL     1      44.677   4.073  11.285  0.00  0.00    +0.000 A 
ATOM     17  N   UNL     1      43.532   4.575  10.763  0.00  0.00    +0.000 NA
ATOM     18  C   UNL     1      42.665   5.091  11.658  0.00  0.00    +0.000 A 
ATOM     19  C   UNL     1      42.928   5.103  13.016  0.00  0.00    +0.000 A 
ATOM     20  N   UNL     1      44.077   4.611  13.539  0.00  0.00    +0.000 NA
ENDBRANCH  14  15
ENDBRANCH   3  14
TORSDOF 3
ENDMDL
MODEL 5
REMARK VINA RESULT:    -5.517      2.048      4.059
REMARK INTER + INTRA:          -6.933
REMARK INTER:                  -6.592
REMARK INTRA:                  -0.341
REMARK UNBOUND:                -0.449
REMARK  Name = 
REMARK  6 active torsions:
REMARK  status: ('A' for Active; 'I' for Inactive)
REMARK    1  A    between atoms: C_1  and  C_2
REMARK    2  A    between atoms: C_2  and  C_3
REMARK    3  A    between atoms: C_2  and  C_4
REMARK    4  A    between atoms: C_2  and  C_5
REMARK    5  A    between atoms: N_7  and  C_8
REMARK    6  A    between atoms: C_8  and  C_9
REMARK                            x       y       z     vdW  Elec       q    Type
REMARK                         _______ _______ _______ _____ _____    ______ ____
ROOT
ATOM      1  C   UNL     1      46.746   7.325  12.937  0.00  0.00    +0.000 A 
ATOM      2  C   UNL     1      46.112   6.120  12.673  0.00  0.00    +0.000 A 
ATOM      3  N   UNL     1      44.952   6.351  11.986  0.00  0.00    +0.000 N 
ATOM      4  C   UNL     1      44.836   7.693  11.707  0.00  0.00    +0.000 A 
ATOM      5  C   UNL     1      43.867   8.390  10.986  0.00  0.00    +0.000 A 
ATOM      6  N   UNL     1      43.973   9.728  10.842  0.00  0.00    +0.000 NA
ATOM      7  C   UNL     1      45.011  10.361  11.421  0.00  0.00    +0.000 A 
ATOM      8  C   UNL     1      46.003   9.735  12.159  0.00  0.00    +0.000 A 
ATOM      9  C   UNL     1      45.930   8.337  12.304  0.00  0.00    +0.000 A 
ENDROOT
BRANCH   1  11
ATOM     10  C   UNL     1      48.214   6.188  14.631  0.00  0.00    +0.000 C 
ATOM     11  C   UNL     1      48.059   7.428  13.721  0.00  0.00    +0.000 C 
ATOM     12  C   UNL     1      48.037   8.694  14.608  0.00  0.00    +0.000 C 
ATOM     13  C   UNL     1      49.318   7.513  12.842  0.00  0.00    +0.000 C 
ENDBRANCH   1  11
BRANCH   3  14
ATOM     14  C   UNL     1      44.048   5.295  11.538  0.00  0.00    +0.000 C 
BRANCH  14  15
ATOM     15  C   UNL     1      44.598   4.500  10.385  0.00  0.00    +0.000 A 
ATOM     16  C   UNL     1      45.360   5.098   9.382  0.00  0.00    +0.000 A 
ATOM     17  N   UNL     1      45.778   4.437   8.275  0.00  0.00    +0.000 NA
ATOM     18  C   UNL     1      45.412   3.140   8.204  0.00  0.00    +0.000 A 
ATOM     19  C   UNL     1      44.667   2.529   9.195  0.00  0.00    +0.000 A 
ATOM     20  N   UNL     1      44.239   3.191  10.297  0.00  0.00    +0.000 NA
ENDBRANCH  14  15
ENDBRANCH   3  14
TORSDOF 3
ENDMDL
MODEL 6
REMARK VINA RESULT:    -5.494      3.680      6.979
REMARK INTER + INTRA:          -6.906
REMARK INTER:                  -6.276
REMARK INTRA:                  -0.630
REMARK UNBOUND:                -0.449
REMARK  Name = 
REMARK  6 active torsions:
REMARK  status: ('A' for Active; 'I' for Inactive)
REMARK    1  A    between atoms: C_1  and  C_2
REMARK    2  A    between atoms: C_2  and  C_3
REMARK    3  A    between atoms: C_2  and  C_4
REMARK    4  A    between atoms: C_2  and  C_5
REMARK    5  A    between atoms: N_7  and  C_8
REMARK    6  A    between atoms: C_8  and  C_9
REMARK                            x       y       z     vdW  Elec       q    Type
REMARK                         _______ _______ _______ _____ _____    ______ ____
ROOT
ATOM      1  C   UNL     1      45.303   5.807  12.102  0.00  0.00    +0.000 A 
ATOM      2  C   UNL     1      46.534   5.517  12.673  0.00  0.00    +0.000 A 
ATOM      3  N   UNL     1      47.276   6.662  12.772  0.00  0.00    +0.000 N 
ATOM      4  C   UNL     1      46.529   7.738  12.351  0.00  0.00    +0.000 A 
ATOM      5  C   UNL     1      46.832   9.099  12.326  0.00  0.00    +0.000 A 
ATOM      6  N   UNL     1      45.919   9.980  11.865  0.00  0.00    +0.000 NA
ATOM      7  C   UNL     1      44.737   9.514  11.422  0.00  0.00    +0.000 A 
ATOM      8  C   UNL     1      44.371   8.177  11.410  0.00  0.00    +0.000 A 
ATOM      9  C   UNL     1      45.295   7.239  11.906  0.00  0.00    +0.000 A 
ENDROOT
BRANCH   1  11
ATOM     10  C   UNL     1      42.996   5.007  12.698  0.00  0.00    +0.000 C 
ATOM     11  C   UNL     1      44.238   4.741  11.819  0.00  0.00    +0.000 C 
ATOM     12  C   UNL     1      44.799   3.342  12.164  0.00  0.00    +0.000 C 
ATOM     13  C   UNL     1      43.765   4.691  10.357  0.00  0.00    +0.000 C 
ENDBRANCH   1  11
BRANCH   3  14
ATOM     14  C   UNL     1      48.619   6.713  13.342  0.00  0.00    +0.000 C 
BRANCH  14  15
ATOM     15  C   UNL     1      48.617   6.805  14.843  0.00  0.00    +0.000 A 
ATOM     16  C   UNL     1      48.727   8.029  15.502  0.00  0.00    +0.000 A 
ATOM     17  N   UNL     1      48.838   8.139  16.848  0.00  0.00    +0.000 NA
ATOM     18  C   UNL     1      48.830   6.973  17.527  0.00  0.00    +0.000 A 
ATOM     19  C   UNL     1      48.711   5.751  16.890  0.00  0.00    +0.000 A 
ATOM     20  N   UNL     1      48.609   5.639  15.544  0.00  0.00    +0.000 NA
ENDBRANCH  14  15
ENDBRANCH   3  14
TORSDOF 3
ENDMDL
MODEL 7
REMARK VINA RESULT:    -5.381      3.739      6.575
REMARK INTER + INTRA:          -6.773
REMARK INTER:                  -6.436
REMARK INTRA:                  -0.337
REMARK UNBOUND:                -0.449
REMARK  Name = 
REMARK  6 active torsions:
REMARK  status: ('A' for Active; 'I' for Inactive)
REMARK    1  A    between atoms: C_1  and  C_2
REMARK    2  A    between atoms: C_2  and  C_3
REMARK    3  A    between atoms: C_2  and  C_4
REMARK    4  A    between atoms: C_2  and  C_5
REMARK    5  A    between atoms: N_7  and  C_8
REMARK    6  A    between atoms: C_8  and  C_9
REMARK                            x       y       z     vdW  Elec       q    Type
REMARK                         _______ _______ _______ _____ _____    ______ ____
ROOT
ATOM      1  C   UNL     1      47.444   6.633  13.235  0.00  0.00    +0.000 A 
ATOM      2  C   UNL     1      47.794   5.884  14.349  0.00  0.00    +0.000 A 
ATOM      3  N   UNL     1      47.113   4.698  14.339  0.00  0.00    +0.000 N 
ATOM      4  C   UNL     1      46.366   4.600  13.187  0.00  0.00    +0.000 A 
ATOM      5  C   UNL     1      45.566   3.563  12.710  0.00  0.00    +0.000 A 
ATOM      6  N   UNL     1      44.926   3.700  11.529  0.00  0.00    +0.000 NA
ATOM      7  C   UNL     1      45.066   4.853  10.848  0.00  0.00    +0.000 A 
ATOM      8  C   UNL     1      45.837   5.926  11.265  0.00  0.00    +0.000 A 
ATOM      9  C   UNL     1      46.534   5.801  12.481  0.00  0.00    +0.000 A 
ENDROOT
BRANCH   1  11
ATOM     10  C   UNL     1      48.924   8.461  14.121  0.00  0.00    +0.000 C 
ATOM     11  C   UNL     1      48.003   8.032  12.956  0.00  0.00    +0.000 C 
ATOM     12  C   UNL     1      46.840   9.045  12.846  0.00  0.00    +0.000 C 
ATOM     13  C   UNL     1      48.822   8.141  11.659  0.00  0.00    +0.000 C 
ENDBRANCH   1  11
BRANCH   3  14
ATOM     14  C   UNL     1      47.259   3.667  15.363  0.00  0.00    +0.000 C 
BRANCH  14  15
ATOM     15  C   UNL     1      47.911   4.175  16.619  0.00  0.00    +0.000 A 
ATOM     16  C   UNL     1      47.164   4.718  17.664  0.00  0.00    +0.000 A 
ATOM     17  N   UNL     1      47.724   5.284  18.760  0.00  0.00    +0.000 NA
ATOM     18  C   UNL     1      49.073   5.285  18.785  0.00  0.00    +0.000 A 
ATOM     19  C   UNL     1      49.829   4.741  17.763  0.00  0.00    +0.000 A 
ATOM     20  N   UNL     1      49.271   4.184  16.662  0.00  0.00    +0.000 NA
ENDBRANCH  14  15
ENDBRANCH   3  14
TORSDOF 3
ENDMDL
MODEL 8
REMARK VINA RESULT:    -5.379      3.638      6.579
REMARK INTER + INTRA:          -6.771
REMARK INTER:                  -6.391
REMARK INTRA:                  -0.379
REMARK UNBOUND:                -0.449
REMARK  Name = 
REMARK  6 active torsions:
REMARK  status: ('A' for Active; 'I' for Inactive)
REMARK    1  A    between atoms: C_1  and  C_2
REMARK    2  A    between atoms: C_2  and  C_3
REMARK    3  A    between atoms: C_2  and  C_4
REMARK    4  A    between atoms: C_2  and  C_5
REMARK    5  A    between atoms: N_7  and  C_8
REMARK    6  A    between atoms: C_8  and  C_9
REMARK                            x       y       z     vdW  Elec       q    Type
REMARK                         _______ _______ _______ _____ _____    ______ ____
ROOT
ATOM      1  C   UNL     1      48.222   5.388  16.201  0.00  0.00    +0.000 A 
ATOM      2  C   UNL     1      47.434   5.052  15.110  0.00  0.00    +0.000 A 
ATOM      3  N   UNL     1      47.638   5.951  14.101  0.00  0.00    +0.000 N 
ATOM      4  C   UNL     1      48.618   6.846  14.465  0.00  0.00    +0.000 A 
ATOM      5  C   UNL     1      49.203   7.892  13.752  0.00  0.00    +0.000 A 
ATOM      6  N   UNL     1      50.167   8.640  14.330  0.00  0.00    +0.000 NA
ATOM      7  C   UNL     1      50.527   8.363  15.598  0.00  0.00    +0.000 A 
ATOM      8  C   UNL     1      49.984   7.345  16.367  0.00  0.00    +0.000 A 
ATOM      9  C   UNL     1      48.994   6.536  15.781  0.00  0.00    +0.000 A 
ENDROOT
BRANCH   1  11
ATOM     10  C   UNL     1      49.622   4.030  17.787  0.00  0.00    +0.000 C 
ATOM     11  C   UNL     1      48.212   4.602  17.517  0.00  0.00    +0.000 C 
ATOM     12  C   UNL     1      47.212   3.427  17.413  0.00  0.00    +0.000 C 
ATOM     13  C   UNL     1      47.809   5.431  18.748  0.00  0.00    +0.000 C 
ENDBRANCH   1  11
BRANCH   3  14
ATOM     14  C   UNL     1      46.973   5.882  12.802  0.00  0.00    +0.000 C 
BRANCH  14  15
ATOM     15  C   UNL     1      45.657   5.155  12.854  0.00  0.00    +0.000 A 
ATOM     16  C   UNL     1      45.571   3.781  12.633  0.00  0.00    +0.000 A 
ATOM     17  N   UNL     1      44.394   3.113  12.564  0.00  0.00    +0.000 NA
ATOM     18  C   UNL     1      43.289   3.870  12.732  0.00  0.00    +0.000 A 
ATOM     19  C   UNL     1      43.357   5.232  12.964  0.00  0.00    +0.000 A 
ATOM     20  N   UNL     1      44.533   5.902  13.023  0.00  0.00    +0.000 NA
ENDBRANCH  14  15
ENDBRANCH   3  14
TORSDOF 3
ENDMDL
MODEL 9
REMARK VINA RESULT:    -5.243      3.496      6.706
REMARK INTER + INTRA:          -6.611
REMARK INTER:                  -6.721
REMARK INTRA:                   0.110
REMARK UNBOUND:                -0.449
REMARK  Name = 
REMARK  6 active torsions:
REMARK  status: ('A' for Active; 'I' for Inactive)
REMARK    1  A    between atoms: C_1  and  C_2
REMARK    2  A    between atoms: C_2  and  C_3
REMARK    3  A    between atoms: C_2  and  C_4
REMARK    4  A    between atoms: C_2  and  C_5
REMARK    5  A    between atoms: N_7  and  C_8
REMARK    6  A    between atoms: C_8  and  C_9
REMARK                            x       y       z     vdW  Elec       q    Type
REMARK                         _______ _______ _______ _____ _____    ______ ____
ROOT
ATOM      1  C   UNL     1      45.111   5.500  12.172  0.00  0.00    +0.000 A 
ATOM      2  C   UNL     1      46.179   5.044  12.931  0.00  0.00    +0.000 A 
ATOM      3  N   UNL     1      46.991   6.094  13.260  0.00  0.00    +0.000 N 
ATOM      4  C   UNL     1      46.440   7.270  12.803  0.00  0.00    +0.000 A 
ATOM      5  C   UNL     1      46.867   8.589  12.948  0.00  0.00    +0.000 A 
ATOM      6  N   UNL     1      46.143   9.591  12.405  0.00  0.00    +0.000 NA
ATOM      7  C   UNL     1      45.028   9.283  11.716  0.00  0.00    +0.000 A 
ATOM      8  C   UNL     1      44.550   7.996  11.525  0.00  0.00    +0.000 A 
ATOM      9  C   UNL     1      45.273   6.935  12.100  0.00  0.00    +0.000 A 
ENDROOT
BRANCH   1  11
ATOM     10  C   UNL     1      44.178   4.475  10.076  0.00  0.00    +0.000 C 
ATOM     11  C   UNL     1      44.027   4.574  11.610  0.00  0.00    +0.000 C 
ATOM     12  C   UNL     1      42.630   5.154  11.934  0.00  0.00    +0.000 C 
ATOM     13  C   UNL     1      44.062   3.142  12.170  0.00  0.00    +0.000 C 
ENDBRANCH   1  11
BRANCH   3  14
ATOM     14  C   UNL     1      48.201   5.965  14.067  0.00  0.00    +0.000 C 
BRANCH  14  15
ATOM     15  C   UNL     1      47.939   5.383  15.429  0.00  0.00    +0.000 A 
ATOM     16  C   UNL     1      47.154   4.244  15.600  0.00  0.00    +0.000 A 
ATOM     17  N   UNL     1      46.807   3.757  16.815  0.00  0.00    +0.000 NA
ATOM     18  C   UNL     1      47.281   4.449  17.872  0.00  0.00    +0.000 A 
ATOM     19  C   UNL     1      48.071   5.574  17.721  0.00  0.00    +0.000 A 
ATOM     20  N   UNL     1      48.410   6.068  16.507  0.00  0.00    +0.000 NA
ENDBRANCH  14  15
ENDBRANCH   3  14
TORSDOF 3
ENDMDL
