MODEL 1
REMARK VINA RESULT:    -8.211      0.000      0.000
REMARK INTER + INTRA:         -11.608
REMARK INTER:                 -10.851
REMARK INTRA:                  -0.757
REMARK UNBOUND:                -0.757
REMARK  Name = 
REMARK  7 active torsions:
REMARK  status: ('A' for Active; 'I' for Inactive)
REMARK    1  A    between atoms: C_1  and  N_2
REMARK    2  A    between atoms: C_10  and  C_11
REMARK    3  A    between atoms: C_11  and  C_12
REMARK    4  A    between atoms: C_12  and  N_13
REMARK    5  A    between atoms: N_13  and  C_14
REMARK    6  A    between atoms: CA_17  and  C_18
REMARK    7  A    between atoms: C_18  and  OXT_20
REMARK                            x       y       z     vdW  Elec       q    Type
REMARK                         _______ _______ _______ _____ _____    ______ ____
ROOT
ATOM      1  C   UNL     1      43.301   4.941  12.375  0.00  0.00    +0.000 C 
ENDROOT
BRANCH   1  11
ATOM      2  C   UNL     1      50.782   9.733  12.586  0.00  0.00    +0.000 C 
ATOM      3  N   UNL     1      49.481   9.222  13.013  0.00  0.00    +0.000 NA
ATOM      4  C   UNL     1      48.673   8.801  11.838  0.00  0.00    +0.000 C 
ATOM      5  C   UNL     1      47.324   8.131  12.226  0.00  0.00    +0.000 C 
ATOM      6  N   UNL     1      47.635   7.004  13.103  0.00  0.00    +0.000 N 
ATOM      7  C   UNL     1      46.788   5.912  13.163  0.00  0.00    +0.000 A 
ATOM      8  C   UNL     1      47.305   4.679  13.583  0.00  0.00    +0.000 A 
ATOM      9  N   UNL     1      46.603   3.531  13.643  0.00  0.00    +0.000 NA
ATOM     10  C   UNL     1      45.324   3.649  13.251  0.00  0.00    +0.000 A 
ATOM     11  C   UNL     1      44.754   4.846  12.807  0.00  0.00    +0.000 A 
ATOM     12  N   UNL     1      45.498   5.989  12.749  0.00  0.00    +0.000 NA
ATOM     13  C   UNL     1      48.330   7.409  14.334  0.00  0.00    +0.000 C 
ATOM     14  C   UNL     1      49.664   8.080  13.941  0.00  0.00    +0.000 C 
ENDBRANCH   1  11
BRANCH   1  15
ATOM     15  C   UNL     1      43.023   4.264  11.027  0.00  0.00    +0.000 C 
BRANCH  15  16
ATOM     16  N   UNL     1      43.788   4.818   9.905  0.00  0.00    +0.000 N 
ATOM     17  H   UNL     1      44.310   5.655  10.163  0.00  0.00    +0.000 HD
BRANCH  16  18
ATOM     18  C   UNL     1      44.601   3.891   9.215  0.00  0.00    +0.000 A 
ATOM     19  C   UNL     1      45.575   4.275   8.281  0.00  0.00    +0.000 A 
ATOM     20  C   UNL     1      46.387   3.329   7.656  0.00  0.00    +0.000 A 
ATOM     21  CA  UNL     1      46.227   2.003   8.013  0.00  0.00    +0.000 A 
ATOM     22  N   UNL     1      45.339   1.562   8.949  0.00  0.00    +0.000 NA
ATOM     23  C   UNL     1      44.573   2.528   9.531  0.00  0.00    +0.000 A 
BRANCH  21  24
ATOM     24  C   UNL     1      47.063   0.956   7.364  0.00  0.00    +0.000 C 
ATOM     25  O   UNL     1      47.871   1.160   6.471  0.00  0.00    +0.000 OA
BRANCH  24  26
ATOM     26  OXT UNL     1      46.803  -0.263   7.893  0.00  0.00    +0.000 OA
ATOM     27  HXT UNL     1      45.839  -0.445   7.790  0.00  0.00    +0.000 HD
ENDBRANCH  24  26
ENDBRANCH  21  24
ENDBRANCH  16  18
ENDBRANCH  15  16
ENDBRANCH   1  15
TORSDOF 6
ENDMDL
MODEL 2
REMARK VINA RESULT:    -7.966      1.403      2.282
REMARK INTER + INTRA:         -11.285
REMARK INTER:                 -11.042
REMARK INTRA:                  -0.243
REMARK UNBOUND:                -0.757
REMARK  Name = 
REMARK  7 active torsions:
REMARK  status: ('A' for Active; 'I' for Inactive)
REMARK    1  A    between atoms: C_1  and  N_2
REMARK    2  A    between atoms: C_10  and  C_11
REMARK    3  A    between atoms: C_11  and  C_12
REMARK    4  A    between atoms: C_12  and  N_13
REMARK    5  A    between atoms: N_13  and  C_14
REMARK    6  A    between atoms: CA_17  and  C_18
REMARK    7  A    between atoms: C_18  and  OXT_20
REMARK                            x       y       z     vdW  Elec       q    Type
REMARK                         _______ _______ _______ _____ _____    ______ ____
ROOT
ATOM      1  C   UNL     1      43.155   4.984  12.302  0.00  0.00    +0.000 C 
ENDROOT
BRANCH   1  11
ATOM      2  C   UNL     1      50.898   7.335  15.974  0.00  0.00    +0.000 C 
ATOM      3  N   UNL     1      49.973   6.673  15.056  0.00  0.00    +0.000 NA
ATOM      4  C   UNL     1      48.657   6.449  15.711  0.00  0.00    +0.000 C 
ATOM      5  C   UNL     1      47.582   5.862  14.752  0.00  0.00    +0.000 C 
ATOM      6  N   UNL     1      47.475   6.770  13.612  0.00  0.00    +0.000 N 
ATOM      7  C   UNL     1      46.290   6.863  12.904  0.00  0.00    +0.000 A 
ATOM      8  C   UNL     1      46.028   8.032  12.177  0.00  0.00    +0.000 A 
ATOM      9  N   UNL     1      44.898   8.269  11.484  0.00  0.00    +0.000 NA
ATOM     10  C   UNL     1      43.998   7.274  11.543  0.00  0.00    +0.000 A 
ATOM     11  C   UNL     1      44.194   6.091  12.263  0.00  0.00    +0.000 A 
ATOM     12  N   UNL     1      45.348   5.888  12.963  0.00  0.00    +0.000 NA
ATOM     13  C   UNL     1      48.737   6.916  12.873  0.00  0.00    +0.000 C 
ATOM     14  C   UNL     1      49.800   7.492  13.833  0.00  0.00    +0.000 C 
ENDBRANCH   1  11
BRANCH   1  15
ATOM     15  C   UNL     1      43.183   4.082  11.062  0.00  0.00    +0.000 C 
BRANCH  15  16
ATOM     16  N   UNL     1      43.843   4.680   9.897  0.00  0.00    +0.000 N 
ATOM     17  H   UNL     1      44.314   5.556  10.121  0.00  0.00    +0.000 HD
BRANCH  16  18
ATOM     18  C   UNL     1      44.686   3.809   9.170  0.00  0.00    +0.000 A 
ATOM     19  C   UNL     1      45.612   4.259   8.217  0.00  0.00    +0.000 A 
ATOM     20  C   UNL     1      46.456   3.368   7.555  0.00  0.00    +0.000 A 
ATOM     21  CA  UNL     1      46.376   2.030   7.893  0.00  0.00    +0.000 A 
ATOM     22  N   UNL     1      45.539   1.528   8.844  0.00  0.00    +0.000 NA
ATOM     23  C   UNL     1      44.738   2.441   9.462  0.00  0.00    +0.000 A 
BRANCH  21  24
ATOM     24  C   UNL     1      47.249   1.040   7.204  0.00  0.00    +0.000 C 
ATOM     25  O   UNL     1      48.064   1.310   6.336  0.00  0.00    +0.000 OA
BRANCH  24  26
ATOM     26  OXT UNL     1      47.013  -0.211   7.666  0.00  0.00    +0.000 OA
ATOM     27  HXT UNL     1      47.624  -0.832   7.203  0.00  0.00    +0.000 HD
ENDBRANCH  24  26
ENDBRANCH  21  24
ENDBRANCH  16  18
ENDBRANCH  15  16
ENDBRANCH   1  15
TORSDOF 6
ENDMDL
MODEL 3
REMARK VINA RESULT:    -7.735      1.585      2.508
REMARK INTER + INTRA:         -10.979
REMARK INTER:                 -10.730
REMARK INTRA:                  -0.249
REMARK UNBOUND:                -0.757
REMARK  Name = 
REMARK  7 active torsions:
REMARK  status: ('A' for Active; 'I' for Inactive)
REMARK    1  A    between atoms: C_1  and  N_2
REMARK    2  A    between atoms: C_10  and  C_11
REMARK    3  A    between atoms: C_11  and  C_12
REMARK    4  A    between atoms: C_12  and  N_13
REMARK    5  A    between atoms: N_13  and  C_14
REMARK    6  A    between atoms: CA_17  and  C_18
REMARK    7  A    between atoms: C_18  and  OXT_20
REMARK                            x       y       z     vdW  Elec       q    Type
REMARK                         _______ _______ _______ _____ _____    ______ ____
ROOT
ATOM      1  C   UNL     1      43.559   4.297  12.829  0.00  0.00    +0.000 C 
ENDROOT
BRANCH   1  11
ATOM      2  C   UNL     1      51.136   7.873  15.792  0.00  0.00    +0.000 C 
ATOM      3  N   UNL     1      50.253   7.015  15.004  0.00  0.00    +0.000 NA
ATOM      4  C   UNL     1      49.000   6.727  15.750  0.00  0.00    +0.000 C 
ATOM      5  C   UNL     1      47.959   5.922  14.921  0.00  0.00    +0.000 C 
ATOM      6  N   UNL     1      47.701   6.676  13.697  0.00  0.00    +0.000 N 
ATOM      7  C   UNL     1      46.485   6.559  13.049  0.00  0.00    +0.000 A 
ATOM      8  C   UNL     1      46.061   7.602  12.214  0.00  0.00    +0.000 A 
ATOM      9  N   UNL     1      44.882   7.635  11.563  0.00  0.00    +0.000 NA
ATOM     10  C   UNL     1      44.105   6.562  11.780  0.00  0.00    +0.000 A 
ATOM     11  C   UNL     1      44.463   5.497  12.612  0.00  0.00    +0.000 A 
ATOM     12  N   UNL     1      45.662   5.501  13.266  0.00  0.00    +0.000 NA
ATOM     13  C   UNL     1      48.906   6.872  12.877  0.00  0.00    +0.000 C 
ATOM     14  C   UNL     1      49.937   7.665  13.709  0.00  0.00    +0.000 C 
ENDBRANCH   1  11
BRANCH   1  15
ATOM     15  C   UNL     1      43.577   3.305  11.659  0.00  0.00    +0.000 C 
BRANCH  15  16
ATOM     16  N   UNL     1      43.554   3.935  10.334  0.00  0.00    +0.000 N 
ATOM     17  H   UNL     1      43.513   4.953  10.386  0.00  0.00    +0.000 HD
BRANCH  16  18
ATOM     18  C   UNL     1      44.562   3.502   9.444  0.00  0.00    +0.000 A 
ATOM     19  C   UNL     1      44.928   2.155   9.299  0.00  0.00    +0.000 A 
ATOM     20  C   UNL     1      45.897   1.766   8.376  0.00  0.00    +0.000 A 
ATOM     21  CA  UNL     1      46.463   2.746   7.582  0.00  0.00    +0.000 A 
ATOM     22  N   UNL     1      46.121   4.065   7.630  0.00  0.00    +0.000 NA
ATOM     23  C   UNL     1      45.167   4.390   8.547  0.00  0.00    +0.000 A 
BRANCH  21  24
ATOM     24  C   UNL     1      47.511   2.380   6.590  0.00  0.00    +0.000 C 
ATOM     25  O   UNL     1      48.272   1.431   6.694  0.00  0.00    +0.000 OA
BRANCH  24  26
ATOM     26  OXT UNL     1      47.515   3.251   5.552  0.00  0.00    +0.000 OA
ATOM     27  HXT UNL     1      48.313   3.071   5.001  0.00  0.00    +0.000 HD
ENDBRANCH  24  26
ENDBRANCH  21  24
ENDBRANCH  16  18
ENDBRANCH  15  16
ENDBRANCH   1  15
TORSDOF 6
ENDMDL
MODEL 4
REMARK VINA RESULT:    -7.364      1.478      2.429
REMARK INTER + INTRA:         -10.489
REMARK INTER:                 -10.104
REMARK INTRA:                  -0.385
REMARK UNBOUND:                -0.757
REMARK  Name = 
REMARK  7 active torsions:
REMARK  status: ('A' for Active; 'I' for Inactive)
REMARK    1  A    between atoms: C_1  and  N_2
REMARK    2  A    between atoms: C_10  and  C_11
REMARK    3  A    between atoms: C_11  and  C_12
REMARK    4  A    between atoms: C_12  and  N_13
REMARK    5  A    between atoms: N_13  and  C_14
REMARK    6  A    between atoms: CA_17  and  C_18
REMARK    7  A    between atoms: C_18  and  OXT_20
REMARK                            x       y       z     vdW  Elec       q    Type
REMARK                         _______ _______ _______ _____ _____    ______ ____
ROOT
ATOM      1  C   UNL     1      45.580   5.140  11.635  0.00  0.00    +0.000 C 
ENDROOT
BRANCH   1  11
ATOM      2  C   UNL     1      52.516  10.526  13.002  0.00  0.00    +0.000 C 
ATOM      3  N   UNL     1      51.500   9.776  12.266  0.00  0.00    +0.000 NA
ATOM      4  C   UNL     1      51.094   8.562  13.024  0.00  0.00    +0.000 C 
ATOM      5  C   UNL     1      49.926   7.782  12.359  0.00  0.00    +0.000 C 
ATOM      6  N   UNL     1      48.815   8.717  12.195  0.00  0.00    +0.000 N 
ATOM      7  C   UNL     1      47.511   8.255  12.176  0.00  0.00    +0.000 A 
ATOM      8  C   UNL     1      46.477   9.138  12.516  0.00  0.00    +0.000 A 
ATOM      9  N   UNL     1      45.173   8.806  12.581  0.00  0.00    +0.000 NA
ATOM     10  C   UNL     1      44.919   7.520  12.293  0.00  0.00    +0.000 A 
ATOM     11  C   UNL     1      45.907   6.587  11.961  0.00  0.00    +0.000 A 
ATOM     12  N   UNL     1      47.221   6.956  11.915  0.00  0.00    +0.000 NA
ATOM     13  C   UNL     1      49.154   9.869  11.348  0.00  0.00    +0.000 C 
ATOM     14  C   UNL     1      50.320  10.635  12.011  0.00  0.00    +0.000 C 
ENDBRANCH   1  11
BRANCH   1  15
ATOM     15  C   UNL     1      44.092   4.905  11.348  0.00  0.00    +0.000 C 
BRANCH  15  16
ATOM     16  N   UNL     1      43.771   4.745   9.925  0.00  0.00    +0.000 N 
ATOM     17  H   UNL     1      43.675   5.638   9.444  0.00  0.00    +0.000 HD
BRANCH  16  18
ATOM     18  C   UNL     1      44.614   3.860   9.214  0.00  0.00    +0.000 A 
ATOM     19  C   UNL     1      45.516   4.290   8.229  0.00  0.00    +0.000 A 
ATOM     20  C   UNL     1      46.360   3.388   7.583  0.00  0.00    +0.000 A 
ATOM     21  CA  UNL     1      46.306   2.061   7.969  0.00  0.00    +0.000 A 
ATOM     22  N   UNL     1      45.494   1.582   8.953  0.00  0.00    +0.000 NA
ATOM     23  C   UNL     1      44.692   2.505   9.554  0.00  0.00    +0.000 A 
BRANCH  21  24
ATOM     24  C   UNL     1      47.181   1.060   7.299  0.00  0.00    +0.000 C 
ATOM     25  O   UNL     1      48.050   1.324   6.483  0.00  0.00    +0.000 OA
BRANCH  24  26
ATOM     26  OXT UNL     1      46.879  -0.194   7.713  0.00  0.00    +0.000 OA
ATOM     27  HXT UNL     1      46.029  -0.158   8.212  0.00  0.00    +0.000 HD
ENDBRANCH  24  26
ENDBRANCH  21  24
ENDBRANCH  16  18
ENDBRANCH  15  16
ENDBRANCH   1  15
TORSDOF 6
ENDMDL
MODEL 5
REMARK VINA RESULT:    -7.038      2.278      3.763
REMARK INTER + INTRA:         -10.058
REMARK INTER:                  -9.851
REMARK INTRA:                  -0.208
REMARK UNBOUND:                -0.757
REMARK  Name = 
REMARK  7 active torsions:
REMARK  status: ('A' for Active; 'I' for Inactive)
REMARK    1  A    between atoms: C_1  and  N_2
REMARK    2  A    between atoms: C_10  and  C_11
REMARK    3  A    between atoms: C_11  and  C_12
REMARK    4  A    between atoms: C_12  and  N_13
REMARK    5  A    between atoms: N_13  and  C_14
REMARK    6  A    between atoms: CA_17  and  C_18
REMARK    7  A    between atoms: C_18  and  OXT_20
REMARK                            x       y       z     vdW  Elec       q    Type
REMARK                         _______ _______ _______ _____ _____    ______ ____
ROOT
ATOM      1  C   UNL     1      46.340   6.109  10.966  0.00  0.00    +0.000 C 
ENDROOT
BRANCH   1  11
ATOM      2  C   UNL     1      48.653   4.469  19.389  0.00  0.00    +0.000 C 
ATOM      3  N   UNL     1      48.782   4.560  17.936  0.00  0.00    +0.000 NA
ATOM      4  C   UNL     1      47.456   4.402  17.282  0.00  0.00    +0.000 C 
ATOM      5  C   UNL     1      47.498   4.613  15.742  0.00  0.00    +0.000 C 
ATOM      6  N   UNL     1      48.067   5.937  15.500  0.00  0.00    +0.000 N 
ATOM      7  C   UNL     1      47.737   6.640  14.356  0.00  0.00    +0.000 A 
ATOM      8  C   UNL     1      47.863   8.036  14.362  0.00  0.00    +0.000 A 
ATOM      9  N   UNL     1      47.533   8.843  13.334  0.00  0.00    +0.000 NA
ATOM     10  C   UNL     1      47.050   8.195  12.261  0.00  0.00    +0.000 A 
ATOM     11  C   UNL     1      46.886   6.807  12.200  0.00  0.00    +0.000 A 
ATOM     12  N   UNL     1      47.221   6.021  13.264  0.00  0.00    +0.000 NA
ATOM     13  C   UNL     1      49.430   6.083  16.033  0.00  0.00    +0.000 C 
ATOM     14  C   UNL     1      49.381   5.864  17.561  0.00  0.00    +0.000 C 
ENDBRANCH   1  11
BRANCH   1  15
ATOM     15  C   UNL     1      44.880   5.664  11.118  0.00  0.00    +0.000 C 
BRANCH  15  16
ATOM     16  N   UNL     1      44.281   5.133   9.889  0.00  0.00    +0.000 N 
ATOM     17  H   UNL     1      44.045   5.866   9.221  0.00  0.00    +0.000 HD
BRANCH  16  18
ATOM     18  C   UNL     1      44.999   4.083   9.274  0.00  0.00    +0.000 A 
ATOM     19  C   UNL     1      44.757   2.728   9.546  0.00  0.00    +0.000 A 
ATOM     20  C   UNL     1      45.458   1.723   8.883  0.00  0.00    +0.000 A 
ATOM     21  CA  UNL     1      46.378   2.102   7.922  0.00  0.00    +0.000 A 
ATOM     22  N   UNL     1      46.628   3.395   7.569  0.00  0.00    +0.000 NA
ATOM     23  C   UNL     1      45.913   4.337   8.245  0.00  0.00    +0.000 A 
BRANCH  21  24
ATOM     24  C   UNL     1      47.160   1.064   7.196  0.00  0.00    +0.000 C 
ATOM     25  O   UNL     1      47.892   1.278   6.243  0.00  0.00    +0.000 OA
BRANCH  24  26
ATOM     26  OXT UNL     1      46.945  -0.161   7.733  0.00  0.00    +0.000 OA
ATOM     27  HXT UNL     1      47.693  -0.748   7.472  0.00  0.00    +0.000 HD
ENDBRANCH  24  26
ENDBRANCH  21  24
ENDBRANCH  16  18
ENDBRANCH  15  16
ENDBRANCH   1  15
TORSDOF 6
ENDMDL
MODEL 6
REMARK VINA RESULT:    -6.653      2.172      2.884
REMARK INTER + INTRA:          -9.549
REMARK INTER:                  -9.174
REMARK INTRA:                  -0.376
REMARK UNBOUND:                -0.757
REMARK  Name = 
REMARK  7 active torsions:
REMARK  status: ('A' for Active; 'I' for Inactive)
REMARK    1  A    between atoms: C_1  and  N_2
REMARK    2  A    between atoms: C_10  and  C_11
REMARK    3  A    between atoms: C_11  and  C_12
REMARK    4  A    between atoms: C_12  and  N_13
REMARK    5  A    between atoms: N_13  and  C_14
REMARK    6  A    between atoms: CA_17  and  C_18
REMARK    7  A    between atoms: C_18  and  OXT_20
REMARK                            x       y       z     vdW  Elec       q    Type
REMARK                         _______ _______ _______ _____ _____    ______ ____
ROOT
ATOM      1  C   UNL     1      46.328   5.557  11.940  0.00  0.00    +0.000 C 
ENDROOT
BRANCH   1  11
ATOM      2  C   UNL     1      52.670   8.290  17.533  0.00  0.00    +0.000 C 
ATOM      3  N   UNL     1      51.390   8.280  16.828  0.00  0.00    +0.000 NA
ATOM      4  C   UNL     1      51.532   7.637  15.494  0.00  0.00    +0.000 C 
ATOM      5  C   UNL     1      50.182   7.478  14.739  0.00  0.00    +0.000 C 
ATOM      6  N   UNL     1      49.281   6.728  15.611  0.00  0.00    +0.000 N 
ATOM      7  C   UNL     1      48.269   5.956  15.070  0.00  0.00    +0.000 A 
ATOM      8  C   UNL     1      47.756   4.891  15.824  0.00  0.00    +0.000 A 
ATOM      9  N   UNL     1      46.805   4.036  15.399  0.00  0.00    +0.000 NA
ATOM     10  C   UNL     1      46.368   4.277  14.152  0.00  0.00    +0.000 A 
ATOM     11  C   UNL     1      46.850   5.312  13.345  0.00  0.00    +0.000 A 
ATOM     12  N   UNL     1      47.822   6.154  13.804  0.00  0.00    +0.000 NA
ATOM     13  C   UNL     1      49.027   7.403  16.893  0.00  0.00    +0.000 C 
ATOM     14  C   UNL     1      50.372   7.563  17.633  0.00  0.00    +0.000 C 
ENDBRANCH   1  11
BRANCH   1  15
ATOM     15  C   UNL     1      44.871   5.116  11.751  0.00  0.00    +0.000 C 
BRANCH  15  16
ATOM     16  N   UNL     1      44.402   5.165  10.361  0.00  0.00    +0.000 N 
ATOM     17  H   UNL     1      44.276   6.119  10.025  0.00  0.00    +0.000 HD
BRANCH  16  18
ATOM     18  C   UNL     1      45.148   4.387   9.447  0.00  0.00    +0.000 A 
ATOM     19  C   UNL     1      45.036   2.991   9.362  0.00  0.00    +0.000 A 
ATOM     20  C   UNL     1      45.758   2.267   8.414  0.00  0.00    +0.000 A 
ATOM     21  CA  UNL     1      46.562   2.971   7.537  0.00  0.00    +0.000 A 
ATOM     22  N   UNL     1      46.680   4.329   7.527  0.00  0.00    +0.000 NA
ATOM     23  C   UNL     1      45.951   4.988   8.471  0.00  0.00    +0.000 A 
BRANCH  21  24
ATOM     24  C   UNL     1      47.361   2.240   6.516  0.00  0.00    +0.000 C 
ATOM     25  O   UNL     1      47.920   1.170   6.699  0.00  0.00    +0.000 OA
BRANCH  24  26
ATOM     26  OXT UNL     1      47.392   2.926   5.349  0.00  0.00    +0.000 OA
ATOM     27  HXT UNL     1      47.129   3.859   5.532  0.00  0.00    +0.000 HD
ENDBRANCH  24  26
ENDBRANCH  21  24
ENDBRANCH  16  18
ENDBRANCH  15  16
ENDBRANCH   1  15
TORSDOF 6
ENDMDL
MODEL 7
REMARK VINA RESULT:    -6.549      3.488      5.830
REMARK INTER + INTRA:          -9.412
REMARK INTER:                  -8.504
REMARK INTRA:                  -0.908
REMARK UNBOUND:                -0.757
REMARK  Name = 
REMARK  7 active torsions:
REMARK  status: ('A' for Active; 'I' for Inactive)
REMARK    1  A    between atoms: C_1  and  N_2
REMARK    2  A    between atoms: C_10  and  C_11
REMARK    3  A    between atoms: C_11  and  C_12
REMARK    4  A    between atoms: C_12  and  N_13
REMARK    5  A    between atoms: N_13  and  C_14
REMARK    6  A    between atoms: CA_17  and  C_18
REMARK    7  A    between atoms: C_18  and  OXT_20
REMARK                            x       y       z     vdW  Elec       q    Type
REMARK                         _______ _______ _______ _____ _____    ______ ____
ROOT
ATOM      1  C   UNL     1      48.691   7.364  12.364  0.00  0.00    +0.000 C 
ENDROOT
BRANCH   1  11
ATOM      2  C   UNL     1      48.755   4.517  20.782  0.00  0.00    +0.000 C 
ATOM      3  N   UNL     1      48.950   4.486  19.334  0.00  0.00    +0.000 NA
ATOM      4  C   UNL     1      47.972   5.377  18.655  0.00  0.00    +0.000 C 
ATOM      5  C   UNL     1      48.202   5.491  17.122  0.00  0.00    +0.000 C 
ATOM      6  N   UNL     1      49.577   5.941  16.920  0.00  0.00    +0.000 N 
ATOM      7  C   UNL     1      49.918   6.658  15.788  0.00  0.00    +0.000 A 
ATOM      8  C   UNL     1      51.047   7.487  15.828  0.00  0.00    +0.000 A 
ATOM      9  N   UNL     1      51.462   8.271  14.814  0.00  0.00    +0.000 NA
ATOM     10  C   UNL     1      50.687   8.208  13.719  0.00  0.00    +0.000 A 
ATOM     11  C   UNL     1      49.541   7.413  13.622  0.00  0.00    +0.000 A 
ATOM     12  N   UNL     1      49.143   6.638  14.674  0.00  0.00    +0.000 NA
ATOM     13  C   UNL     1      50.573   5.014  17.478  0.00  0.00    +0.000 C 
ATOM     14  C   UNL     1      50.334   4.900  19.000  0.00  0.00    +0.000 C 
ENDBRANCH   1  11
BRANCH   1  15
ATOM     15  C   UNL     1      47.377   8.146  12.490  0.00  0.00    +0.000 C 
BRANCH  15  16
ATOM     16  N   UNL     1      46.408   7.552  13.416  0.00  0.00    +0.000 N 
ATOM     17  H   UNL     1      45.764   8.241  13.804  0.00  0.00    +0.000 HD
BRANCH  16  18
ATOM     18  C   UNL     1      45.720   6.420  12.923  0.00  0.00    +0.000 A 
ATOM     19  C   UNL     1      45.008   6.424  11.714  0.00  0.00    +0.000 A 
ATOM     20  C   UNL     1      44.381   5.271  11.243  0.00  0.00    +0.000 A 
ATOM     21  CA  UNL     1      44.512   4.114  11.987  0.00  0.00    +0.000 A 
ATOM     22  N   UNL     1      45.230   4.022  13.142  0.00  0.00    +0.000 NA
ATOM     23  C   UNL     1      45.825   5.176  13.556  0.00  0.00    +0.000 A 
BRANCH  21  24
ATOM     24  C   UNL     1      43.850   2.862  11.530  0.00  0.00    +0.000 C 
ATOM     25  O   UNL     1      43.704   2.532  10.363  0.00  0.00    +0.000 OA
BRANCH  24  26
ATOM     26  OXT UNL     1      43.420   2.132  12.587  0.00  0.00    +0.000 OA
ATOM     27  HXT UNL     1      44.131   2.131  13.271  0.00  0.00    +0.000 HD
ENDBRANCH  24  26
ENDBRANCH  21  24
ENDBRANCH  16  18
ENDBRANCH  15  16
ENDBRANCH   1  15
TORSDOF 6
ENDMDL
MODEL 8
REMARK VINA RESULT:    -6.462      2.941      3.790
REMARK INTER + INTRA:          -9.297
REMARK INTER:                  -8.709
REMARK INTRA:                  -0.588
REMARK UNBOUND:                -0.757
REMARK  Name = 
REMARK  7 active torsions:
REMARK  status: ('A' for Active; 'I' for Inactive)
REMARK    1  A    between atoms: C_1  and  N_2
REMARK    2  A    between atoms: C_10  and  C_11
REMARK    3  A    between atoms: C_11  and  C_12
REMARK    4  A    between atoms: C_12  and  N_13
REMARK    5  A    between atoms: N_13  and  C_14
REMARK    6  A    between atoms: CA_17  and  C_18
REMARK    7  A    between atoms: C_18  and  OXT_20
REMARK                            x       y       z     vdW  Elec       q    Type
REMARK                         _______ _______ _______ _____ _____    ______ ____
ROOT
ATOM      1  C   UNL     1      46.182   6.226  12.519  0.00  0.00    +0.000 C 
ENDROOT
BRANCH   1  11
ATOM      2  C   UNL     1      50.532   5.940  20.263  0.00  0.00    +0.000 C 
ATOM      3  N   UNL     1      49.405   6.049  19.339  0.00  0.00    +0.000 NA
ATOM      4  C   UNL     1      49.848   6.615  18.037  0.00  0.00    +0.000 C 
ATOM      5  C   UNL     1      48.725   6.643  16.962  0.00  0.00    +0.000 C 
ATOM      6  N   UNL     1      48.226   5.277  16.819  0.00  0.00    +0.000 N 
ATOM      7  C   UNL     1      47.671   4.859  15.623  0.00  0.00    +0.000 A 
ATOM      8  C   UNL     1      47.661   3.489  15.327  0.00  0.00    +0.000 A 
ATOM      9  N   UNL     1      47.195   2.953  14.182  0.00  0.00    +0.000 NA
ATOM     10  C   UNL     1      46.727   3.856  13.304  0.00  0.00    +0.000 A 
ATOM     11  C   UNL     1      46.724   5.235  13.534  0.00  0.00    +0.000 A 
ATOM     12  N   UNL     1      47.214   5.745  14.703  0.00  0.00    +0.000 NA
ATOM     13  C   UNL     1      47.669   4.735  18.068  0.00  0.00    +0.000 C 
ATOM     14  C   UNL     1      48.788   4.717  19.132  0.00  0.00    +0.000 C 
ENDBRANCH   1  11
BRANCH   1  15
ATOM     15  C   UNL     1      44.659   6.152  12.353  0.00  0.00    +0.000 C 
BRANCH  15  16
ATOM     16  N   UNL     1      44.208   6.086  10.959  0.00  0.00    +0.000 N 
ATOM     17  H   UNL     1      44.310   6.977  10.473  0.00  0.00    +0.000 HD
BRANCH  16  18
ATOM     18  C   UNL     1      44.741   5.018  10.203  0.00  0.00    +0.000 A 
ATOM     19  C   UNL     1      44.390   3.677  10.419  0.00  0.00    +0.000 A 
ATOM     20  C   UNL     1      44.907   2.659   9.619  0.00  0.00    +0.000 A 
ATOM     21  CA  UNL     1      45.750   3.015   8.584  0.00  0.00    +0.000 A 
ATOM     22  N   UNL     1      46.095   4.299   8.282  0.00  0.00    +0.000 NA
ATOM     23  C   UNL     1      45.559   5.256   9.092  0.00  0.00    +0.000 A 
BRANCH  21  24
ATOM     24  C   UNL     1      46.336   1.961   7.711  0.00  0.00    +0.000 C 
ATOM     25  O   UNL     1      46.871   2.162   6.633  0.00  0.00    +0.000 OA
BRANCH  24  26
ATOM     26  OXT UNL     1      46.191   0.737   8.274  0.00  0.00    +0.000 OA
ATOM     27  HXT UNL     1      45.708   0.160   7.636  0.00  0.00    +0.000 HD
ENDBRANCH  24  26
ENDBRANCH  21  24
ENDBRANCH  16  18
ENDBRANCH  15  16
ENDBRANCH   1  15
TORSDOF 6
ENDMDL
MODEL 9
REMARK VINA RESULT:    -6.266      4.652      8.053
REMARK INTER + INTRA:          -9.038
REMARK INTER:                  -8.439
REMARK INTRA:                  -0.599
REMARK UNBOUND:                -0.757
REMARK  Name = 
REMARK  7 active torsions:
REMARK  status: ('A' for Active; 'I' for Inactive)
REMARK    1  A    between atoms: C_1  and  N_2
REMARK    2  A    between atoms: C_10  and  C_11
REMARK    3  A    between atoms: C_11  and  C_12
REMARK    4  A    between atoms: C_12  and  N_13
REMARK    5  A    between atoms: N_13  and  C_14
REMARK    6  A    between atoms: CA_17  and  C_18
REMARK    7  A    between atoms: C_18  and  OXT_20
REMARK                            x       y       z     vdW  Elec       q    Type
REMARK                         _______ _______ _______ _____ _____    ______ ____
ROOT
ATOM      1  C   UNL     1      49.988   6.860  16.076  0.00  0.00    +0.000 C 
ENDROOT
BRANCH   1  11
ATOM      2  C   UNL     1      43.691   3.212  10.977  0.00  0.00    +0.000 C 
ATOM      3  N   UNL     1      44.284   4.064  12.006  0.00  0.00    +0.000 NA
ATOM      4  C   UNL     1      45.525   3.448  12.544  0.00  0.00    +0.000 C 
ATOM      5  C   UNL     1      46.279   4.359  13.554  0.00  0.00    +0.000 C 
ATOM      6  N   UNL     1      46.551   5.625  12.879  0.00  0.00    +0.000 N 
ATOM      7  C   UNL     1      47.637   6.396  13.251  0.00  0.00    +0.000 A 
ATOM      8  C   UNL     1      48.172   7.301  12.325  0.00  0.00    +0.000 A 
ATOM      9  N   UNL     1      49.253   8.075  12.543  0.00  0.00    +0.000 NA
ATOM     10  C   UNL     1      49.811   7.911  13.754  0.00  0.00    +0.000 A 
ATOM     11  C   UNL     1      49.334   7.015  14.715  0.00  0.00    +0.000 A 
ATOM     12  N   UNL     1      48.242   6.237  14.456  0.00  0.00    +0.000 NA
ATOM     13  C   UNL     1      45.329   6.317  12.441  0.00  0.00    +0.000 C 
ATOM     14  C   UNL     1      44.583   5.404  11.444  0.00  0.00    +0.000 C 
ENDBRANCH   1  11
BRANCH   1  15
ATOM     15  C   UNL     1      48.993   6.518  17.192  0.00  0.00    +0.000 C 
BRANCH  15  16
ATOM     16  N   UNL     1      48.488   5.142  17.147  0.00  0.00    +0.000 N 
ATOM     17  H   UNL     1      47.870   4.978  16.353  0.00  0.00    +0.000 HD
BRANCH  16  18
ATOM     18  C   UNL     1      49.474   4.135  17.253  0.00  0.00    +0.000 A 
ATOM     19  C   UNL     1      50.668   4.306  17.969  0.00  0.00    +0.000 A 
ATOM     20  C   UNL     1      51.593   3.270  18.086  0.00  0.00    +0.000 A 
ATOM     21  CA  UNL     1      51.282   2.056  17.502  0.00  0.00    +0.000 A 
ATOM     22  N   UNL     1      50.120   1.801  16.837  0.00  0.00    +0.000 NA
ATOM     23  C   UNL     1      49.249   2.847  16.755  0.00  0.00    +0.000 A 
BRANCH  21  24
ATOM     24  C   UNL     1      52.245   0.924  17.589  0.00  0.00    +0.000 C 
ATOM     25  O   UNL     1      53.348   0.902  17.067  0.00  0.00    +0.000 OA
BRANCH  24  26
ATOM     26  OXT UNL     1      51.729  -0.089  18.325  0.00  0.00    +0.000 OA
ATOM     27  HXT UNL     1      52.456  -0.724  18.530  0.00  0.00    +0.000 HD
ENDBRANCH  24  26
ENDBRANCH  21  24
ENDBRANCH  16  18
ENDBRANCH  15  16
ENDBRANCH   1  15
TORSDOF 6
ENDMDL
