MODEL 1
REMARK VINA RESULT:    -8.085      0.000      0.000
REMARK INTER + INTRA:         -12.262
REMARK INTER:                 -11.393
REMARK INTRA:                  -0.869
REMARK UNBOUND:                -0.869
REMARK  Name = 
REMARK  9 active torsions:
REMARK  status: ('A' for Active; 'I' for Inactive)
REMARK    1  A    between atoms: C_1  and  C_2
REMARK    2  A    between atoms: C_2  and  C_3
REMARK    3  A    between atoms: C_2  and  N_4
REMARK    4  A    between atoms: N_4  and  C_5
REMARK    5  A    between atoms: C_5  and  C_6
REMARK    6  A    between atoms: C_6  and  C_7
REMARK    7  A    between atoms: C_10  and  C_11
REMARK    8  A    between atoms: C_11  and  N_12
REMARK    9  A    between atoms: C_17  and  C_18
REMARK                            x       y       z     vdW  Elec       q    Type
REMARK                         _______ _______ _______ _____ _____    ______ ____
ROOT
ATOM      1  C   UNL     1      43.951   5.509  11.288  0.00  0.00    +0.000 C 
ENDROOT
BRANCH   1   2
ATOM      2  N   UNL     1      43.899   4.357  10.399  0.00  0.00    +0.000 N 
ATOM      3  N   UNL     1      43.271   3.264  10.897  0.00  0.00    +0.000 NA
ATOM      4  N   UNL     1      43.852   2.192  10.386  0.00  0.00    +0.000 NA
ATOM      5  C   UNL     1      44.762   2.608   9.461  0.00  0.00    +0.000 A 
ATOM      6  C   UNL     1      45.645   1.863   8.688  0.00  0.00    +0.000 A 
ATOM      7  C   UNL     1      46.395   2.592   7.778  0.00  0.00    +0.000 A 
ATOM      8  N   UNL     1      46.319   3.947   7.613  0.00  0.00    +0.000 NA
ATOM      9  C   UNL     1      45.503   4.673   8.427  0.00  0.00    +0.000 A 
ATOM     10  C   UNL     1      44.738   3.998   9.365  0.00  0.00    +0.000 A 
BRANCH   7  11
ATOM     11  C   UNL     1      47.360   1.839   6.909  0.00  0.00    +0.000 C 
ATOM     12  N   UNL     1      48.474   2.527   6.514  0.00  0.00    +0.000 N 
ATOM     13  O   UNL     1      47.176   0.682   6.560  0.00  0.00    +0.000 OA
ATOM     14  H   UNL     1      48.609   3.488   6.804  0.00  0.00    +0.000 HD
ATOM     15  H   UNL     1      49.154   2.063   5.925  0.00  0.00    +0.000 HD
ENDBRANCH   7  11
ENDBRANCH   1   2
BRANCH   1  19
ATOM     16  C   UNL     1      47.603   6.363  13.302  0.00  0.00    +0.000 A 
ATOM     17  C   UNL     1      47.291   7.088  12.149  0.00  0.00    +0.000 A 
ATOM     18  C   UNL     1      46.112   6.812  11.452  0.00  0.00    +0.000 A 
ATOM     19  C   UNL     1      45.273   5.805  11.921  0.00  0.00    +0.000 A 
ATOM     20  N   UNL     1      45.552   5.105  13.048  0.00  0.00    +0.000 NA
ATOM     21  C   UNL     1      46.682   5.411  13.718  0.00  0.00    +0.000 A 
BRANCH  16  22
ATOM     22  C   UNL     1      48.891   6.570  14.063  0.00  0.00    +0.000 C 
BRANCH  22  23
ATOM     23  C   UNL     1      48.627   6.583  15.580  0.00  0.00    +0.000 C 
BRANCH  23  24
ATOM     24  N   UNL     1      49.115   5.372  16.244  0.00  0.00    +0.000 NA
ATOM     25  H   UNL     1      49.464   4.719  15.543  0.00  0.00    +0.000 HD
BRANCH  24  27
ATOM     26  C   UNL     1      47.928   3.262  16.550  0.00  0.00    +0.000 C 
ATOM     27  C   UNL     1      48.066   4.706  17.039  0.00  0.00    +0.000 C 
ATOM     28  C   UNL     1      48.364   4.703  18.542  0.00  0.00    +0.000 C 
ENDBRANCH  24  27
ENDBRANCH  23  24
ENDBRANCH  22  23
ENDBRANCH  16  22
ENDBRANCH   1  19
TORSDOF 7
ENDMDL
MODEL 2
REMARK VINA RESULT:    -7.816      1.764      3.084
REMARK INTER + INTRA:         -11.884
REMARK INTER:                 -10.876
REMARK INTRA:                  -1.008
REMARK UNBOUND:                -0.869
REMARK  Name = 
REMARK  9 active torsions:
REMARK  status: ('A' for Active; 'I' for Inactive)
REMARK    1  A    between atoms: C_1  and  C_2
REMARK    2  A    between atoms: C_2  and  C_3
REMARK    3  A    between atoms: C_2  and  N_4
REMARK    4  A    between atoms: N_4  and  C_5
REMARK    5  A    between atoms: C_5  and  C_6
REMARK    6  A    between atoms: C_6  and  C_7
REMARK    7  A    between atoms: C_10  and  C_11
REMARK    8  A    between atoms: C_11  and  N_12
REMARK    9  A    between atoms: C_17  and  C_18
REMARK                            x       y       z     vdW  Elec       q    Type
REMARK                         _______ _______ _______ _____ _____    ______ ____
ROOT
ATOM      1  C   UNL     1      43.815   5.546  11.215  0.00  0.00    +0.000 C 
ENDROOT
BRANCH   1   2
ATOM      2  N   UNL     1      43.810   4.387  10.334  0.00  0.00    +0.000 N 
ATOM      3  N   UNL     1      43.165   3.295  10.810  0.00  0.00    +0.000 NA
ATOM      4  N   UNL     1      43.775   2.223  10.333  0.00  0.00    +0.000 NA
ATOM      5  C   UNL     1      44.725   2.637   9.449  0.00  0.00    +0.000 A 
ATOM      6  C   UNL     1      45.648   1.891   8.723  0.00  0.00    +0.000 A 
ATOM      7  C   UNL     1      46.435   2.618   7.845  0.00  0.00    +0.000 A 
ATOM      8  N   UNL     1      46.360   3.972   7.666  0.00  0.00    +0.000 NA
ATOM      9  C   UNL     1      45.503   4.699   8.436  0.00  0.00    +0.000 A 
ATOM     10  C   UNL     1      44.699   4.026   9.342  0.00  0.00    +0.000 A 
BRANCH   7  11
ATOM     11  C   UNL     1      47.444   1.865   7.026  0.00  0.00    +0.000 C 
ATOM     12  N   UNL     1      48.439   2.615   6.462  0.00  0.00    +0.000 N 
ATOM     13  O   UNL     1      47.392   0.656   6.860  0.00  0.00    +0.000 OA
ATOM     14  H   UNL     1      48.464   3.618   6.602  0.00  0.00    +0.000 HD
ATOM     15  H   UNL     1      49.142   2.152   5.900  0.00  0.00    +0.000 HD
ENDBRANCH   7  11
ENDBRANCH   1   2
BRANCH   1  19
ATOM     16  C   UNL     1      47.471   6.171  13.305  0.00  0.00    +0.000 A 
ATOM     17  C   UNL     1      46.594   5.190  13.772  0.00  0.00    +0.000 A 
ATOM     18  C   UNL     1      45.375   4.980  13.123  0.00  0.00    +0.000 A 
ATOM     19  C   UNL     1      45.056   5.767  12.021  0.00  0.00    +0.000 A 
ATOM     20  N   UNL     1      45.903   6.711  11.543  0.00  0.00    +0.000 NA
ATOM     21  C   UNL     1      47.086   6.874  12.170  0.00  0.00    +0.000 A 
BRANCH  16  22
ATOM     22  C   UNL     1      48.774   6.489  13.999  0.00  0.00    +0.000 C 
BRANCH  22  23
ATOM     23  C   UNL     1      49.341   7.830  13.498  0.00  0.00    +0.000 C 
BRANCH  23  24
ATOM     24  N   UNL     1      50.743   7.729  13.087  0.00  0.00    +0.000 NA
ATOM     25  H   UNL     1      51.344   8.007  13.863  0.00  0.00    +0.000 HD
BRANCH  24  27
ATOM     26  C   UNL     1      51.381   7.665  10.733  0.00  0.00    +0.000 C 
ATOM     27  C   UNL     1      51.048   8.575  11.919  0.00  0.00    +0.000 C 
ATOM     28  C   UNL     1      49.893   9.504  11.532  0.00  0.00    +0.000 C 
ENDBRANCH  24  27
ENDBRANCH  23  24
ENDBRANCH  22  23
ENDBRANCH  16  22
ENDBRANCH   1  19
TORSDOF 7
ENDMDL
MODEL 3
REMARK VINA RESULT:    -7.476      1.613      2.346
REMARK INTER + INTRA:         -11.404
REMARK INTER:                 -10.634
REMARK INTRA:                  -0.770
REMARK UNBOUND:                -0.869
REMARK  Name = 
REMARK  9 active torsions:
REMARK  status: ('A' for Active; 'I' for Inactive)
REMARK    1  A    between atoms: C_1  and  C_2
REMARK    2  A    between atoms: C_2  and  C_3
REMARK    3  A    between atoms: C_2  and  N_4
REMARK    4  A    between atoms: N_4  and  C_5
REMARK    5  A    between atoms: C_5  and  C_6
REMARK    6  A    between atoms: C_6  and  C_7
REMARK    7  A    between atoms: C_10  and  C_11
REMARK    8  A    between atoms: C_11  and  N_12
REMARK    9  A    between atoms: C_17  and  C_18
REMARK                            x       y       z     vdW  Elec       q    Type
REMARK                         _______ _______ _______ _____ _____    ______ ____
ROOT
ATOM      1  C   UNL     1      43.830   5.243  11.508  0.00  0.00    +0.000 C 
ENDROOT
BRANCH   1   2
ATOM      2  N   UNL     1      43.799   4.122  10.580  0.00  0.00    +0.000 N 
ATOM      3  N   UNL     1      43.209   2.995  11.047  0.00  0.00    +0.000 NA
ATOM      4  N   UNL     1      43.813   1.959  10.491  0.00  0.00    +0.000 NA
ATOM      5  C   UNL     1      44.698   2.432   9.570  0.00  0.00    +0.000 A 
ATOM      6  C   UNL     1      45.592   1.740   8.760  0.00  0.00    +0.000 A 
ATOM      7  C   UNL     1      46.309   2.522   7.867  0.00  0.00    +0.000 A 
ATOM      8  N   UNL     1      46.192   3.879   7.751  0.00  0.00    +0.000 NA
ATOM      9  C   UNL     1      45.366   4.553   8.600  0.00  0.00    +0.000 A 
ATOM     10  C   UNL     1      44.634   3.824   9.523  0.00  0.00    +0.000 A 
BRANCH   7  11
ATOM     11  C   UNL     1      47.283   1.828   6.960  0.00  0.00    +0.000 C 
ATOM     12  N   UNL     1      48.328   2.587   6.510  0.00  0.00    +0.000 N 
ATOM     13  O   UNL     1      47.162   0.658   6.628  0.00  0.00    +0.000 OA
ATOM     14  H   UNL     1      48.410   3.558   6.787  0.00  0.00    +0.000 HD
ATOM     15  H   UNL     1      49.011   2.164   5.894  0.00  0.00    +0.000 HD
ENDBRANCH   7  11
ENDBRANCH   1   2
BRANCH   1  19
ATOM     16  C   UNL     1      47.733   6.409  12.746  0.00  0.00    +0.000 A 
ATOM     17  C   UNL     1      47.145   5.298  13.352  0.00  0.00    +0.000 A 
ATOM     18  C   UNL     1      45.855   4.907  12.986  0.00  0.00    +0.000 A 
ATOM     19  C   UNL     1      45.176   5.647  12.022  0.00  0.00    +0.000 A 
ATOM     20  N   UNL     1      45.739   6.717  11.410  0.00  0.00    +0.000 NA
ATOM     21  C   UNL     1      46.996   7.056  11.762  0.00  0.00    +0.000 A 
BRANCH  16  22
ATOM     22  C   UNL     1      49.098   6.920  13.143  0.00  0.00    +0.000 C 
BRANCH  22  23
ATOM     23  C   UNL     1      49.153   7.193  14.658  0.00  0.00    +0.000 C 
BRANCH  23  24
ATOM     24  N   UNL     1      50.442   6.824  15.248  0.00  0.00    +0.000 NA
ATOM     25  H   UNL     1      50.319   6.643  16.244  0.00  0.00    +0.000 HD
BRANCH  24  27
ATOM     26  C   UNL     1      51.034   9.103  15.889  0.00  0.00    +0.000 C 
ATOM     27  C   UNL     1      51.460   7.878  15.076  0.00  0.00    +0.000 C 
ATOM     28  C   UNL     1      52.859   7.439  15.521  0.00  0.00    +0.000 C 
ENDBRANCH  24  27
ENDBRANCH  23  24
ENDBRANCH  22  23
ENDBRANCH  16  22
ENDBRANCH   1  19
TORSDOF 7
ENDMDL
MODEL 4
REMARK VINA RESULT:    -6.548      2.900      7.219
REMARK INTER + INTRA:         -10.097
REMARK INTER:                  -9.162
REMARK INTRA:                  -0.935
REMARK UNBOUND:                -0.869
REMARK  Name = 
REMARK  9 active torsions:
REMARK  status: ('A' for Active; 'I' for Inactive)
REMARK    1  A    between atoms: C_1  and  C_2
REMARK    2  A    between atoms: C_2  and  C_3
REMARK    3  A    between atoms: C_2  and  N_4
REMARK    4  A    between atoms: N_4  and  C_5
REMARK    5  A    between atoms: C_5  and  C_6
REMARK    6  A    between atoms: C_6  and  C_7
REMARK    7  A    between atoms: C_10  and  C_11
REMARK    8  A    between atoms: C_11  and  N_12
REMARK    9  A    between atoms: C_17  and  C_18
REMARK                            x       y       z     vdW  Elec       q    Type
REMARK                         _______ _______ _______ _____ _____    ______ ____
ROOT
ATOM      1  C   UNL     1      44.524   6.387  13.141  0.00  0.00    +0.000 C 
ENDROOT
BRANCH   1   2
ATOM      2  N   UNL     1      45.541   7.423  13.029  0.00  0.00    +0.000 N 
ATOM      3  N   UNL     1      45.120   8.598  12.502  0.00  0.00    +0.000 NA
ATOM      4  N   UNL     1      46.133   9.134  11.843  0.00  0.00    +0.000 NA
ATOM      5  C   UNL     1      47.234   8.364  12.065  0.00  0.00    +0.000 A 
ATOM      6  C   UNL     1      48.524   8.491  11.560  0.00  0.00    +0.000 A 
ATOM      7  C   UNL     1      49.443   7.575  12.045  0.00  0.00    +0.000 A 
ATOM      8  N   UNL     1      49.159   6.590  12.950  0.00  0.00    +0.000 NA
ATOM      9  C   UNL     1      47.876   6.430  13.381  0.00  0.00    +0.000 A 
ATOM     10  C   UNL     1      46.911   7.311  12.918  0.00  0.00    +0.000 A 
BRANCH   7  11
ATOM     11  C   UNL     1      50.854   7.670  11.543  0.00  0.00    +0.000 C 
ATOM     12  N   UNL     1      51.787   8.088  12.451  0.00  0.00    +0.000 N 
ATOM     13  O   UNL     1      51.168   7.399  10.394  0.00  0.00    +0.000 OA
ATOM     14  H   UNL     1      51.510   8.317  13.398  0.00  0.00    +0.000 HD
ATOM     15  H   UNL     1      52.753   8.169  12.159  0.00  0.00    +0.000 HD
ENDBRANCH   7  11
ENDBRANCH   1   2
BRANCH   1  19
ATOM     16  C   UNL     1      44.444   3.283  10.227  0.00  0.00    +0.000 A 
ATOM     17  C   UNL     1      45.086   3.041  11.443  0.00  0.00    +0.000 A 
ATOM     18  C   UNL     1      45.152   4.049  12.408  0.00  0.00    +0.000 A 
ATOM     19  C   UNL     1      44.578   5.286  12.129  0.00  0.00    +0.000 A 
ATOM     20  N   UNL     1      43.934   5.532  10.962  0.00  0.00    +0.000 NA
ATOM     21  C   UNL     1      43.860   4.533  10.059  0.00  0.00    +0.000 A 
BRANCH  16  22
ATOM     22  C   UNL     1      44.394   2.258   9.120  0.00  0.00    +0.000 C 
BRANCH  22  23
ATOM     23  C   UNL     1      45.804   2.003   8.556  0.00  0.00    +0.000 C 
BRANCH  23  24
ATOM     24  N   UNL     1      46.234   3.049   7.625  0.00  0.00    +0.000 NA
ATOM     25  H   UNL     1      45.458   3.295   7.010  0.00  0.00    +0.000 HD
BRANCH  24  27
ATOM     26  C   UNL     1      47.596   1.126   6.993  0.00  0.00    +0.000 C 
ATOM     27  C   UNL     1      47.383   2.630   6.800  0.00  0.00    +0.000 C 
ATOM     28  C   UNL     1      47.190   2.925   5.309  0.00  0.00    +0.000 C 
ENDBRANCH  24  27
ENDBRANCH  23  24
ENDBRANCH  22  23
ENDBRANCH  16  22
ENDBRANCH   1  19
TORSDOF 7
ENDMDL
MODEL 5
REMARK VINA RESULT:    -6.500      4.061      9.035
REMARK INTER + INTRA:         -10.029
REMARK INTER:                  -9.349
REMARK INTRA:                  -0.679
REMARK UNBOUND:                -0.869
REMARK  Name = 
REMARK  9 active torsions:
REMARK  status: ('A' for Active; 'I' for Inactive)
REMARK    1  A    between atoms: C_1  and  C_2
REMARK    2  A    between atoms: C_2  and  C_3
REMARK    3  A    between atoms: C_2  and  N_4
REMARK    4  A    between atoms: N_4  and  C_5
REMARK    5  A    between atoms: C_5  and  C_6
REMARK    6  A    between atoms: C_6  and  C_7
REMARK    7  A    between atoms: C_10  and  C_11
REMARK    8  A    between atoms: C_11  and  N_12
REMARK    9  A    between atoms: C_17  and  C_18
REMARK                            x       y       z     vdW  Elec       q    Type
REMARK                         _______ _______ _______ _____ _____    ______ ____
ROOT
ATOM      1  C   UNL     1      47.471   3.886  16.169  0.00  0.00    +0.000 C 
ENDROOT
BRANCH   1   2
ATOM      2  N   UNL     1      48.851   3.428  16.239  0.00  0.00    +0.000 N 
ATOM      3  N   UNL     1      49.054   2.133  15.897  0.00  0.00    +0.000 NA
ATOM      4  N   UNL     1      50.069   1.678  16.612  0.00  0.00    +0.000 NA
ATOM      5  C   UNL     1      50.595   2.723  17.309  0.00  0.00    +0.000 A 
ATOM      6  C   UNL     1      51.641   2.742  18.225  0.00  0.00    +0.000 A 
ATOM      7  C   UNL     1      51.982   3.996  18.708  0.00  0.00    +0.000 A 
ATOM      8  N   UNL     1      51.365   5.163  18.352  0.00  0.00    +0.000 NA
ATOM      9  C   UNL     1      50.294   5.122  17.510  0.00  0.00    +0.000 A 
ATOM     10  C   UNL     1      49.900   3.892  17.006  0.00  0.00    +0.000 A 
BRANCH   7  11
ATOM     11  C   UNL     1      53.111   4.080  19.693  0.00  0.00    +0.000 C 
ATOM     12  N   UNL     1      53.539   2.893  20.218  0.00  0.00    +0.000 N 
ATOM     13  O   UNL     1      53.627   5.139  20.021  0.00  0.00    +0.000 OA
ATOM     14  H   UNL     1      53.096   2.024  19.943  0.00  0.00    +0.000 HD
ATOM     15  H   UNL     1      54.298   2.898  20.888  0.00  0.00    +0.000 HD
ENDBRANCH   7  11
ENDBRANCH   1   2
BRANCH   1  19
ATOM     16  C   UNL     1      46.319   5.672  12.479  0.00  0.00    +0.000 A 
ATOM     17  C   UNL     1      47.347   6.264  13.215  0.00  0.00    +0.000 A 
ATOM     18  C   UNL     1      47.730   5.717  14.442  0.00  0.00    +0.000 A 
ATOM     19  C   UNL     1      47.064   4.588  14.912  0.00  0.00    +0.000 A 
ATOM     20  N   UNL     1      46.076   3.990  14.201  0.00  0.00    +0.000 NA
ATOM     21  C   UNL     1      45.746   4.522  13.007  0.00  0.00    +0.000 A 
BRANCH  16  22
ATOM     22  C   UNL     1      45.818   6.253  11.179  0.00  0.00    +0.000 C 
BRANCH  22  23
ATOM     23  C   UNL     1      45.092   5.176  10.350  0.00  0.00    +0.000 C 
BRANCH  23  24
ATOM     24  N   UNL     1      45.554   5.132   8.961  0.00  0.00    +0.000 NA
ATOM     25  H   UNL     1      45.154   5.917   8.446  0.00  0.00    +0.000 HD
BRANCH  24  27
ATOM     26  C   UNL     1      46.242   3.555   7.231  0.00  0.00    +0.000 C 
ATOM     27  C   UNL     1      45.179   3.876   8.284  0.00  0.00    +0.000 C 
ATOM     28  C   UNL     1      45.049   2.692   9.247  0.00  0.00    +0.000 C 
ENDBRANCH  24  27
ENDBRANCH  23  24
ENDBRANCH  22  23
ENDBRANCH  16  22
ENDBRANCH   1  19
TORSDOF 7
ENDMDL
MODEL 6
REMARK VINA RESULT:    -6.337      3.768      8.913
REMARK INTER + INTRA:          -9.799
REMARK INTER:                  -9.003
REMARK INTRA:                  -0.796
REMARK UNBOUND:                -0.869
REMARK  Name = 
REMARK  9 active torsions:
REMARK  status: ('A' for Active; 'I' for Inactive)
REMARK    1  A    between atoms: C_1  and  C_2
REMARK    2  A    between atoms: C_2  and  C_3
REMARK    3  A    between atoms: C_2  and  N_4
REMARK    4  A    between atoms: N_4  and  C_5
REMARK    5  A    between atoms: C_5  and  C_6
REMARK    6  A    between atoms: C_6  and  C_7
REMARK    7  A    between atoms: C_10  and  C_11
REMARK    8  A    between atoms: C_11  and  N_12
REMARK    9  A    between atoms: C_17  and  C_18
REMARK                            x       y       z     vdW  Elec       q    Type
REMARK                         _______ _______ _______ _____ _____    ______ ____
ROOT
ATOM      1  C   UNL     1      47.872   3.206  15.241  0.00  0.00    +0.000 C 
ENDROOT
BRANCH   1   2
ATOM      2  N   UNL     1      47.865   3.759  16.588  0.00  0.00    +0.000 N 
ATOM      3  N   UNL     1      46.695   3.643  17.260  0.00  0.00    +0.000 NA
ATOM      4  N   UNL     1      46.580   4.688  18.062  0.00  0.00    +0.000 NA
ATOM      5  C   UNL     1      47.741   5.398  17.996  0.00  0.00    +0.000 A 
ATOM      6  C   UNL     1      48.089   6.590  18.621  0.00  0.00    +0.000 A 
ATOM      7  C   UNL     1      49.390   7.016  18.401  0.00  0.00    +0.000 A 
ATOM      8  N   UNL     1      50.306   6.357  17.629  0.00  0.00    +0.000 NA
ATOM      9  C   UNL     1      49.930   5.229  16.963  0.00  0.00    +0.000 A 
ATOM     10  C   UNL     1      48.636   4.764  17.136  0.00  0.00    +0.000 A 
BRANCH   7  11
ATOM     11  C   UNL     1      49.826   8.293  19.058  0.00  0.00    +0.000 C 
ATOM     12  N   UNL     1      50.911   8.913  18.504  0.00  0.00    +0.000 N 
ATOM     13  O   UNL     1      49.260   8.763  20.035  0.00  0.00    +0.000 OA
ATOM     14  H   UNL     1      51.375   8.507  17.700  0.00  0.00    +0.000 HD
ATOM     15  H   UNL     1      51.244   9.777  18.913  0.00  0.00    +0.000 HD
ENDBRANCH   7  11
ENDBRANCH   1   2
BRANCH   1  19
ATOM     16  C   UNL     1      45.624   5.106  12.166  0.00  0.00    +0.000 A 
ATOM     17  C   UNL     1      46.455   5.891  12.967  0.00  0.00    +0.000 A 
ATOM     18  C   UNL     1      47.185   5.300  14.001  0.00  0.00    +0.000 A 
ATOM     19  C   UNL     1      47.058   3.931  14.217  0.00  0.00    +0.000 A 
ATOM     20  N   UNL     1      46.270   3.151  13.437  0.00  0.00    +0.000 NA
ATOM     21  C   UNL     1      45.599   3.742  12.428  0.00  0.00    +0.000 A 
BRANCH  16  22
ATOM     22  C   UNL     1      44.762   5.695  11.075  0.00  0.00    +0.000 C 
BRANCH  22  23
ATOM     23  C   UNL     1      44.403   4.621  10.030  0.00  0.00    +0.000 C 
BRANCH  23  24
ATOM     24  N   UNL     1      45.188   4.751   8.800  0.00  0.00    +0.000 NA
ATOM     25  H   UNL     1      44.797   5.499   8.227  0.00  0.00    +0.000 HD
BRANCH  24  27
ATOM     26  C   UNL     1      46.406   3.549   7.061  0.00  0.00    +0.000 C 
ATOM     27  C   UNL     1      45.207   3.504   8.012  0.00  0.00    +0.000 C 
ATOM     28  C   UNL     1      45.300   2.246   8.882  0.00  0.00    +0.000 C 
ENDBRANCH  24  27
ENDBRANCH  23  24
ENDBRANCH  22  23
ENDBRANCH  16  22
ENDBRANCH   1  19
TORSDOF 7
ENDMDL
MODEL 7
REMARK VINA RESULT:    -6.142      3.769      8.694
REMARK INTER + INTRA:          -9.524
REMARK INTER:                  -8.499
REMARK INTRA:                  -1.025
REMARK UNBOUND:                -0.869
REMARK  Name = 
REMARK  9 active torsions:
REMARK  status: ('A' for Active; 'I' for Inactive)
REMARK    1  A    between atoms: C_1  and  C_2
REMARK    2  A    between atoms: C_2  and  C_3
REMARK    3  A    between atoms: C_2  and  N_4
REMARK    4  A    between atoms: N_4  and  C_5
REMARK    5  A    between atoms: C_5  and  C_6
REMARK    6  A    between atoms: C_6  and  C_7
REMARK    7  A    between atoms: C_10  and  C_11
REMARK    8  A    between atoms: C_11  and  N_12
REMARK    9  A    between atoms: C_17  and  C_18
REMARK                            x       y       z     vdW  Elec       q    Type
REMARK                         _______ _______ _______ _____ _____    ______ ____
ROOT
ATOM      1  C   UNL     1      48.716   6.570  13.425  0.00  0.00    +0.000 C 
ENDROOT
BRANCH   1   2
ATOM      2  N   UNL     1      49.039   7.014  14.773  0.00  0.00    +0.000 N 
ATOM      3  N   UNL     1      50.044   7.919  14.864  0.00  0.00    +0.000 NA
ATOM      4  N   UNL     1      50.671   7.717  16.010  0.00  0.00    +0.000 NA
ATOM      5  C   UNL     1      49.981   6.772  16.707  0.00  0.00    +0.000 A 
ATOM      6  C   UNL     1      50.263   6.196  17.941  0.00  0.00    +0.000 A 
ATOM      7  C   UNL     1      49.310   5.306  18.411  0.00  0.00    +0.000 A 
ATOM      8  N   UNL     1      48.159   4.975  17.750  0.00  0.00    +0.000 NA
ATOM      9  C   UNL     1      47.931   5.490  16.509  0.00  0.00    +0.000 A 
ATOM     10  C   UNL     1      48.858   6.376  15.983  0.00  0.00    +0.000 A 
BRANCH   7  11
ATOM     11  C   UNL     1      49.556   4.660  19.743  0.00  0.00    +0.000 C 
ATOM     12  N   UNL     1      48.648   3.713  20.127  0.00  0.00    +0.000 N 
ATOM     13  O   UNL     1      50.502   4.954  20.458  0.00  0.00    +0.000 OA
ATOM     14  H   UNL     1      47.863   3.486  19.528  0.00  0.00    +0.000 HD
ATOM     15  H   UNL     1      48.770   3.250  21.019  0.00  0.00    +0.000 HD
ENDBRANCH   7  11
ENDBRANCH   1   2
BRANCH   1  19
ATOM     16  C   UNL     1      44.615   5.561  12.884  0.00  0.00    +0.000 A 
ATOM     17  C   UNL     1      45.529   4.533  13.125  0.00  0.00    +0.000 A 
ATOM     18  C   UNL     1      46.885   4.831  13.281  0.00  0.00    +0.000 A 
ATOM     19  C   UNL     1      47.299   6.156  13.181  0.00  0.00    +0.000 A 
ATOM     20  N   UNL     1      46.422   7.167  12.965  0.00  0.00    +0.000 NA
ATOM     21  C   UNL     1      45.116   6.856  12.848  0.00  0.00    +0.000 A 
BRANCH  16  22
ATOM     22  C   UNL     1      43.148   5.298  12.644  0.00  0.00    +0.000 C 
BRANCH  22  23
ATOM     23  C   UNL     1      42.953   4.412  11.399  0.00  0.00    +0.000 C 
BRANCH  23  24
ATOM     24  N   UNL     1      43.377   5.078  10.165  0.00  0.00    +0.000 NA
ATOM     25  H   UNL     1      42.556   5.312   9.607  0.00  0.00    +0.000 HD
BRANCH  24  27
ATOM     26  C   UNL     1      45.637   4.942   9.256  0.00  0.00    +0.000 C 
ATOM     27  C   UNL     1      44.281   4.239   9.356  0.00  0.00    +0.000 C 
ATOM     28  C   UNL     1      44.483   2.837   9.942  0.00  0.00    +0.000 C 
ENDBRANCH  24  27
ENDBRANCH  23  24
ENDBRANCH  22  23
ENDBRANCH  16  22
ENDBRANCH   1  19
TORSDOF 7
ENDMDL
MODEL 8
REMARK VINA RESULT:    -6.096      3.930      6.365
REMARK INTER + INTRA:          -9.460
REMARK INTER:                  -8.774
REMARK INTRA:                  -0.686
REMARK UNBOUND:                -0.869
REMARK  Name = 
REMARK  9 active torsions:
REMARK  status: ('A' for Active; 'I' for Inactive)
REMARK    1  A    between atoms: C_1  and  C_2
REMARK    2  A    between atoms: C_2  and  C_3
REMARK    3  A    between atoms: C_2  and  N_4
REMARK    4  A    between atoms: N_4  and  C_5
REMARK    5  A    between atoms: C_5  and  C_6
REMARK    6  A    between atoms: C_6  and  C_7
REMARK    7  A    between atoms: C_10  and  C_11
REMARK    8  A    between atoms: C_11  and  N_12
REMARK    9  A    between atoms: C_17  and  C_18
REMARK                            x       y       z     vdW  Elec       q    Type
REMARK                         _______ _______ _______ _____ _____    ______ ____
ROOT
ATOM      1  C   UNL     1      47.589   4.857  16.247  0.00  0.00    +0.000 C 
ENDROOT
BRANCH   1   2
ATOM      2  N   UNL     1      47.557   5.141  14.820  0.00  0.00    +0.000 N 
ATOM      3  N   UNL     1      47.906   6.401  14.468  0.00  0.00    +0.000 NA
ATOM      4  N   UNL     1      47.220   6.726  13.385  0.00  0.00    +0.000 NA
ATOM      5  C   UNL     1      46.535   5.623  12.974  0.00  0.00    +0.000 A 
ATOM      6  C   UNL     1      45.648   5.473  11.914  0.00  0.00    +0.000 A 
ATOM      7  C   UNL     1      45.172   4.186  11.718  0.00  0.00    +0.000 A 
ATOM      8  N   UNL     1      45.510   3.105  12.484  0.00  0.00    +0.000 NA
ATOM      9  C   UNL     1      46.322   3.280  13.564  0.00  0.00    +0.000 A 
ATOM     10  C   UNL     1      46.818   4.549  13.816  0.00  0.00    +0.000 A 
BRANCH   7  11
ATOM     11  C   UNL     1      44.218   3.960  10.582  0.00  0.00    +0.000 C 
ATOM     12  N   UNL     1      43.793   5.081   9.924  0.00  0.00    +0.000 N 
ATOM     13  O   UNL     1      43.830   2.849  10.252  0.00  0.00    +0.000 OA
ATOM     14  H   UNL     1      44.117   5.997  10.214  0.00  0.00    +0.000 HD
ATOM     15  H   UNL     1      43.147   4.981   9.151  0.00  0.00    +0.000 HD
ENDBRANCH   7  11
ENDBRANCH   1   2
BRANCH   1  19
ATOM     16  C   UNL     1      51.149   2.915  17.541  0.00  0.00    +0.000 A 
ATOM     17  C   UNL     1      50.024   2.134  17.270  0.00  0.00    +0.000 A 
ATOM     18  C   UNL     1      48.833   2.745  16.869  0.00  0.00    +0.000 A 
ATOM     19  C   UNL     1      48.794   4.132  16.758  0.00  0.00    +0.000 A 
ATOM     20  N   UNL     1      49.882   4.903  16.999  0.00  0.00    +0.000 NA
ATOM     21  C   UNL     1      51.026   4.286  17.356  0.00  0.00    +0.000 A 
BRANCH  16  22
ATOM     22  C   UNL     1      52.445   2.320  18.039  0.00  0.00    +0.000 C 
BRANCH  22  23
ATOM     23  C   UNL     1      52.695   0.947  17.388  0.00  0.00    +0.000 C 
BRANCH  23  24
ATOM     24  N   UNL     1      52.924  -0.110  18.376  0.00  0.00    +0.000 NA
ATOM     25  H   UNL     1      52.944   0.299  19.310  0.00  0.00    +0.000 HD
BRANCH  24  27
ATOM     26  C   UNL     1      54.756  -0.396  16.789  0.00  0.00    +0.000 C 
ATOM     27  C   UNL     1      54.190  -0.831  18.143  0.00  0.00    +0.000 C 
ATOM     28  C   UNL     1      55.236  -0.575  19.233  0.00  0.00    +0.000 C 
ENDBRANCH  24  27
ENDBRANCH  23  24
ENDBRANCH  22  23
ENDBRANCH  16  22
ENDBRANCH   1  19
TORSDOF 7
ENDMDL
MODEL 9
REMARK VINA RESULT:    -6.063      3.337      5.774
REMARK INTER + INTRA:          -9.413
REMARK INTER:                  -8.514
REMARK INTRA:                  -0.899
REMARK UNBOUND:                -0.869
REMARK  Name = 
REMARK  9 active torsions:
REMARK  status: ('A' for Active; 'I' for Inactive)
REMARK    1  A    between atoms: C_1  and  C_2
REMARK    2  A    between atoms: C_2  and  C_3
REMARK    3  A    between atoms: C_2  and  N_4
REMARK    4  A    between atoms: N_4  and  C_5
REMARK    5  A    between atoms: C_5  and  C_6
REMARK    6  A    between atoms: C_6  and  C_7
REMARK    7  A    between atoms: C_10  and  C_11
REMARK    8  A    between atoms: C_11  and  N_12
REMARK    9  A    between atoms: C_17  and  C_18
REMARK                            x       y       z     vdW  Elec       q    Type
REMARK                         _______ _______ _______ _____ _____    ______ ____
ROOT
ATOM      1  C   UNL     1      48.487   7.280  14.975  0.00  0.00    +0.000 C 
ENDROOT
BRANCH   1   2
ATOM      2  N   UNL     1      48.129   6.737  13.673  0.00  0.00    +0.000 N 
ATOM      3  N   UNL     1      48.201   7.608  12.638  0.00  0.00    +0.000 NA
ATOM      4  N   UNL     1      47.272   7.273  11.759  0.00  0.00    +0.000 NA
ATOM      5  C   UNL     1      46.700   6.109  12.174  0.00  0.00    +0.000 A 
ATOM      6  C   UNL     1      45.655   5.383  11.612  0.00  0.00    +0.000 A 
ATOM      7  C   UNL     1      45.357   4.187  12.247  0.00  0.00    +0.000 A 
ATOM      8  N   UNL     1      46.004   3.708  13.352  0.00  0.00    +0.000 NA
ATOM      9  C   UNL     1      46.976   4.464  13.935  0.00  0.00    +0.000 A 
ATOM     10  C   UNL     1      47.308   5.676  13.351  0.00  0.00    +0.000 A 
BRANCH   7  11
ATOM     11  C   UNL     1      44.244   3.355  11.679  0.00  0.00    +0.000 C 
ATOM     12  N   UNL     1      43.738   2.388  12.502  0.00  0.00    +0.000 N 
ATOM     13  O   UNL     1      43.806   3.516  10.549  0.00  0.00    +0.000 OA
ATOM     14  H   UNL     1      44.117   2.261  13.433  0.00  0.00    +0.000 HD
ATOM     15  H   UNL     1      42.987   1.800  12.164  0.00  0.00    +0.000 HD
ENDBRANCH   7  11
ENDBRANCH   1   2
BRANCH   1  19
ATOM     16  C   UNL     1      51.787   5.590  17.068  0.00  0.00    +0.000 A 
ATOM     17  C   UNL     1      52.013   6.694  16.244  0.00  0.00    +0.000 A 
ATOM     18  C   UNL     1      50.955   7.254  15.524  0.00  0.00    +0.000 A 
ATOM     19  C   UNL     1      49.689   6.686  15.639  0.00  0.00    +0.000 A 
ATOM     20  N   UNL     1      49.448   5.627  16.448  0.00  0.00    +0.000 NA
ATOM     21  C   UNL     1      50.480   5.123  17.154  0.00  0.00    +0.000 A 
BRANCH  16  22
ATOM     22  C   UNL     1      52.899   4.901  17.822  0.00  0.00    +0.000 C 
BRANCH  22  23
ATOM     23  C   UNL     1      52.350   4.210  19.084  0.00  0.00    +0.000 C 
BRANCH  23  24
ATOM     24  N   UNL     1      52.761   2.807  19.179  0.00  0.00    +0.000 NA
ATOM     25  H   UNL     1      53.668   2.750  19.642  0.00  0.00    +0.000 HD
BRANCH  24  27
ATOM     26  C   UNL     1      54.082   1.242  17.853  0.00  0.00    +0.000 C 
ATOM     27  C   UNL     1      52.857   2.159  17.857  0.00  0.00    +0.000 C 
ATOM     28  C   UNL     1      51.613   1.341  17.498  0.00  0.00    +0.000 C 
ENDBRANCH  24  27
ENDBRANCH  23  24
ENDBRANCH  22  23
ENDBRANCH  16  22
ENDBRANCH   1  19
TORSDOF 7
ENDMDL
