MODEL 1
REMARK VINA RESULT:    -8.140      0.000      0.000
REMARK INTER + INTRA:         -10.780
REMARK INTER:                 -10.282
REMARK INTRA:                  -0.499
REMARK UNBOUND:                -0.499
REMARK  Name = 
REMARK  5 active torsions:
REMARK  status: ('A' for Active; 'I' for Inactive)
REMARK    1  A    between atoms: C_2  and  C_4
REMARK    2  A    between atoms: C_7  and  C_8
REMARK    3  A    between atoms: C_8  and  C_9
REMARK    4  A    between atoms: C_9  and  C_10
REMARK    5  A    between atoms: C_17  and  O_18
REMARK                            x       y       z     vdW  Elec       q    Type
REMARK                         _______ _______ _______ _____ _____    ______ ____
ROOT
ATOM      1  C   UNL     1      43.818   4.697  10.086  0.00  0.00    +0.000 C 
ENDROOT
BRANCH   1   5
ATOM      2  C   UNL     1      46.566   2.585   7.692  0.00  0.00    +0.000 A 
ATOM      3  N   UNL     1      45.821   1.845   8.548  0.00  0.00    +0.000 NA
ATOM      4  C   UNL     1      44.970   2.543   9.325  0.00  0.00    +0.000 A 
ATOM      5  C   UNL     1      44.842   3.919   9.306  0.00  0.00    +0.000 A 
ATOM      6  C   UNL     1      45.656   4.556   8.384  0.00  0.00    +0.000 A 
ATOM      7  N   UNL     1      46.524   3.922   7.572  0.00  0.00    +0.000 NA
BRANCH   2   9
ATOM      8  N   UNL     1      48.565   2.515   6.283  0.00  0.00    +0.000 N 
ATOM      9  C   UNL     1      47.469   1.821   6.749  0.00  0.00    +0.000 C 
ATOM     10  O   UNL     1      47.286   0.656   6.410  0.00  0.00    +0.000 OA
ATOM     11  H   UNL     1      49.222   2.043   5.678  0.00  0.00    +0.000 HD
ATOM     12  H   UNL     1      48.728   3.469   6.580  0.00  0.00    +0.000 HD
ENDBRANCH   2   9
ENDBRANCH   1   5
BRANCH   1  13
ATOM     13  C   UNL     1      44.019   4.706  11.598  0.00  0.00    +0.000 C 
ATOM     14  C   UNL     1      43.313   3.638  12.422  0.00  0.00    +0.000 C 
ATOM     15  C   UNL     1      42.777   5.031  12.434  0.00  0.00    +0.000 C 
BRANCH  13  16
ATOM     16  C   UNL     1      45.348   5.265  12.092  0.00  0.00    +0.000 A 
ATOM     17  C   UNL     1      46.165   4.602  12.998  0.00  0.00    +0.000 A 
ATOM     18  N   UNL     1      47.366   5.046  13.434  0.00  0.00    +0.000 NA
ATOM     19  C   UNL     1      47.769   6.215  12.921  0.00  0.00    +0.000 A 
ATOM     20  N   UNL     1      47.086   6.966  12.048  0.00  0.00    +0.000 NA
ATOM     21  C   UNL     1      45.892   6.466  11.662  0.00  0.00    +0.000 A 
ENDBRANCH  13  16
BRANCH  15  22
ATOM     22  O   UNL     1      42.986   5.779  13.643  0.00  0.00    +0.000 OA
ATOM     23  H   UNL     1      42.711   5.287  14.435  0.00  0.00    +0.000 HD
ENDBRANCH  15  22
ENDBRANCH   1  13
TORSDOF 5
ENDMDL
MODEL 2
REMARK VINA RESULT:    -7.038      1.154      1.811
REMARK INTER + INTRA:          -9.389
REMARK INTER:                  -8.973
REMARK INTRA:                  -0.415
REMARK UNBOUND:                -0.499
REMARK  Name = 
REMARK  5 active torsions:
REMARK  status: ('A' for Active; 'I' for Inactive)
REMARK    1  A    between atoms: C_2  and  C_4
REMARK    2  A    between atoms: C_7  and  C_8
REMARK    3  A    between atoms: C_8  and  C_9
REMARK    4  A    between atoms: C_9  and  C_10
REMARK    5  A    between atoms: C_17  and  O_18
REMARK                            x       y       z     vdW  Elec       q    Type
REMARK                         _______ _______ _______ _____ _____    ______ ____
ROOT
ATOM      1  C   UNL     1      43.934   4.087  10.227  0.00  0.00    +0.000 C 
ENDROOT
BRANCH   1   5
ATOM      2  C   UNL     1      46.619   2.749   7.270  0.00  0.00    +0.000 A 
ATOM      3  N   UNL     1      46.493   4.091   7.406  0.00  0.00    +0.000 NA
ATOM      4  C   UNL     1      45.608   4.497   8.337  0.00  0.00    +0.000 A 
ATOM      5  C   UNL     1      44.841   3.647   9.111  0.00  0.00    +0.000 A 
ATOM      6  C   UNL     1      45.068   2.301   8.878  0.00  0.00    +0.000 A 
ATOM      7  N   UNL     1      45.940   1.824   7.970  0.00  0.00    +0.000 NA
BRANCH   2   9
ATOM      8  N   UNL     1      47.842   3.049   5.173  0.00  0.00    +0.000 N 
ATOM      9  C   UNL     1      47.666   2.264   6.293  0.00  0.00    +0.000 C 
ATOM     10  O   UNL     1      48.348   1.257   6.454  0.00  0.00    +0.000 OA
ATOM     11  H   UNL     1      48.553   2.793   4.503  0.00  0.00    +0.000 HD
ATOM     12  H   UNL     1      47.295   3.892   5.051  0.00  0.00    +0.000 HD
ENDBRANCH   2   9
ENDBRANCH   1   5
BRANCH   1  13
ATOM     13  C   UNL     1      44.628   4.377  11.554  0.00  0.00    +0.000 C 
ATOM     14  C   UNL     1      45.326   3.226  12.266  0.00  0.00    +0.000 C 
ATOM     15  C   UNL     1      44.013   3.708  12.789  0.00  0.00    +0.000 C 
BRANCH  13  16
ATOM     16  C   UNL     1      45.164   5.792  11.733  0.00  0.00    +0.000 A 
ATOM     17  C   UNL     1      46.472   6.071  12.106  0.00  0.00    +0.000 A 
ATOM     18  N   UNL     1      46.996   7.311  12.241  0.00  0.00    +0.000 NA
ATOM     19  C   UNL     1      46.159   8.322  11.975  0.00  0.00    +0.000 A 
ATOM     20  N   UNL     1      44.876   8.204  11.614  0.00  0.00    +0.000 NA
ATOM     21  C   UNL     1      44.417   6.939  11.507  0.00  0.00    +0.000 A 
ENDBRANCH  13  16
BRANCH  15  22
ATOM     22  O   UNL     1      44.056   4.450  14.018  0.00  0.00    +0.000 OA
ATOM     23  H   UNL     1      44.581   4.003  14.704  0.00  0.00    +0.000 HD
ENDBRANCH  15  22
ENDBRANCH   1  13
TORSDOF 5
ENDMDL
MODEL 3
REMARK VINA RESULT:    -5.947      2.890      6.263
REMARK INTER + INTRA:          -8.011
REMARK INTER:                  -8.714
REMARK INTRA:                   0.704
REMARK UNBOUND:                -0.499
REMARK  Name = 
REMARK  5 active torsions:
REMARK  status: ('A' for Active; 'I' for Inactive)
REMARK    1  A    between atoms: C_2  and  C_4
REMARK    2  A    between atoms: C_7  and  C_8
REMARK    3  A    between atoms: C_8  and  C_9
REMARK    4  A    between atoms: C_9  and  C_10
REMARK    5  A    between atoms: C_17  and  O_18
REMARK                            x       y       z     vdW  Elec       q    Type
REMARK                         _______ _______ _______ _____ _____    ______ ____
ROOT
ATOM      1  C   UNL     1      47.057   6.127  12.234  0.00  0.00    +0.000 C 
ENDROOT
BRANCH   1   5
ATOM      2  C   UNL     1      47.719   3.846  15.713  0.00  0.00    +0.000 A 
ATOM      3  N   UNL     1      47.233   3.179  14.639  0.00  0.00    +0.000 NA
ATOM      4  C   UNL     1      47.001   3.932  13.546  0.00  0.00    +0.000 A 
ATOM      5  C   UNL     1      47.205   5.297  13.479  0.00  0.00    +0.000 A 
ATOM      6  C   UNL     1      47.707   5.858  14.642  0.00  0.00    +0.000 A 
ATOM      7  N   UNL     1      47.969   5.166  15.767  0.00  0.00    +0.000 NA
BRANCH   2   9
ATOM      8  N   UNL     1      47.011   2.693  17.751  0.00  0.00    +0.000 N 
ATOM      9  C   UNL     1      48.068   3.013  16.925  0.00  0.00    +0.000 C 
ATOM     10  O   UNL     1      49.197   2.612  17.186  0.00  0.00    +0.000 OA
ATOM     11  H   UNL     1      47.179   2.108  18.557  0.00  0.00    +0.000 HD
ATOM     12  H   UNL     1      46.075   3.005  17.525  0.00  0.00    +0.000 HD
ENDBRANCH   2   9
ENDBRANCH   1   5
BRANCH   1  13
ATOM     13  C   UNL     1      45.658   6.147  11.627  0.00  0.00    +0.000 C 
ATOM     14  C   UNL     1      44.935   7.485  11.534  0.00  0.00    +0.000 C 
ATOM     15  C   UNL     1      44.519   6.511  12.586  0.00  0.00    +0.000 C 
BRANCH  13  16
ATOM     16  C   UNL     1      45.365   5.074  10.586  0.00  0.00    +0.000 A 
ATOM     17  C   UNL     1      44.826   3.833  10.900  0.00  0.00    +0.000 A 
ATOM     18  N   UNL     1      44.519   2.868  10.003  0.00  0.00    +0.000 NA
ATOM     19  C   UNL     1      44.757   3.175   8.722  0.00  0.00    +0.000 A 
ATOM     20  N   UNL     1      45.277   4.323   8.274  0.00  0.00    +0.000 NA
ATOM     21  C   UNL     1      45.568   5.239   9.224  0.00  0.00    +0.000 A 
ENDBRANCH  13  16
BRANCH  15  22
ATOM     22  O   UNL     1      43.259   5.854  12.376  0.00  0.00    +0.000 OA
ATOM     23  H   UNL     1      43.062   5.722  11.433  0.00  0.00    +0.000 HD
ENDBRANCH  15  22
ENDBRANCH   1  13
TORSDOF 5
ENDMDL
MODEL 4
REMARK VINA RESULT:    -5.932      2.589      6.392
REMARK INTER + INTRA:          -7.991
REMARK INTER:                  -7.911
REMARK INTRA:                  -0.080
REMARK UNBOUND:                -0.499
REMARK  Name = 
REMARK  5 active torsions:
REMARK  status: ('A' for Active; 'I' for Inactive)
REMARK    1  A    between atoms: C_2  and  C_4
REMARK    2  A    between atoms: C_7  and  C_8
REMARK    3  A    between atoms: C_8  and  C_9
REMARK    4  A    between atoms: C_9  and  C_10
REMARK    5  A    between atoms: C_17  and  O_18
REMARK                            x       y       z     vdW  Elec       q    Type
REMARK                         _______ _______ _______ _____ _____    ______ ____
ROOT
ATOM      1  C   UNL     1      45.689   3.961  13.214  0.00  0.00    +0.000 C 
ENDROOT
BRANCH   1   5
ATOM      2  C   UNL     1      48.768   6.368  14.786  0.00  0.00    +0.000 A 
ATOM      3  N   UNL     1      48.494   6.525  13.469  0.00  0.00    +0.000 NA
ATOM      4  C   UNL     1      47.526   5.725  12.980  0.00  0.00    +0.000 A 
ATOM      5  C   UNL     1      46.845   4.778  13.721  0.00  0.00    +0.000 A 
ATOM      6  C   UNL     1      47.216   4.721  15.054  0.00  0.00    +0.000 A 
ATOM      7  N   UNL     1      48.168   5.493  15.611  0.00  0.00    +0.000 NA
BRANCH   2   9
ATOM      8  N   UNL     1      50.985   7.398  14.698  0.00  0.00    +0.000 N 
ATOM      9  C   UNL     1      49.790   7.311  15.380  0.00  0.00    +0.000 C 
ATOM     10  O   UNL     1      49.604   7.984  16.389  0.00  0.00    +0.000 OA
ATOM     11  H   UNL     1      51.691   8.039  15.029  0.00  0.00    +0.000 HD
ATOM     12  H   UNL     1      51.130   6.859  13.854  0.00  0.00    +0.000 HD
ENDBRANCH   2   9
ENDBRANCH   1   5
BRANCH   1  13
ATOM     13  C   UNL     1      44.768   4.673  12.229  0.00  0.00    +0.000 C 
ATOM     14  C   UNL     1      44.315   6.088  12.563  0.00  0.00    +0.000 C 
ATOM     15  C   UNL     1      43.349   4.962  12.730  0.00  0.00    +0.000 C 
BRANCH  13  16
ATOM     16  C   UNL     1      44.913   4.268  10.767  0.00  0.00    +0.000 A 
ATOM     17  C   UNL     1      45.435   5.106   9.791  0.00  0.00    +0.000 A 
ATOM     18  N   UNL     1      45.612   4.773   8.492  0.00  0.00    +0.000 NA
ATOM     19  C   UNL     1      45.255   3.525   8.163  0.00  0.00    +0.000 A 
ATOM     20  N   UNL     1      44.733   2.614   8.992  0.00  0.00    +0.000 NA
ATOM     21  C   UNL     1      44.576   3.017  10.272  0.00  0.00    +0.000 A 
ENDBRANCH  13  16
BRANCH  15  22
ATOM     22  O   UNL     1      42.291   4.888  11.762  0.00  0.00    +0.000 OA
ATOM     23  H   UNL     1      42.524   5.323  10.923  0.00  0.00    +0.000 HD
ENDBRANCH  15  22
ENDBRANCH   1  13
TORSDOF 5
ENDMDL
MODEL 5
REMARK VINA RESULT:    -5.624      2.543      6.011
REMARK INTER + INTRA:          -7.603
REMARK INTER:                  -7.996
REMARK INTRA:                   0.393
REMARK UNBOUND:                -0.499
REMARK  Name = 
REMARK  5 active torsions:
REMARK  status: ('A' for Active; 'I' for Inactive)
REMARK    1  A    between atoms: C_2  and  C_4
REMARK    2  A    between atoms: C_7  and  C_8
REMARK    3  A    between atoms: C_8  and  C_9
REMARK    4  A    between atoms: C_9  and  C_10
REMARK    5  A    between atoms: C_17  and  O_18
REMARK                            x       y       z     vdW  Elec       q    Type
REMARK                         _______ _______ _______ _____ _____    ______ ____
ROOT
ATOM      1  C   UNL     1      45.456   4.797  12.633  0.00  0.00    +0.000 C 
ENDROOT
BRANCH   1   5
ATOM      2  C   UNL     1      46.938   8.714  12.177  0.00  0.00    +0.000 A 
ATOM      3  N   UNL     1      45.646   8.601  12.569  0.00  0.00    +0.000 NA
ATOM      4  C   UNL     1      45.183   7.340  12.679  0.00  0.00    +0.000 A 
ATOM      5  C   UNL     1      45.926   6.207  12.405  0.00  0.00    +0.000 A 
ATOM      6  C   UNL     1      47.232   6.459  12.019  0.00  0.00    +0.000 A 
ATOM      7  N   UNL     1      47.762   7.691  11.894  0.00  0.00    +0.000 NA
BRANCH   2   9
ATOM      8  N   UNL     1      46.657  11.117  12.538  0.00  0.00    +0.000 N 
ATOM      9  C   UNL     1      47.508  10.113  12.126  0.00  0.00    +0.000 C 
ATOM     10  O   UNL     1      48.649  10.381  11.765  0.00  0.00    +0.000 OA
ATOM     11  H   UNL     1      46.997  12.068  12.558  0.00  0.00    +0.000 HD
ATOM     12  H   UNL     1      45.723  10.894  12.857  0.00  0.00    +0.000 HD
ENDBRANCH   2   9
ENDBRANCH   1   5
BRANCH   1  13
ATOM     13  C   UNL     1      44.403   4.294  11.652  0.00  0.00    +0.000 C 
ATOM     14  C   UNL     1      42.985   4.835  11.780  0.00  0.00    +0.000 C 
ATOM     15  C   UNL     1      43.275   3.450  12.257  0.00  0.00    +0.000 C 
BRANCH  13  16
ATOM     16  C   UNL     1      44.914   3.876  10.278  0.00  0.00    +0.000 A 
ATOM     17  C   UNL     1      45.147   2.555   9.920  0.00  0.00    +0.000 A 
ATOM     18  N   UNL     1      45.566   2.141   8.702  0.00  0.00    +0.000 NA
ATOM     19  C   UNL     1      45.748   3.108   7.795  0.00  0.00    +0.000 A 
ATOM     20  N   UNL     1      45.570   4.419   8.000  0.00  0.00    +0.000 NA
ATOM     21  C   UNL     1      45.159   4.762   9.240  0.00  0.00    +0.000 A 
ENDBRANCH  13  16
BRANCH  15  22
ATOM     22  O   UNL     1      42.758   2.382  11.448  0.00  0.00    +0.000 OA
ATOM     23  H   UNL     1      43.256   1.554  11.563  0.00  0.00    +0.000 HD
ENDBRANCH  15  22
ENDBRANCH   1  13
TORSDOF 5
ENDMDL
MODEL 6
REMARK VINA RESULT:    -5.435      2.846      6.546
REMARK INTER + INTRA:          -7.364
REMARK INTER:                  -8.516
REMARK INTRA:                   1.152
REMARK UNBOUND:                -0.499
REMARK  Name = 
REMARK  5 active torsions:
REMARK  status: ('A' for Active; 'I' for Inactive)
REMARK    1  A    between atoms: C_2  and  C_4
REMARK    2  A    between atoms: C_7  and  C_8
REMARK    3  A    between atoms: C_8  and  C_9
REMARK    4  A    between atoms: C_9  and  C_10
REMARK    5  A    between atoms: C_17  and  O_18
REMARK                            x       y       z     vdW  Elec       q    Type
REMARK                         _______ _______ _______ _____ _____    ______ ____
ROOT
ATOM      1  C   UNL     1      47.087   6.270  11.968  0.00  0.00    +0.000 C 
ENDROOT
BRANCH   1   5
ATOM      2  C   UNL     1      47.477   4.539  15.788  0.00  0.00    +0.000 A 
ATOM      3  N   UNL     1      48.135   5.706  15.586  0.00  0.00    +0.000 NA
ATOM      4  C   UNL     1      48.021   6.227  14.348  0.00  0.00    +0.000 A 
ATOM      5  C   UNL     1      47.313   5.643  13.316  0.00  0.00    +0.000 A 
ATOM      6  C   UNL     1      46.684   4.456  13.654  0.00  0.00    +0.000 A 
ATOM      7  N   UNL     1      46.749   3.882  14.870  0.00  0.00    +0.000 NA
BRANCH   2   9
ATOM      8  N   UNL     1      46.939   4.761  18.164  0.00  0.00    +0.000 N 
ATOM      9  C   UNL     1      47.518   3.975  17.190  0.00  0.00    +0.000 C 
ATOM     10  O   UNL     1      48.009   2.890  17.484  0.00  0.00    +0.000 OA
ATOM     11  H   UNL     1      46.906   4.417  19.113  0.00  0.00    +0.000 HD
ATOM     12  H   UNL     1      46.515   5.646  17.919  0.00  0.00    +0.000 HD
ENDBRANCH   2   9
ENDBRANCH   1   5
BRANCH   1  13
ATOM     13  C   UNL     1      45.644   6.253  11.474  0.00  0.00    +0.000 C 
ATOM     14  C   UNL     1      44.892   7.576  11.411  0.00  0.00    +0.000 C 
ATOM     15  C   UNL     1      44.579   6.619  12.513  0.00  0.00    +0.000 C 
BRANCH  13  16
ATOM     16  C   UNL     1      45.289   5.152  10.483  0.00  0.00    +0.000 A 
ATOM     17  C   UNL     1      45.599   5.213   9.130  0.00  0.00    +0.000 A 
ATOM     18  N   UNL     1      45.333   4.243   8.226  0.00  0.00    +0.000 NA
ATOM     19  C   UNL     1      44.734   3.150   8.713  0.00  0.00    +0.000 A 
ATOM     20  N   UNL     1      44.371   2.955   9.986  0.00  0.00    +0.000 NA
ATOM     21  C   UNL     1      44.659   3.967  10.833  0.00  0.00    +0.000 A 
ENDBRANCH  13  16
BRANCH  15  22
ATOM     22  O   UNL     1      43.319   5.936  12.419  0.00  0.00    +0.000 OA
ATOM     23  H   UNL     1      43.078   5.486  13.247  0.00  0.00    +0.000 HD
ENDBRANCH  15  22
ENDBRANCH   1  13
TORSDOF 5
ENDMDL
MODEL 7
REMARK VINA RESULT:    -5.290      4.402      6.457
REMARK INTER + INTRA:          -7.180
REMARK INTER:                  -7.186
REMARK INTRA:                   0.005
REMARK UNBOUND:                -0.499
REMARK  Name = 
REMARK  5 active torsions:
REMARK  status: ('A' for Active; 'I' for Inactive)
REMARK    1  A    between atoms: C_2  and  C_4
REMARK    2  A    between atoms: C_7  and  C_8
REMARK    3  A    between atoms: C_8  and  C_9
REMARK    4  A    between atoms: C_9  and  C_10
REMARK    5  A    between atoms: C_17  and  O_18
REMARK                            x       y       z     vdW  Elec       q    Type
REMARK                         _______ _______ _______ _____ _____    ______ ____
ROOT
ATOM      1  C   UNL     1      47.993   5.216  15.604  0.00  0.00    +0.000 C 
ENDROOT
BRANCH   1   5
ATOM      2  C   UNL     1      45.369   3.889  12.588  0.00  0.00    +0.000 A 
ATOM      3  N   UNL     1      46.206   2.960  13.109  0.00  0.00    +0.000 NA
ATOM      4  C   UNL     1      47.057   3.412  14.051  0.00  0.00    +0.000 A 
ATOM      5  C   UNL     1      47.127   4.725  14.477  0.00  0.00    +0.000 A 
ATOM      6  C   UNL     1      46.216   5.573  13.869  0.00  0.00    +0.000 A 
ATOM      7  N   UNL     1      45.333   5.189  12.927  0.00  0.00    +0.000 NA
BRANCH   2   9
ATOM      8  N   UNL     1      44.845   2.615  10.566  0.00  0.00    +0.000 N 
ATOM      9  C   UNL     1      44.347   3.393  11.590  0.00  0.00    +0.000 C 
ATOM     10  O   UNL     1      43.145   3.629  11.658  0.00  0.00    +0.000 OA
ATOM     11  H   UNL     1      44.202   2.227   9.891  0.00  0.00    +0.000 HD
ATOM     12  H   UNL     1      45.833   2.403  10.523  0.00  0.00    +0.000 HD
ENDBRANCH   2   9
ENDBRANCH   1   5
BRANCH   1  13
ATOM     13  C   UNL     1      48.051   4.306  16.826  0.00  0.00    +0.000 C 
ATOM     14  C   UNL     1      46.754   3.676  17.314  0.00  0.00    +0.000 C 
ATOM     15  C   UNL     1      47.331   4.822  18.077  0.00  0.00    +0.000 C 
BRANCH  13  16
ATOM     16  C   UNL     1      49.363   3.563  17.044  0.00  0.00    +0.000 A 
ATOM     17  C   UNL     1      50.525   4.178  17.492  0.00  0.00    +0.000 A 
ATOM     18  N   UNL     1      51.697   3.548  17.732  0.00  0.00    +0.000 NA
ATOM     19  C   UNL     1      51.695   2.226  17.520  0.00  0.00    +0.000 A 
ATOM     20  N   UNL     1      50.658   1.504  17.083  0.00  0.00    +0.000 NA
ATOM     21  C   UNL     1      49.521   2.197  16.857  0.00  0.00    +0.000 A 
ENDBRANCH  13  16
BRANCH  15  22
ATOM     22  O   UNL     1      47.925   4.502  19.345  0.00  0.00    +0.000 OA
ATOM     23  H   UNL     1      47.279   4.521  20.072  0.00  0.00    +0.000 HD
ENDBRANCH  15  22
ENDBRANCH   1  13
TORSDOF 5
ENDMDL
MODEL 8
REMARK VINA RESULT:    -5.145      3.561      5.770
REMARK INTER + INTRA:          -6.997
REMARK INTER:                  -7.203
REMARK INTRA:                   0.206
REMARK UNBOUND:                -0.499
REMARK  Name = 
REMARK  5 active torsions:
REMARK  status: ('A' for Active; 'I' for Inactive)
REMARK    1  A    between atoms: C_2  and  C_4
REMARK    2  A    between atoms: C_7  and  C_8
REMARK    3  A    between atoms: C_8  and  C_9
REMARK    4  A    between atoms: C_9  and  C_10
REMARK    5  A    between atoms: C_17  and  O_18
REMARK                            x       y       z     vdW  Elec       q    Type
REMARK                         _______ _______ _______ _____ _____    ______ ____
ROOT
ATOM      1  C   UNL     1      48.269   7.044  12.494  0.00  0.00    +0.000 C 
ENDROOT
BRANCH   1   5
ATOM      2  C   UNL     1      44.896   4.552  12.092  0.00  0.00    +0.000 A 
ATOM      3  N   UNL     1      45.226   5.298  11.010  0.00  0.00    +0.000 NA
ATOM      4  C   UNL     1      46.289   6.110  11.170  0.00  0.00    +0.000 A 
ATOM      5  C   UNL     1      47.015   6.227  12.340  0.00  0.00    +0.000 A 
ATOM      6  C   UNL     1      46.579   5.408  13.368  0.00  0.00    +0.000 A 
ATOM      7  N   UNL     1      45.530   4.569  13.277  0.00  0.00    +0.000 NA
BRANCH   2   9
ATOM      8  N   UNL     1      43.883   2.386  12.609  0.00  0.00    +0.000 N 
ATOM      9  C   UNL     1      43.760   3.571  11.914  0.00  0.00    +0.000 C 
ATOM     10  O   UNL     1      42.768   3.780  11.223  0.00  0.00    +0.000 OA
ATOM     11  H   UNL     1      43.136   1.708  12.556  0.00  0.00    +0.000 HD
ATOM     12  H   UNL     1      44.691   2.222  13.196  0.00  0.00    +0.000 HD
ENDBRANCH   2   9
ENDBRANCH   1   5
BRANCH   1  13
ATOM     13  C   UNL     1      48.099   8.366  13.236  0.00  0.00    +0.000 C 
ATOM     14  C   UNL     1      49.313   8.951  13.945  0.00  0.00    +0.000 C 
ATOM     15  C   UNL     1      48.245   8.299  14.760  0.00  0.00    +0.000 C 
BRANCH  13  16
ATOM     16  C   UNL     1      47.037   9.309  12.686  0.00  0.00    +0.000 A 
ATOM     17  C   UNL     1      47.333  10.430  11.921  0.00  0.00    +0.000 A 
ATOM     18  N   UNL     1      46.419  11.272  11.387  0.00  0.00    +0.000 NA
ATOM     19  C   UNL     1      45.139  10.960  11.626  0.00  0.00    +0.000 A 
ATOM     20  N   UNL     1      44.707   9.920  12.349  0.00  0.00    +0.000 NA
ATOM     21  C   UNL     1      45.673   9.126  12.860  0.00  0.00    +0.000 A 
ENDBRANCH  13  16
BRANCH  15  22
ATOM     22  O   UNL     1      47.411   9.179  15.530  0.00  0.00    +0.000 OA
ATOM     23  H   UNL     1      47.547  10.114  15.301  0.00  0.00    +0.000 HD
ENDBRANCH  15  22
ENDBRANCH   1  13
TORSDOF 5
ENDMDL
