MODEL 1
REMARK VINA RESULT:    -7.287      0.000      0.000
REMARK INTER + INTRA:         -11.392
REMARK INTER:                 -10.269
REMARK INTRA:                  -1.123
REMARK UNBOUND:                -1.123
REMARK  Name = 
REMARK  7 active torsions:
REMARK  status: ('A' for Active; 'I' for Inactive)
REMARK    1  A    between atoms: C_2  and  C_3
REMARK    2  A    between atoms: C_7  and  C_8
REMARK    3  A    between atoms: N_10  and  C_11
REMARK    4  A    between atoms: C_11  and  C_12
REMARK    5  A    between atoms: C_15  and  C_16
REMARK    6  A    between atoms: C_16  and  N_17
REMARK    7  A    between atoms: C_18  and  C_20
REMARK                            x       y       z     vdW  Elec       q    Type
REMARK                         _______ _______ _______ _____ _____    ______ ____
ROOT
ATOM      1  C   UNL     1      49.519   7.689  15.301  0.00  0.00    +0.000 A 
ATOM      2  C   UNL     1      48.730   8.831  15.175  0.00  0.00    +0.000 A 
ATOM      3  C   UNL     1      47.821   8.923  14.118  0.00  0.00    +0.000 A 
ATOM      4  C   UNL     1      47.703   7.880  13.195  0.00  0.00    +0.000 A 
ATOM      5  C   UNL     1      48.543   6.786  13.394  0.00  0.00    +0.000 A 
ATOM      6  N   UNL     1      49.423   6.659  14.424  0.00  0.00    +0.000 NA
ENDROOT
BRANCH   1   7
ATOM      7  C   UNL     1      50.498   7.558  16.451  0.00  0.00    +0.000 C 
BRANCH   7  10
ATOM      8  C   UNL     1      49.808   5.572  17.715  0.00  0.00    +0.000 C 
ATOM      9  O   UNL     1      48.826   6.159  18.164  0.00  0.00    +0.000 OA
ATOM     10  N   UNL     1      50.708   6.176  16.864  0.00  0.00    +0.000 N 
ATOM     11  H   UNL     1      51.654   5.822  16.809  0.00  0.00    +0.000 HD
BRANCH   8  16
ATOM     12  C   UNL     1      49.483   3.144  17.006  0.00  0.00    +0.000 C 
ATOM     13  C   UNL     1      50.304   1.864  17.144  0.00  0.00    +0.000 C 
ATOM     14  C   UNL     1      51.650   2.284  17.732  0.00  0.00    +0.000 C 
ATOM     15  C   UNL     1      51.584   3.793  17.937  0.00  0.00    +0.000 C 
ATOM     16  C   UNL     1      50.097   4.111  18.040  0.00  0.00    +0.000 C 
BRANCH  12  18
ATOM     17  N   UNL     1      46.800   2.713  17.601  0.00  0.00    +0.000 NA
ATOM     18  C   UNL     1      48.016   2.908  17.331  0.00  0.00    +0.000 C 
ENDBRANCH  12  18
ENDBRANCH   8  16
ENDBRANCH   7  10
ENDBRANCH   1   7
BRANCH   4  19
ATOM     19  C   UNL     1      46.725   7.894  12.043  0.00  0.00    +0.000 C 
BRANCH  19  20
ATOM     20  N   UNL     1      46.195   6.589  11.738  0.00  0.00    +0.000 N 
ATOM     21  C   UNL     1      44.852   6.361  11.557  0.00  0.00    +0.000 C 
ATOM     22  O   UNL     1      44.002   7.252  11.640  0.00  0.00    +0.000 OA
ATOM     23  H   UNL     1      46.756   5.798  12.038  0.00  0.00    +0.000 HD
BRANCH  21  24
ATOM     24  C   UNL     1      44.492   4.978  11.214  0.00  0.00    +0.000 A 
ATOM     25  C   UNL     1      43.665   4.232  12.038  0.00  0.00    +0.000 A 
ATOM     26  S   UNL     1      43.334   2.666  11.439  0.00  0.00    +0.000 S 
ATOM     27  C   UNL     1      44.320   2.919  10.073  0.00  0.00    +0.000 A 
ATOM     28  N   UNL     1      44.504   1.944   9.144  0.00  0.00    +0.000 NA
ATOM     29  C   UNL     1      45.297   2.268   8.178  0.00  0.00    +0.000 A 
ATOM     30  N   UNL     1      45.914   3.486   8.049  0.00  0.00    +0.000 N 
ATOM     31  C   UNL     1      45.715   4.513   8.931  0.00  0.00    +0.000 A 
ATOM     32  O   UNL     1      46.214   5.627   8.743  0.00  0.00    +0.000 OA
ATOM     33  C   UNL     1      44.865   4.189  10.060  0.00  0.00    +0.000 A 
ATOM     34  H   UNL     1      46.502   3.689   7.252  0.00  0.00    +0.000 HD
ENDBRANCH  21  24
ENDBRANCH  19  20
ENDBRANCH   4  19
TORSDOF 7
ENDMDL
MODEL 2
REMARK VINA RESULT:    -6.844      1.460      2.080
REMARK INTER + INTRA:         -10.768
REMARK INTER:                  -9.626
REMARK INTRA:                  -1.142
REMARK UNBOUND:                -1.123
REMARK  Name = 
REMARK  7 active torsions:
REMARK  status: ('A' for Active; 'I' for Inactive)
REMARK    1  A    between atoms: C_2  and  C_3
REMARK    2  A    between atoms: C_7  and  C_8
REMARK    3  A    between atoms: N_10  and  C_11
REMARK    4  A    between atoms: C_11  and  C_12
REMARK    5  A    between atoms: C_15  and  C_16
REMARK    6  A    between atoms: C_16  and  N_17
REMARK    7  A    between atoms: C_18  and  C_20
REMARK                            x       y       z     vdW  Elec       q    Type
REMARK                         _______ _______ _______ _____ _____    ______ ____
ROOT
ATOM      1  C   UNL     1      49.866   7.831  15.668  0.00  0.00    +0.000 A 
ATOM      2  C   UNL     1      48.922   8.855  15.687  0.00  0.00    +0.000 A 
ATOM      3  C   UNL     1      48.199   9.142  14.526  0.00  0.00    +0.000 A 
ATOM      4  C   UNL     1      48.421   8.410  13.357  0.00  0.00    +0.000 A 
ATOM      5  C   UNL     1      49.394   7.415  13.430  0.00  0.00    +0.000 A 
ATOM      6  N   UNL     1      50.099   7.099  14.550  0.00  0.00    +0.000 NA
ENDROOT
BRANCH   1   7
ATOM      7  C   UNL     1      50.648   7.486  16.921  0.00  0.00    +0.000 C 
BRANCH   7  10
ATOM      8  C   UNL     1      49.970   5.429  18.071  0.00  0.00    +0.000 C 
ATOM      9  O   UNL     1      49.152   6.042  18.754  0.00  0.00    +0.000 OA
ATOM     10  N   UNL     1      50.771   6.051  17.138  0.00  0.00    +0.000 N 
ATOM     11  H   UNL     1      51.648   5.622  16.872  0.00  0.00    +0.000 HD
BRANCH   8  16
ATOM     12  C   UNL     1      49.468   3.161  17.019  0.00  0.00    +0.000 C 
ATOM     13  C   UNL     1      50.190   1.816  16.967  0.00  0.00    +0.000 C 
ATOM     14  C   UNL     1      51.560   2.044  17.604  0.00  0.00    +0.000 C 
ATOM     15  C   UNL     1      51.606   3.508  18.026  0.00  0.00    +0.000 C 
ATOM     16  C   UNL     1      50.146   3.918  18.180  0.00  0.00    +0.000 C 
BRANCH  12  18
ATOM     17  N   UNL     1      46.756   2.852  17.555  0.00  0.00    +0.000 NA
ATOM     18  C   UNL     1      47.986   2.992  17.312  0.00  0.00    +0.000 C 
ENDBRANCH  12  18
ENDBRANCH   8  16
ENDBRANCH   7  10
ENDBRANCH   1   7
BRANCH   4  19
ATOM     19  C   UNL     1      47.661   8.642  12.072  0.00  0.00    +0.000 C 
BRANCH  19  20
ATOM     20  N   UNL     1      47.119   7.432  11.509  0.00  0.00    +0.000 N 
ATOM     21  C   UNL     1      45.770   7.176  11.467  0.00  0.00    +0.000 C 
ATOM     22  O   UNL     1      44.923   7.960  11.903  0.00  0.00    +0.000 OA
ATOM     23  H   UNL     1      47.737   6.626  11.506  0.00  0.00    +0.000 HD
BRANCH  21  24
ATOM     24  C   UNL     1      45.392   5.909  10.824  0.00  0.00    +0.000 A 
ATOM     25  C   UNL     1      45.721   5.657   9.501  0.00  0.00    +0.000 A 
ATOM     26  S   UNL     1      45.229   4.113   8.956  0.00  0.00    +0.000 S 
ATOM     27  C   UNL     1      44.522   3.745  10.462  0.00  0.00    +0.000 A 
ATOM     28  N   UNL     1      43.887   2.562  10.675  0.00  0.00    +0.000 NA
ATOM     29  C   UNL     1      43.378   2.432  11.855  0.00  0.00    +0.000 A 
ATOM     30  N   UNL     1      43.458   3.374  12.848  0.00  0.00    +0.000 N 
ATOM     31  C   UNL     1      44.134   4.555  12.695  0.00  0.00    +0.000 A 
ATOM     32  O   UNL     1      44.264   5.346  13.634  0.00  0.00    +0.000 OA
ATOM     33  C   UNL     1      44.689   4.771  11.374  0.00  0.00    +0.000 A 
ATOM     34  H   UNL     1      43.064   3.200  13.762  0.00  0.00    +0.000 HD
ENDBRANCH  21  24
ENDBRANCH  19  20
ENDBRANCH   4  19
TORSDOF 7
ENDMDL
MODEL 3
REMARK VINA RESULT:    -6.460      2.838      9.180
REMARK INTER + INTRA:         -10.226
REMARK INTER:                  -9.681
REMARK INTRA:                  -0.546
REMARK UNBOUND:                -1.123
REMARK  Name = 
REMARK  7 active torsions:
REMARK  status: ('A' for Active; 'I' for Inactive)
REMARK    1  A    between atoms: C_2  and  C_3
REMARK    2  A    between atoms: C_7  and  C_8
REMARK    3  A    between atoms: N_10  and  C_11
REMARK    4  A    between atoms: C_11  and  C_12
REMARK    5  A    between atoms: C_15  and  C_16
REMARK    6  A    between atoms: C_16  and  N_17
REMARK    7  A    between atoms: C_18  and  C_20
REMARK                            x       y       z     vdW  Elec       q    Type
REMARK                         _______ _______ _______ _____ _____    ______ ____
ROOT
ATOM      1  C   UNL     1      44.947   5.043  11.548  0.00  0.00    +0.000 A 
ATOM      2  C   UNL     1      45.275   6.376  11.310  0.00  0.00    +0.000 A 
ATOM      3  C   UNL     1      46.350   6.950  11.996  0.00  0.00    +0.000 A 
ATOM      4  C   UNL     1      47.088   6.195  12.911  0.00  0.00    +0.000 A 
ATOM      5  C   UNL     1      46.676   4.876  13.093  0.00  0.00    +0.000 A 
ATOM      6  N   UNL     1      45.648   4.284  12.426  0.00  0.00    +0.000 NA
ENDROOT
BRANCH   1   7
ATOM      7  C   UNL     1      43.799   4.393  10.801  0.00  0.00    +0.000 C 
BRANCH   7  10
ATOM      8  C   UNL     1      44.892   3.647   8.736  0.00  0.00    +0.000 C 
ATOM      9  O   UNL     1      45.121   4.807   8.400  0.00  0.00    +0.000 OA
ATOM     10  N   UNL     1      44.233   3.330   9.904  0.00  0.00    +0.000 N 
ATOM     11  H   UNL     1      43.748   2.445   9.975  0.00  0.00    +0.000 HD
BRANCH   8  16
ATOM     12  C   UNL     1      46.800   2.605   7.404  0.00  0.00    +0.000 C 
ATOM     13  C   UNL     1      47.251   1.177   7.108  0.00  0.00    +0.000 C 
ATOM     14  C   UNL     1      46.368   0.267   7.961  0.00  0.00    +0.000 C 
ATOM     15  C   UNL     1      45.413   1.178   8.724  0.00  0.00    +0.000 C 
ATOM     16  C   UNL     1      45.346   2.457   7.898  0.00  0.00    +0.000 C 
BRANCH  12  18
ATOM     17  N   UNL     1      46.860   4.194   5.122  0.00  0.00    +0.000 NA
ATOM     18  C   UNL     1      46.833   3.473   6.156  0.00  0.00    +0.000 C 
ENDBRANCH  12  18
ENDBRANCH   8  16
ENDBRANCH   7  10
ENDBRANCH   1   7
BRANCH   4  19
ATOM     19  C   UNL     1      48.278   6.735  13.669  0.00  0.00    +0.000 C 
BRANCH  19  20
ATOM     20  N   UNL     1      48.094   6.714  15.098  0.00  0.00    +0.000 N 
ATOM     21  C   UNL     1      49.093   7.058  15.976  0.00  0.00    +0.000 C 
ATOM     22  O   UNL     1      50.217   7.413  15.611  0.00  0.00    +0.000 OA
ATOM     23  H   UNL     1      47.377   6.085  15.446  0.00  0.00    +0.000 HD
BRANCH  21  24
ATOM     24  C   UNL     1      48.720   7.017  17.397  0.00  0.00    +0.000 A 
ATOM     25  C   UNL     1      48.231   8.144  18.038  0.00  0.00    +0.000 A 
ATOM     26  S   UNL     1      47.816   7.875  19.675  0.00  0.00    +0.000 S 
ATOM     27  C   UNL     1      48.317   6.249  19.593  0.00  0.00    +0.000 A 
ATOM     28  N   UNL     1      48.257   5.435  20.680  0.00  0.00    +0.000 NA
ATOM     29  C   UNL     1      48.694   4.236  20.476  0.00  0.00    +0.000 A 
ATOM     30  N   UNL     1      49.174   3.773  19.278  0.00  0.00    +0.000 N 
ATOM     31  C   UNL     1      49.201   4.541  18.145  0.00  0.00    +0.000 A 
ATOM     32  O   UNL     1      49.556   4.071  17.060  0.00  0.00    +0.000 OA
ATOM     33  C   UNL     1      48.761   5.910  18.328  0.00  0.00    +0.000 A 
ATOM     34  H   UNL     1      49.474   2.814  19.175  0.00  0.00    +0.000 HD
ENDBRANCH  21  24
ENDBRANCH  19  20
ENDBRANCH   4  19
TORSDOF 7
ENDMDL
MODEL 4
REMARK VINA RESULT:    -6.402      2.890      8.691
REMARK INTER + INTRA:         -10.145
REMARK INTER:                  -9.057
REMARK INTRA:                  -1.088
REMARK UNBOUND:                -1.123
REMARK  Name = 
REMARK  7 active torsions:
REMARK  status: ('A' for Active; 'I' for Inactive)
REMARK    1  A    between atoms: C_2  and  C_3
REMARK    2  A    between atoms: C_7  and  C_8
REMARK    3  A    between atoms: N_10  and  C_11
REMARK    4  A    between atoms: C_11  and  C_12
REMARK    5  A    between atoms: C_15  and  C_16
REMARK    6  A    between atoms: C_16  and  N_17
REMARK    7  A    between atoms: C_18  and  C_20
REMARK                            x       y       z     vdW  Elec       q    Type
REMARK                         _______ _______ _______ _____ _____    ______ ____
ROOT
ATOM      1  C   UNL     1      47.957   7.519  13.316  0.00  0.00    +0.000 A 
ATOM      2  C   UNL     1      47.839   8.719  14.015  0.00  0.00    +0.000 A 
ATOM      3  C   UNL     1      48.290   8.789  15.336  0.00  0.00    +0.000 A 
ATOM      4  C   UNL     1      48.852   7.667  15.951  0.00  0.00    +0.000 A 
ATOM      5  C   UNL     1      48.915   6.510  15.178  0.00  0.00    +0.000 A 
ATOM      6  N   UNL     1      48.504   6.416  13.885  0.00  0.00    +0.000 NA
ENDROOT
BRANCH   1   7
ATOM      7  C   UNL     1      47.495   7.424  11.875  0.00  0.00    +0.000 C 
BRANCH   7  10
ATOM      8  C   UNL     1      45.217   6.671  11.364  0.00  0.00    +0.000 C 
ATOM      9  O   UNL     1      44.816   7.830  11.292  0.00  0.00    +0.000 OA
ATOM     10  N   UNL     1      46.527   6.357  11.657  0.00  0.00    +0.000 N 
ATOM     11  H   UNL     1      46.742   5.455  12.061  0.00  0.00    +0.000 HD
BRANCH   8  16
ATOM     12  C   UNL     1      45.077   4.237  10.615  0.00  0.00    +0.000 C 
ATOM     13  C   UNL     1      44.163   3.061  10.948  0.00  0.00    +0.000 C 
ATOM     14  C   UNL     1      43.263   3.531  12.089  0.00  0.00    +0.000 C 
ATOM     15  C   UNL     1      43.658   4.972  12.389  0.00  0.00    +0.000 C 
ATOM     16  C   UNL     1      44.302   5.479  11.105  0.00  0.00    +0.000 C 
BRANCH  12  18
ATOM     17  N   UNL     1      45.539   4.435   7.879  0.00  0.00    +0.000 NA
ATOM     18  C   UNL     1      45.330   4.346   9.120  0.00  0.00    +0.000 C 
ENDBRANCH  12  18
ENDBRANCH   8  16
ENDBRANCH   7  10
ENDBRANCH   1   7
BRANCH   4  19
ATOM     19  C   UNL     1      49.387   7.673  17.364  0.00  0.00    +0.000 C 
BRANCH  19  20
ATOM     20  N   UNL     1      50.332   6.615  17.615  0.00  0.00    +0.000 N 
ATOM     21  C   UNL     1      50.501   6.053  18.857  0.00  0.00    +0.000 C 
ATOM     22  O   UNL     1      49.856   6.407  19.848  0.00  0.00    +0.000 OA
ATOM     23  H   UNL     1      51.124   6.565  16.980  0.00  0.00    +0.000 HD
BRANCH  21  24
ATOM     24  C   UNL     1      51.481   4.960  18.923  0.00  0.00    +0.000 A 
ATOM     25  C   UNL     1      52.645   5.091  19.664  0.00  0.00    +0.000 A 
ATOM     26  S   UNL     1      53.629   3.693  19.645  0.00  0.00    +0.000 S 
ATOM     27  C   UNL     1      52.550   2.879  18.609  0.00  0.00    +0.000 A 
ATOM     28  N   UNL     1      52.808   1.619  18.168  0.00  0.00    +0.000 NA
ATOM     29  C   UNL     1      51.915   1.138  17.369  0.00  0.00    +0.000 A 
ATOM     30  N   UNL     1      50.777   1.797  16.981  0.00  0.00    +0.000 N 
ATOM     31  C   UNL     1      50.451   3.044  17.443  0.00  0.00    +0.000 A 
ATOM     32  O   UNL     1      49.378   3.578  17.146  0.00  0.00    +0.000 OA
ATOM     33  C   UNL     1      51.441   3.649  18.312  0.00  0.00    +0.000 A 
ATOM     34  H   UNL     1      50.101   1.354  16.376  0.00  0.00    +0.000 HD
ENDBRANCH  21  24
ENDBRANCH  19  20
ENDBRANCH   4  19
TORSDOF 7
ENDMDL
MODEL 5
REMARK VINA RESULT:    -6.368      3.321      9.299
REMARK INTER + INTRA:         -10.097
REMARK INTER:                  -9.242
REMARK INTRA:                  -0.855
REMARK UNBOUND:                -1.123
REMARK  Name = 
REMARK  7 active torsions:
REMARK  status: ('A' for Active; 'I' for Inactive)
REMARK    1  A    between atoms: C_2  and  C_3
REMARK    2  A    between atoms: C_7  and  C_8
REMARK    3  A    between atoms: N_10  and  C_11
REMARK    4  A    between atoms: C_11  and  C_12
REMARK    5  A    between atoms: C_15  and  C_16
REMARK    6  A    between atoms: C_16  and  N_17
REMARK    7  A    between atoms: C_18  and  C_20
REMARK                            x       y       z     vdW  Elec       q    Type
REMARK                         _______ _______ _______ _____ _____    ______ ____
ROOT
ATOM      1  C   UNL     1      47.512   5.600  14.841  0.00  0.00    +0.000 A 
ATOM      2  C   UNL     1      48.359   6.149  15.801  0.00  0.00    +0.000 A 
ATOM      3  C   UNL     1      48.696   5.396  16.929  0.00  0.00    +0.000 A 
ATOM      4  C   UNL     1      48.188   4.105  17.093  0.00  0.00    +0.000 A 
ATOM      5  C   UNL     1      47.338   3.646  16.089  0.00  0.00    +0.000 A 
ATOM      6  N   UNL     1      47.008   4.347  14.971  0.00  0.00    +0.000 NA
ENDROOT
BRANCH   1   7
ATOM      7  C   UNL     1      47.149   6.390  13.598  0.00  0.00    +0.000 C 
BRANCH   7  10
ATOM      8  C   UNL     1      45.646   5.436  11.910  0.00  0.00    +0.000 C 
ATOM      9  O   UNL     1      44.679   6.017  12.397  0.00  0.00    +0.000 OA
ATOM     10  N   UNL     1      46.916   5.544  12.435  0.00  0.00    +0.000 N 
ATOM     11  H   UNL     1      47.588   4.808  12.263  0.00  0.00    +0.000 HD
BRANCH   8  16
ATOM     12  C   UNL     1      44.059   4.286  10.280  0.00  0.00    +0.000 C 
ATOM     13  C   UNL     1      44.112   3.930   8.796  0.00  0.00    +0.000 C 
ATOM     14  C   UNL     1      45.385   4.575   8.251  0.00  0.00    +0.000 C 
ATOM     15  C   UNL     1      46.054   5.280   9.425  0.00  0.00    +0.000 C 
ATOM     16  C   UNL     1      45.527   4.566  10.664  0.00  0.00    +0.000 C 
BRANCH  12  18
ATOM     17  N   UNL     1      43.074   2.178  11.805  0.00  0.00    +0.000 NA
ATOM     18  C   UNL     1      43.521   3.134  11.114  0.00  0.00    +0.000 C 
ENDBRANCH  12  18
ENDBRANCH   8  16
ENDBRANCH   7  10
ENDBRANCH   1   7
BRANCH   4  19
ATOM     19  C   UNL     1      48.528   3.220  18.270  0.00  0.00    +0.000 C 
BRANCH  19  20
ATOM     20  N   UNL     1      49.933   2.913  18.358  0.00  0.00    +0.000 N 
ATOM     21  C   UNL     1      50.591   2.181  17.399  0.00  0.00    +0.000 C 
ATOM     22  O   UNL     1      50.034   1.736  16.393  0.00  0.00    +0.000 OA
ATOM     23  H   UNL     1      50.328   2.901  19.294  0.00  0.00    +0.000 HD
BRANCH  21  24
ATOM     24  C   UNL     1      52.030   1.996  17.631  0.00  0.00    +0.000 A 
ATOM     25  C   UNL     1      52.577   0.726  17.737  0.00  0.00    +0.000 A 
ATOM     26  S   UNL     1      54.271   0.727  17.962  0.00  0.00    +0.000 S 
ATOM     27  C   UNL     1      54.326   2.430  17.967  0.00  0.00    +0.000 A 
ATOM     28  N   UNL     1      55.496   3.100  18.149  0.00  0.00    +0.000 NA
ATOM     29  C   UNL     1      55.381   4.386  18.154  0.00  0.00    +0.000 A 
ATOM     30  N   UNL     1      54.203   5.066  17.980  0.00  0.00    +0.000 N 
ATOM     31  C   UNL     1      53.013   4.434  17.740  0.00  0.00    +0.000 A 
ATOM     32  O   UNL     1      51.984   5.073  17.501  0.00  0.00    +0.000 OA
ATOM     33  C   UNL     1      53.076   2.986  17.766  0.00  0.00    +0.000 A 
ATOM     34  H   UNL     1      54.184   6.076  17.965  0.00  0.00    +0.000 HD
ENDBRANCH  21  24
ENDBRANCH  19  20
ENDBRANCH   4  19
TORSDOF 7
ENDMDL
MODEL 6
REMARK VINA RESULT:    -6.097      4.279      6.137
REMARK INTER + INTRA:          -9.716
REMARK INTER:                  -8.792
REMARK INTRA:                  -0.924
REMARK UNBOUND:                -1.123
REMARK  Name = 
REMARK  7 active torsions:
REMARK  status: ('A' for Active; 'I' for Inactive)
REMARK    1  A    between atoms: C_2  and  C_3
REMARK    2  A    between atoms: C_7  and  C_8
REMARK    3  A    between atoms: N_10  and  C_11
REMARK    4  A    between atoms: C_11  and  C_12
REMARK    5  A    between atoms: C_15  and  C_16
REMARK    6  A    between atoms: C_16  and  N_17
REMARK    7  A    between atoms: C_18  and  C_20
REMARK                            x       y       z     vdW  Elec       q    Type
REMARK                         _______ _______ _______ _____ _____    ______ ____
ROOT
ATOM      1  C   UNL     1      50.323   9.010  11.752  0.00  0.00    +0.000 A 
ATOM      2  C   UNL     1      49.890   7.688  11.667  0.00  0.00    +0.000 A 
ATOM      3  C   UNL     1      48.615   7.354  12.131  0.00  0.00    +0.000 A 
ATOM      4  C   UNL     1      47.781   8.336  12.675  0.00  0.00    +0.000 A 
ATOM      5  C   UNL     1      48.306   9.625  12.730  0.00  0.00    +0.000 A 
ATOM      6  N   UNL     1      49.534   9.985  12.269  0.00  0.00    +0.000 NA
ENDROOT
BRANCH   1   7
ATOM      7  C   UNL     1      51.694   9.400  11.236  0.00  0.00    +0.000 C 
BRANCH   7  10
ATOM      8  C   UNL     1      53.000   8.752   9.263  0.00  0.00    +0.000 C 
ATOM      9  O   UNL     1      53.134   9.926   8.926  0.00  0.00    +0.000 OA
ATOM     10  N   UNL     1      52.295   8.379  10.387  0.00  0.00    +0.000 N 
ATOM     11  H   UNL     1      51.897   7.451  10.439  0.00  0.00    +0.000 HD
BRANCH   8  16
ATOM     12  C   UNL     1      53.619   6.279   9.263  0.00  0.00    +0.000 C 
ATOM     13  C   UNL     1      53.734   5.198   8.190  0.00  0.00    +0.000 C 
ATOM     14  C   UNL     1      53.208   5.824   6.899  0.00  0.00    +0.000 C 
ATOM     15  C   UNL     1      52.811   7.255   7.239  0.00  0.00    +0.000 C 
ATOM     16  C   UNL     1      53.628   7.606   8.477  0.00  0.00    +0.000 C 
BRANCH  12  18
ATOM     17  N   UNL     1      55.775   6.212  11.020  0.00  0.00    +0.000 NA
ATOM     18  C   UNL     1      54.797   6.242  10.224  0.00  0.00    +0.000 C 
ENDBRANCH  12  18
ENDBRANCH   8  16
ENDBRANCH   7  10
ENDBRANCH   1   7
BRANCH   4  19
ATOM     19  C   UNL     1      46.381   8.058  13.171  0.00  0.00    +0.000 C 
BRANCH  19  20
ATOM     20  N   UNL     1      45.888   6.764  12.774  0.00  0.00    +0.000 N 
ATOM     21  C   UNL     1      44.884   6.608  11.848  0.00  0.00    +0.000 C 
ATOM     22  O   UNL     1      44.334   7.559  11.286  0.00  0.00    +0.000 OA
ATOM     23  H   UNL     1      46.006   6.015  13.449  0.00  0.00    +0.000 HD
BRANCH  21  24
ATOM     24  C   UNL     1      44.532   5.217  11.534  0.00  0.00    +0.000 A 
ATOM     25  C   UNL     1      43.754   4.466  12.402  0.00  0.00    +0.000 A 
ATOM     26  S   UNL     1      43.423   2.888  11.833  0.00  0.00    +0.000 S 
ATOM     27  C   UNL     1      44.344   3.143  10.422  0.00  0.00    +0.000 A 
ATOM     28  N   UNL     1      44.503   2.161   9.495  0.00  0.00    +0.000 NA
ATOM     29  C   UNL     1      45.247   2.488   8.492  0.00  0.00    +0.000 A 
ATOM     30  N   UNL     1      45.838   3.714   8.324  0.00  0.00    +0.000 N 
ATOM     31  C   UNL     1      45.661   4.747   9.205  0.00  0.00    +0.000 A 
ATOM     32  O   UNL     1      46.133   5.867   8.984  0.00  0.00    +0.000 OA
ATOM     33  C   UNL     1      44.867   4.422  10.372  0.00  0.00    +0.000 A 
ATOM     34  H   UNL     1      46.386   3.918   7.500  0.00  0.00    +0.000 HD
ENDBRANCH  21  24
ENDBRANCH  19  20
ENDBRANCH   4  19
TORSDOF 7
ENDMDL
MODEL 7
REMARK VINA RESULT:    -5.907      3.623      8.516
REMARK INTER + INTRA:          -9.447
REMARK INTER:                  -8.570
REMARK INTRA:                  -0.877
REMARK UNBOUND:                -1.123
REMARK  Name = 
REMARK  7 active torsions:
REMARK  status: ('A' for Active; 'I' for Inactive)
REMARK    1  A    between atoms: C_2  and  C_3
REMARK    2  A    between atoms: C_7  and  C_8
REMARK    3  A    between atoms: N_10  and  C_11
REMARK    4  A    between atoms: C_11  and  C_12
REMARK    5  A    between atoms: C_15  and  C_16
REMARK    6  A    between atoms: C_16  and  N_17
REMARK    7  A    between atoms: C_18  and  C_20
REMARK                            x       y       z     vdW  Elec       q    Type
REMARK                         _______ _______ _______ _____ _____    ______ ____
ROOT
ATOM      1  C   UNL     1      48.303   8.498  15.459  0.00  0.00    +0.000 A 
ATOM      2  C   UNL     1      48.189   9.425  16.493  0.00  0.00    +0.000 A 
ATOM      3  C   UNL     1      48.697   9.108  17.756  0.00  0.00    +0.000 A 
ATOM      4  C   UNL     1      49.313   7.873  17.980  0.00  0.00    +0.000 A 
ATOM      5  C   UNL     1      49.368   7.007  16.890  0.00  0.00    +0.000 A 
ATOM      6  N   UNL     1      48.901   7.295  15.645  0.00  0.00    +0.000 NA
ENDROOT
BRANCH   1   7
ATOM      7  C   UNL     1      47.779   8.827  14.075  0.00  0.00    +0.000 C 
BRANCH   7  10
ATOM      8  C   UNL     1      47.189   7.067  12.471  0.00  0.00    +0.000 C 
ATOM      9  O   UNL     1      48.257   7.204  11.879  0.00  0.00    +0.000 OA
ATOM     10  N   UNL     1      46.846   7.829  13.567  0.00  0.00    +0.000 N 
ATOM     11  H   UNL     1      45.869   7.958  13.796  0.00  0.00    +0.000 HD
BRANCH   8  16
ATOM     12  C   UNL     1      45.564   5.271  13.266  0.00  0.00    +0.000 C 
ATOM     13  C   UNL     1      44.233   4.723  12.757  0.00  0.00    +0.000 C 
ATOM     14  C   UNL     1      43.825   5.617  11.587  0.00  0.00    +0.000 C 
ATOM     15  C   UNL     1      44.927   6.657  11.428  0.00  0.00    +0.000 C 
ATOM     16  C   UNL     1      46.161   6.020  12.057  0.00  0.00    +0.000 C 
BRANCH  12  18
ATOM     17  N   UNL     1      47.281   3.229  14.051  0.00  0.00    +0.000 NA
ATOM     18  C   UNL     1      46.503   4.155  13.695  0.00  0.00    +0.000 C 
ENDBRANCH  12  18
ENDBRANCH   8  16
ENDBRANCH   7  10
ENDBRANCH   1   7
BRANCH   4  19
ATOM     19  C   UNL     1      49.910   7.470  19.308  0.00  0.00    +0.000 C 
BRANCH  19  20
ATOM     20  N   UNL     1      50.652   6.236  19.242  0.00  0.00    +0.000 N 
ATOM     21  C   UNL     1      51.967   6.185  18.849  0.00  0.00    +0.000 C 
ATOM     22  O   UNL     1      52.612   7.186  18.526  0.00  0.00    +0.000 OA
ATOM     23  H   UNL     1      50.103   5.392  19.111  0.00  0.00    +0.000 HD
BRANCH  21  24
ATOM     24  C   UNL     1      52.578   4.849  18.877  0.00  0.00    +0.000 A 
ATOM     25  C   UNL     1      53.790   4.633  19.514  0.00  0.00    +0.000 A 
ATOM     26  S   UNL     1      54.306   3.004  19.470  0.00  0.00    +0.000 S 
ATOM     27  C   UNL     1      52.944   2.538  18.560  0.00  0.00    +0.000 A 
ATOM     28  N   UNL     1      52.773   1.253  18.149  0.00  0.00    +0.000 NA
ATOM     29  C   UNL     1      51.708   1.053  17.446  0.00  0.00    +0.000 A 
ATOM     30  N   UNL     1      50.789   2.020  17.127  0.00  0.00    +0.000 N 
ATOM     31  C   UNL     1      50.894   3.313  17.565  0.00  0.00    +0.000 A 
ATOM     32  O   UNL     1      50.007   4.141  17.335  0.00  0.00    +0.000 OA
ATOM     33  C   UNL     1      52.094   3.603  18.324  0.00  0.00    +0.000 A 
ATOM     34  H   UNL     1      49.960   1.793  16.597  0.00  0.00    +0.000 HD
ENDBRANCH  21  24
ENDBRANCH  19  20
ENDBRANCH   4  19
TORSDOF 7
ENDMDL
MODEL 8
REMARK VINA RESULT:    -5.667      4.875      6.828
REMARK INTER + INTRA:          -9.110
REMARK INTER:                  -8.641
REMARK INTRA:                  -0.469
REMARK UNBOUND:                -1.123
REMARK  Name = 
REMARK  7 active torsions:
REMARK  status: ('A' for Active; 'I' for Inactive)
REMARK    1  A    between atoms: C_2  and  C_3
REMARK    2  A    between atoms: C_7  and  C_8
REMARK    3  A    between atoms: N_10  and  C_11
REMARK    4  A    between atoms: C_11  and  C_12
REMARK    5  A    between atoms: C_15  and  C_16
REMARK    6  A    between atoms: C_16  and  N_17
REMARK    7  A    between atoms: C_18  and  C_20
REMARK                            x       y       z     vdW  Elec       q    Type
REMARK                         _______ _______ _______ _____ _____    ______ ____
ROOT
ATOM      1  C   UNL     1      51.292   9.904  12.310  0.00  0.00    +0.000 A 
ATOM      2  C   UNL     1      50.094   9.568  11.683  0.00  0.00    +0.000 A 
ATOM      3  C   UNL     1      49.098   8.916  12.414  0.00  0.00    +0.000 A 
ATOM      4  C   UNL     1      49.300   8.603  13.761  0.00  0.00    +0.000 A 
ATOM      5  C   UNL     1      50.534   8.965  14.297  0.00  0.00    +0.000 A 
ATOM      6  N   UNL     1      51.515   9.618  13.617  0.00  0.00    +0.000 NA
ENDROOT
BRANCH   1   7
ATOM      7  C   UNL     1      52.380  10.630  11.543  0.00  0.00    +0.000 C 
BRANCH   7  10
ATOM      8  C   UNL     1      53.586   9.149  10.004  0.00  0.00    +0.000 C 
ATOM      9  O   UNL     1      54.321   8.756  10.907  0.00  0.00    +0.000 OA
ATOM     10  N   UNL     1      52.596  10.086  10.209  0.00  0.00    +0.000 N 
ATOM     11  H   UNL     1      52.272  10.644   9.429  0.00  0.00    +0.000 HD
BRANCH   8  16
ATOM     12  C   UNL     1      52.915   7.290   8.394  0.00  0.00    +0.000 C 
ATOM     13  C   UNL     1      52.655   7.210   6.891  0.00  0.00    +0.000 C 
ATOM     14  C   UNL     1      52.709   8.647   6.373  0.00  0.00    +0.000 C 
ATOM     15  C   UNL     1      53.012   9.532   7.577  0.00  0.00    +0.000 C 
ATOM     16  C   UNL     1      53.691   8.610   8.582  0.00  0.00    +0.000 C 
BRANCH  12  18
ATOM     17  N   UNL     1      54.460   5.156   9.283  0.00  0.00    +0.000 NA
ATOM     18  C   UNL     1      53.759   6.123   8.880  0.00  0.00    +0.000 C 
ENDBRANCH  12  18
ENDBRANCH   8  16
ENDBRANCH   7  10
ENDBRANCH   1   7
BRANCH   4  19
ATOM     19  C   UNL     1      48.262   7.925  14.624  0.00  0.00    +0.000 C 
BRANCH  19  20
ATOM     20  N   UNL     1      47.093   7.517  13.886  0.00  0.00    +0.000 N 
ATOM     21  C   UNL     1      47.023   6.319  13.217  0.00  0.00    +0.000 C 
ATOM     22  O   UNL     1      47.949   5.504  13.198  0.00  0.00    +0.000 OA
ATOM     23  H   UNL     1      46.496   8.265  13.547  0.00  0.00    +0.000 HD
BRANCH  21  24
ATOM     24  C   UNL     1      45.742   6.048  12.549  0.00  0.00    +0.000 A 
ATOM     25  C   UNL     1      45.006   7.074  11.978  0.00  0.00    +0.000 A 
ATOM     26  S   UNL     1      43.570   6.544  11.216  0.00  0.00    +0.000 S 
ATOM     27  C   UNL     1      43.865   4.926  11.660  0.00  0.00    +0.000 A 
ATOM     28  N   UNL     1      42.992   3.935  11.339  0.00  0.00    +0.000 NA
ATOM     29  C   UNL     1      43.333   2.764  11.763  0.00  0.00    +0.000 A 
ATOM     30  N   UNL     1      44.477   2.490  12.468  0.00  0.00    +0.000 N 
ATOM     31  C   UNL     1      45.409   3.448  12.765  0.00  0.00    +0.000 A 
ATOM     32  O   UNL     1      46.471   3.157  13.324  0.00  0.00    +0.000 OA
ATOM     33  C   UNL     1      45.056   4.790  12.349  0.00  0.00    +0.000 A 
ATOM     34  H   UNL     1      44.702   1.546  12.747  0.00  0.00    +0.000 HD
ENDBRANCH  21  24
ENDBRANCH  19  20
ENDBRANCH   4  19
TORSDOF 7
ENDMDL
MODEL 9
REMARK VINA RESULT:    -5.531      4.108      9.122
REMARK INTER + INTRA:          -8.918
REMARK INTER:                  -7.508
REMARK INTRA:                  -1.410
REMARK UNBOUND:                -1.123
REMARK  Name = 
REMARK  7 active torsions:
REMARK  status: ('A' for Active; 'I' for Inactive)
REMARK    1  A    between atoms: C_2  and  C_3
REMARK    2  A    between atoms: C_7  and  C_8
REMARK    3  A    between atoms: N_10  and  C_11
REMARK    4  A    between atoms: C_11  and  C_12
REMARK    5  A    between atoms: C_15  and  C_16
REMARK    6  A    between atoms: C_16  and  N_17
REMARK    7  A    between atoms: C_18  and  C_20
REMARK                            x       y       z     vdW  Elec       q    Type
REMARK                         _______ _______ _______ _____ _____    ______ ____
ROOT
ATOM      1  C   UNL     1      48.267   3.991  17.573  0.00  0.00    +0.000 A 
ATOM      2  C   UNL     1      48.214   4.764  18.731  0.00  0.00    +0.000 A 
ATOM      3  C   UNL     1      49.402   5.091  19.391  0.00  0.00    +0.000 A 
ATOM      4  C   UNL     1      50.631   4.648  18.895  0.00  0.00    +0.000 A 
ATOM      5  C   UNL     1      50.583   3.869  17.740  0.00  0.00    +0.000 A 
ATOM      6  N   UNL     1      49.445   3.552  17.065  0.00  0.00    +0.000 NA
ENDROOT
BRANCH   1   7
ATOM      7  C   UNL     1      46.994   3.641  16.828  0.00  0.00    +0.000 C 
BRANCH   7  10
ATOM      8  C   UNL     1      47.041   4.029  14.406  0.00  0.00    +0.000 C 
ATOM      9  O   UNL     1      47.508   2.910  14.204  0.00  0.00    +0.000 OA
ATOM     10  N   UNL     1      46.758   4.496  15.672  0.00  0.00    +0.000 N 
ATOM     11  H   UNL     1      46.733   5.493  15.838  0.00  0.00    +0.000 HD
BRANCH   8  16
ATOM     12  C   UNL     1      45.253   5.495  13.331  0.00  0.00    +0.000 C 
ATOM     13  C   UNL     1      45.267   6.794  12.530  0.00  0.00    +0.000 C 
ATOM     14  C   UNL     1      46.709   7.298  12.562  0.00  0.00    +0.000 C 
ATOM     15  C   UNL     1      47.508   6.280  13.366  0.00  0.00    +0.000 C 
ATOM     16  C   UNL     1      46.709   4.987  13.268  0.00  0.00    +0.000 C 
BRANCH  12  18
ATOM     17  N   UNL     1      43.548   3.610  12.201  0.00  0.00    +0.000 NA
ATOM     18  C   UNL     1      44.321   4.464  12.714  0.00  0.00    +0.000 C 
ENDBRANCH  12  18
ENDBRANCH   8  16
ENDBRANCH   7  10
ENDBRANCH   1   7
BRANCH   4  19
ATOM     19  C   UNL     1      51.958   4.983  19.536  0.00  0.00    +0.000 C 
BRANCH  19  20
ATOM     20  N   UNL     1      52.778   5.841  18.719  0.00  0.00    +0.000 N 
ATOM     21  C   UNL     1      52.812   7.205  18.882  0.00  0.00    +0.000 C 
ATOM     22  O   UNL     1      52.147   7.796  19.737  0.00  0.00    +0.000 OA
ATOM     23  H   UNL     1      53.018   5.485  17.799  0.00  0.00    +0.000 HD
BRANCH  21  24
ATOM     24  C   UNL     1      53.733   7.920  17.988  0.00  0.00    +0.000 A 
ATOM     25  C   UNL     1      54.800   8.645  18.497  0.00  0.00    +0.000 A 
ATOM     26  S   UNL     1      55.775   9.365  17.291  0.00  0.00    +0.000 S 
ATOM     27  C   UNL     1      54.778   8.765  16.047  0.00  0.00    +0.000 A 
ATOM     28  N   UNL     1      55.033   9.042  14.741  0.00  0.00    +0.000 NA
ATOM     29  C   UNL     1      54.180   8.542  13.911  0.00  0.00    +0.000 A 
ATOM     30  N   UNL     1      53.098   7.778  14.267  0.00  0.00    +0.000 N 
ATOM     31  C   UNL     1      52.835   7.430  15.565  0.00  0.00    +0.000 A 
ATOM     32  O   UNL     1      51.904   6.669  15.849  0.00  0.00    +0.000 OA
ATOM     33  C   UNL     1      53.739   8.000  16.544  0.00  0.00    +0.000 A 
ATOM     34  H   UNL     1      52.482   7.390  13.567  0.00  0.00    +0.000 HD
ENDBRANCH  21  24
ENDBRANCH  19  20
ENDBRANCH   4  19
TORSDOF 7
ENDMDL
