MODEL 1
REMARK VINA RESULT:    -8.633      0.000      0.000
REMARK INTER + INTRA:         -11.863
REMARK INTER:                 -11.157
REMARK INTRA:                  -0.706
REMARK UNBOUND:                -0.706
REMARK  Name = 
REMARK  5 active torsions:
REMARK  status: ('A' for Active; 'I' for Inactive)
REMARK    1  A    between atoms: C_2  and  C_18
REMARK    2  A    between atoms: N_3  and  C_4
REMARK    3  A    between atoms: C_4  and  C_5
REMARK    4  A    between atoms: C_8  and  C_9
REMARK    5  A    between atoms: C_9  and  C_10
REMARK                            x       y       z     vdW  Elec       q    Type
REMARK                         _______ _______ _______ _____ _____    ______ ____
ROOT
ATOM      1  O   UNL     1      48.754   6.877  12.755  0.00  0.00    +0.000 OA
ATOM      2  C   UNL     1      48.003   6.724  13.714  0.00  0.00    +0.000 C 
ATOM      3  N   UNL     1      46.647   6.910  13.618  0.00  0.00    +0.000 N 
ATOM      4  H   UNL     1      46.096   6.951  14.468  0.00  0.00    +0.000 HD
ENDROOT
BRANCH   2   5
ATOM      5  C   UNL     1      48.507   6.280  15.021  0.00  0.00    +0.000 A 
ATOM      6  C   UNL     1      49.518   6.994  15.649  0.00  0.00    +0.000 A 
ATOM      7  S   UNL     1      49.995   6.333  17.146  0.00  0.00    +0.000 S 
ATOM      8  C   UNL     1      48.834   5.094  17.033  0.00  0.00    +0.000 A 
ATOM      9  N   UNL     1      48.689   4.176  18.025  0.00  0.00    +0.000 NA
ATOM     10  C   UNL     1      47.739   3.324  17.830  0.00  0.00    +0.000 A 
ATOM     11  N   UNL     1      46.929   3.298  16.724  0.00  0.00    +0.000 N 
ATOM     12  C   UNL     1      47.091   4.154  15.662  0.00  0.00    +0.000 A 
ATOM     13  O   UNL     1      46.444   4.013  14.628  0.00  0.00    +0.000 OA
ATOM     14  C   UNL     1      48.113   5.166  15.853  0.00  0.00    +0.000 A 
ATOM     15  H   UNL     1      46.222   2.585  16.618  0.00  0.00    +0.000 HD
ENDBRANCH   2   5
BRANCH   3  16
ATOM     16  C   UNL     1      46.017   7.416  12.425  0.00  0.00    +0.000 C 
BRANCH  16  17
ATOM     17  C   UNL     1      45.631   6.302  11.500  0.00  0.00    +0.000 A 
ATOM     18  C   UNL     1      44.760   5.284  11.894  0.00  0.00    +0.000 A 
ATOM     19  C   UNL     1      44.413   4.282  10.990  0.00  0.00    +0.000 A 
ATOM     20  C   UNL     1      44.948   4.321   9.705  0.00  0.00    +0.000 A 
ATOM     21  N   UNL     1      45.785   5.308   9.297  0.00  0.00    +0.000 NA
ATOM     22  C   UNL     1      46.096   6.273  10.191  0.00  0.00    +0.000 A 
BRANCH  20  23
ATOM     23  C   UNL     1      44.573   3.273   8.680  0.00  0.00    +0.000 C 
BRANCH  23  24
ATOM     24  C   UNL     1      45.763   2.636   8.000  0.00  0.00    +0.000 A 
ATOM     25  C   UNL     1      46.074   1.289   8.221  0.00  0.00    +0.000 A 
ATOM     26  C   UNL     1      47.180   0.745   7.588  0.00  0.00    +0.000 A 
ATOM     27  N   UNL     1      47.982   1.438   6.752  0.00  0.00    +0.000 NA
ATOM     28  C   UNL     1      47.657   2.729   6.538  0.00  0.00    +0.000 A 
ATOM     29  C   UNL     1      46.574   3.366   7.127  0.00  0.00    +0.000 A 
ENDBRANCH  23  24
ENDBRANCH  20  23
ENDBRANCH  16  17
ENDBRANCH   3  16
TORSDOF 5
ENDMDL
MODEL 2
REMARK VINA RESULT:    -8.584      1.772      2.608
REMARK INTER + INTRA:         -11.799
REMARK INTER:                 -11.013
REMARK INTRA:                  -0.786
REMARK UNBOUND:                -0.706
REMARK  Name = 
REMARK  5 active torsions:
REMARK  status: ('A' for Active; 'I' for Inactive)
REMARK    1  A    between atoms: C_2  and  C_18
REMARK    2  A    between atoms: N_3  and  C_4
REMARK    3  A    between atoms: C_4  and  C_5
REMARK    4  A    between atoms: C_8  and  C_9
REMARK    5  A    between atoms: C_9  and  C_10
REMARK                            x       y       z     vdW  Elec       q    Type
REMARK                         _______ _______ _______ _____ _____    ______ ____
ROOT
ATOM      1  O   UNL     1      47.160   3.594  14.387  0.00  0.00    +0.000 OA
ATOM      2  C   UNL     1      46.968   4.800  14.261  0.00  0.00    +0.000 C 
ATOM      3  N   UNL     1      45.768   5.308  13.833  0.00  0.00    +0.000 N 
ATOM      4  H   UNL     1      45.715   6.286  13.571  0.00  0.00    +0.000 HD
ENDROOT
BRANCH   2   5
ATOM      5  C   UNL     1      48.003   5.783  14.609  0.00  0.00    +0.000 A 
ATOM      6  C   UNL     1      48.508   6.628  13.630  0.00  0.00    +0.000 A 
ATOM      7  S   UNL     1      49.712   7.692  14.201  0.00  0.00    +0.000 S 
ATOM      8  C   UNL     1      49.568   7.095  15.787  0.00  0.00    +0.000 A 
ATOM      9  N   UNL     1      50.315   7.610  16.800  0.00  0.00    +0.000 NA
ATOM     10  C   UNL     1      50.069   7.096  17.959  0.00  0.00    +0.000 A 
ATOM     11  N   UNL     1      49.152   6.103  18.194  0.00  0.00    +0.000 N 
ATOM     12  C   UNL     1      48.434   5.499  17.191  0.00  0.00    +0.000 A 
ATOM     13  O   UNL     1      47.729   4.520  17.415  0.00  0.00    +0.000 OA
ATOM     14  C   UNL     1      48.636   6.075  15.875  0.00  0.00    +0.000 A 
ATOM     15  H   UNL     1      49.029   5.723  19.121  0.00  0.00    +0.000 HD
ENDBRANCH   2   5
BRANCH   3  16
ATOM     16  C   UNL     1      44.686   4.468  13.384  0.00  0.00    +0.000 C 
BRANCH  16  17
ATOM     17  C   UNL     1      44.698   4.319  11.892  0.00  0.00    +0.000 A 
ATOM     18  C   UNL     1      45.409   5.195  11.069  0.00  0.00    +0.000 A 
ATOM     19  C   UNL     1      45.407   5.001   9.689  0.00  0.00    +0.000 A 
ATOM     20  C   UNL     1      44.690   3.930   9.161  0.00  0.00    +0.000 A 
ATOM     21  N   UNL     1      44.004   3.060   9.943  0.00  0.00    +0.000 NA
ATOM     22  C   UNL     1      44.032   3.265  11.280  0.00  0.00    +0.000 A 
BRANCH  20  23
ATOM     23  C   UNL     1      44.687   3.662   7.672  0.00  0.00    +0.000 C 
BRANCH  23  24
ATOM     24  C   UNL     1      45.894   2.889   7.191  0.00  0.00    +0.000 A 
ATOM     25  C   UNL     1      46.558   3.263   6.017  0.00  0.00    +0.000 A 
ATOM     26  C   UNL     1      47.654   2.522   5.604  0.00  0.00    +0.000 A 
ATOM     27  N   UNL     1      48.135   1.455   6.277  0.00  0.00    +0.000 NA
ATOM     28  C   UNL     1      47.492   1.120   7.414  0.00  0.00    +0.000 A 
ATOM     29  C   UNL     1      46.384   1.796   7.908  0.00  0.00    +0.000 A 
ENDBRANCH  23  24
ENDBRANCH  20  23
ENDBRANCH  16  17
ENDBRANCH   3  16
TORSDOF 5
ENDMDL
MODEL 3
REMARK VINA RESULT:    -8.452      1.579      2.127
REMARK INTER + INTRA:         -11.628
REMARK INTER:                 -10.861
REMARK INTRA:                  -0.767
REMARK UNBOUND:                -0.706
REMARK  Name = 
REMARK  5 active torsions:
REMARK  status: ('A' for Active; 'I' for Inactive)
REMARK    1  A    between atoms: C_2  and  C_18
REMARK    2  A    between atoms: N_3  and  C_4
REMARK    3  A    between atoms: C_4  and  C_5
REMARK    4  A    between atoms: C_8  and  C_9
REMARK    5  A    between atoms: C_9  and  C_10
REMARK                            x       y       z     vdW  Elec       q    Type
REMARK                         _______ _______ _______ _____ _____    ______ ____
ROOT
ATOM      1  O   UNL     1      48.777   6.275  14.142  0.00  0.00    +0.000 OA
ATOM      2  C   UNL     1      47.786   5.772  14.664  0.00  0.00    +0.000 C 
ATOM      3  N   UNL     1      46.539   5.858  14.098  0.00  0.00    +0.000 N 
ATOM      4  H   UNL     1      45.731   5.591  14.649  0.00  0.00    +0.000 HD
ENDROOT
BRANCH   2   5
ATOM      5  C   UNL     1      47.883   4.999  15.909  0.00  0.00    +0.000 A 
ATOM      6  C   UNL     1      47.506   3.663  15.921  0.00  0.00    +0.000 A 
ATOM      7  S   UNL     1      47.663   2.921  17.449  0.00  0.00    +0.000 S 
ATOM      8  C   UNL     1      48.286   4.346  18.138  0.00  0.00    +0.000 A 
ATOM      9  N   UNL     1      48.662   4.386  19.445  0.00  0.00    +0.000 NA
ATOM     10  C   UNL     1      49.162   5.516  19.822  0.00  0.00    +0.000 A 
ATOM     11  N   UNL     1      49.306   6.614  19.014  0.00  0.00    +0.000 N 
ATOM     12  C   UNL     1      48.867   6.645  17.713  0.00  0.00    +0.000 A 
ATOM     13  O   UNL     1      48.881   7.686  17.062  0.00  0.00    +0.000 OA
ATOM     14  C   UNL     1      48.344   5.384  17.223  0.00  0.00    +0.000 A 
ATOM     15  H   UNL     1      49.678   7.479  19.380  0.00  0.00    +0.000 HD
ENDBRANCH   2   5
BRANCH   3  16
ATOM     16  C   UNL     1      46.276   6.646  12.920  0.00  0.00    +0.000 C 
BRANCH  16  17
ATOM     17  C   UNL     1      45.867   5.778  11.767  0.00  0.00    +0.000 A 
ATOM     18  C   UNL     1      45.252   4.539  11.958  0.00  0.00    +0.000 A 
ATOM     19  C   UNL     1      44.871   3.780  10.854  0.00  0.00    +0.000 A 
ATOM     20  C   UNL     1      45.113   4.279   9.578  0.00  0.00    +0.000 A 
ATOM     21  N   UNL     1      45.697   5.486   9.369  0.00  0.00    +0.000 NA
ATOM     22  C   UNL     1      46.047   6.207  10.459  0.00  0.00    +0.000 A 
BRANCH  20  23
ATOM     23  C   UNL     1      44.686   3.504   8.350  0.00  0.00    +0.000 C 
BRANCH  23  24
ATOM     24  C   UNL     1      45.813   2.745   7.689  0.00  0.00    +0.000 A 
ATOM     25  C   UNL     1      46.158   1.460   8.123  0.00  0.00    +0.000 A 
ATOM     26  C   UNL     1      47.205   0.801   7.497  0.00  0.00    +0.000 A 
ATOM     27  N   UNL     1      47.916   1.323   6.476  0.00  0.00    +0.000 NA
ATOM     28  C   UNL     1      47.559   2.555   6.060  0.00  0.00    +0.000 A 
ATOM     29  C   UNL     1      46.529   3.297   6.623  0.00  0.00    +0.000 A 
ENDBRANCH  23  24
ENDBRANCH  20  23
ENDBRANCH  16  17
ENDBRANCH   3  16
TORSDOF 5
ENDMDL
MODEL 4
REMARK VINA RESULT:    -7.942      2.303      3.193
REMARK INTER + INTRA:         -10.969
REMARK INTER:                 -10.205
REMARK INTRA:                  -0.765
REMARK UNBOUND:                -0.706
REMARK  Name = 
REMARK  5 active torsions:
REMARK  status: ('A' for Active; 'I' for Inactive)
REMARK    1  A    between atoms: C_2  and  C_18
REMARK    2  A    between atoms: N_3  and  C_4
REMARK    3  A    between atoms: C_4  and  C_5
REMARK    4  A    between atoms: C_8  and  C_9
REMARK    5  A    between atoms: C_9  and  C_10
REMARK                            x       y       z     vdW  Elec       q    Type
REMARK                         _______ _______ _______ _____ _____    ______ ____
ROOT
ATOM      1  O   UNL     1      47.987   5.036  14.437  0.00  0.00    +0.000 OA
ATOM      2  C   UNL     1      47.736   6.117  13.912  0.00  0.00    +0.000 C 
ATOM      3  N   UNL     1      46.491   6.421  13.424  0.00  0.00    +0.000 N 
ATOM      4  H   UNL     1      46.379   7.243  12.841  0.00  0.00    +0.000 HD
ENDROOT
BRANCH   2   5
ATOM      5  C   UNL     1      48.748   7.178  13.815  0.00  0.00    +0.000 A 
ATOM      6  C   UNL     1      49.235   7.556  12.571  0.00  0.00    +0.000 A 
ATOM      7  S   UNL     1      50.414   8.785  12.642  0.00  0.00    +0.000 S 
ATOM      8  C   UNL     1      50.282   8.891  14.335  0.00  0.00    +0.000 A 
ATOM      9  N   UNL     1      51.017   9.793  15.040  0.00  0.00    +0.000 NA
ATOM     10  C   UNL     1      50.782   9.797  16.310  0.00  0.00    +0.000 A 
ATOM     11  N   UNL     1      49.888   8.970  16.941  0.00  0.00    +0.000 N 
ATOM     12  C   UNL     1      49.185   7.992  16.281  0.00  0.00    +0.000 A 
ATOM     13  O   UNL     1      48.502   7.177  16.895  0.00  0.00    +0.000 OA
ATOM     14  C   UNL     1      49.374   7.979  14.843  0.00  0.00    +0.000 A 
ATOM     15  H   UNL     1      49.773   9.003  17.943  0.00  0.00    +0.000 HD
ENDBRANCH   2   5
BRANCH   3  16
ATOM     16  C   UNL     1      45.420   5.458  13.380  0.00  0.00    +0.000 C 
BRANCH  16  17
ATOM     17  C   UNL     1      45.229   4.921  11.994  0.00  0.00    +0.000 A 
ATOM     18  C   UNL     1      44.547   3.726  11.753  0.00  0.00    +0.000 A 
ATOM     19  C   UNL     1      44.377   3.279  10.444  0.00  0.00    +0.000 A 
ATOM     20  C   UNL     1      44.894   4.041   9.400  0.00  0.00    +0.000 A 
ATOM     21  N   UNL     1      45.548   5.211   9.611  0.00  0.00    +0.000 NA
ATOM     22  C   UNL     1      45.690   5.627  10.890  0.00  0.00    +0.000 A 
BRANCH  20  23
ATOM     23  C   UNL     1      44.704   3.611   7.962  0.00  0.00    +0.000 C 
BRANCH  23  24
ATOM     24  C   UNL     1      45.875   2.839   7.399  0.00  0.00    +0.000 A 
ATOM     25  C   UNL     1      46.302   1.651   8.002  0.00  0.00    +0.000 A 
ATOM     26  C   UNL     1      47.387   0.978   7.463  0.00  0.00    +0.000 A 
ATOM     27  N   UNL     1      48.061   1.397   6.371  0.00  0.00    +0.000 NA
ATOM     28  C   UNL     1      47.625   2.534   5.792  0.00  0.00    +0.000 A 
ATOM     29  C   UNL     1      46.552   3.282   6.260  0.00  0.00    +0.000 A 
ENDBRANCH  23  24
ENDBRANCH  20  23
ENDBRANCH  16  17
ENDBRANCH   3  16
TORSDOF 5
ENDMDL
MODEL 5
REMARK VINA RESULT:    -7.343      1.487      2.041
REMARK INTER + INTRA:         -10.196
REMARK INTER:                  -9.172
REMARK INTRA:                  -1.024
REMARK UNBOUND:                -0.706
REMARK  Name = 
REMARK  5 active torsions:
REMARK  status: ('A' for Active; 'I' for Inactive)
REMARK    1  A    between atoms: C_2  and  C_18
REMARK    2  A    between atoms: N_3  and  C_4
REMARK    3  A    between atoms: C_4  and  C_5
REMARK    4  A    between atoms: C_8  and  C_9
REMARK    5  A    between atoms: C_9  and  C_10
REMARK                            x       y       z     vdW  Elec       q    Type
REMARK                         _______ _______ _______ _____ _____    ______ ____
ROOT
ATOM      1  O   UNL     1      50.096   7.453  14.626  0.00  0.00    +0.000 OA
ATOM      2  C   UNL     1      49.134   7.272  15.366  0.00  0.00    +0.000 C 
ATOM      3  N   UNL     1      47.848   7.552  14.977  0.00  0.00    +0.000 N 
ATOM      4  H   UNL     1      47.114   7.560  15.676  0.00  0.00    +0.000 HD
ENDROOT
BRANCH   2   5
ATOM      5  C   UNL     1      49.294   6.693  16.707  0.00  0.00    +0.000 A 
ATOM      6  C   UNL     1      49.948   7.415  17.696  0.00  0.00    +0.000 A 
ATOM      7  S   UNL     1      50.062   6.589  19.184  0.00  0.00    +0.000 S 
ATOM      8  C   UNL     1      49.199   5.256  18.574  0.00  0.00    +0.000 A 
ATOM      9  N   UNL     1      48.917   4.184  19.362  0.00  0.00    +0.000 NA
ATOM     10  C   UNL     1      48.215   3.266  18.784  0.00  0.00    +0.000 A 
ATOM     11  N   UNL     1      47.783   3.317  17.483  0.00  0.00    +0.000 N 
ATOM     12  C   UNL     1      48.112   4.341  16.629  0.00  0.00    +0.000 A 
ATOM     13  O   UNL     1      47.829   4.288  15.435  0.00  0.00    +0.000 OA
ATOM     14  C   UNL     1      48.856   5.424  17.243  0.00  0.00    +0.000 A 
ATOM     15  H   UNL     1      47.262   2.551  17.082  0.00  0.00    +0.000 HD
ENDBRANCH   2   5
BRANCH   3  16
ATOM     16  C   UNL     1      47.541   8.193  13.723  0.00  0.00    +0.000 C 
BRANCH  16  17
ATOM     17  C   UNL     1      46.700   7.309  12.853  0.00  0.00    +0.000 A 
ATOM     18  C   UNL     1      46.907   5.930  12.783  0.00  0.00    +0.000 A 
ATOM     19  C   UNL     1      46.084   5.146  11.976  0.00  0.00    +0.000 A 
ATOM     20  C   UNL     1      45.065   5.764  11.255  0.00  0.00    +0.000 A 
ATOM     21  N   UNL     1      44.837   7.099  11.319  0.00  0.00    +0.000 NA
ATOM     22  C   UNL     1      45.644   7.834  12.118  0.00  0.00    +0.000 A 
BRANCH  20  23
ATOM     23  C   UNL     1      44.126   4.949  10.392  0.00  0.00    +0.000 C 
BRANCH  23  24
ATOM     24  C   UNL     1      44.833   3.983   9.470  0.00  0.00    +0.000 A 
ATOM     25  C   UNL     1      44.700   2.601   9.648  0.00  0.00    +0.000 A 
ATOM     26  C   UNL     1      45.373   1.748   8.787  0.00  0.00    +0.000 A 
ATOM     27  N   UNL     1      46.151   2.171   7.769  0.00  0.00    +0.000 NA
ATOM     28  C   UNL     1      46.254   3.505   7.602  0.00  0.00    +0.000 A 
ATOM     29  C   UNL     1      45.623   4.440   8.413  0.00  0.00    +0.000 A 
ENDBRANCH  23  24
ENDBRANCH  20  23
ENDBRANCH  16  17
ENDBRANCH   3  16
TORSDOF 5
ENDMDL
MODEL 6
REMARK VINA RESULT:    -7.281      3.974      9.189
REMARK INTER + INTRA:         -10.115
REMARK INTER:                  -9.418
REMARK INTRA:                  -0.697
REMARK UNBOUND:                -0.706
REMARK  Name = 
REMARK  5 active torsions:
REMARK  status: ('A' for Active; 'I' for Inactive)
REMARK    1  A    between atoms: C_2  and  C_18
REMARK    2  A    between atoms: N_3  and  C_4
REMARK    3  A    between atoms: C_4  and  C_5
REMARK    4  A    between atoms: C_8  and  C_9
REMARK    5  A    between atoms: C_9  and  C_10
REMARK                            x       y       z     vdW  Elec       q    Type
REMARK                         _______ _______ _______ _____ _____    ______ ____
ROOT
ATOM      1  O   UNL     1      47.175   3.082  14.012  0.00  0.00    +0.000 OA
ATOM      2  C   UNL     1      46.728   4.135  14.459  0.00  0.00    +0.000 C 
ATOM      3  N   UNL     1      46.779   4.442  15.795  0.00  0.00    +0.000 N 
ATOM      4  H   UNL     1      46.240   5.229  16.138  0.00  0.00    +0.000 HD
ENDROOT
BRANCH   2   5
ATOM      5  C   UNL     1      46.151   5.160  13.578  0.00  0.00    +0.000 A 
ATOM      6  C   UNL     1      46.887   6.295  13.268  0.00  0.00    +0.000 A 
ATOM      7  S   UNL     1      46.062   7.388  12.251  0.00  0.00    +0.000 S 
ATOM      8  C   UNL     1      44.710   6.360  12.149  0.00  0.00    +0.000 A 
ATOM      9  N   UNL     1      43.632   6.695  11.392  0.00  0.00    +0.000 NA
ATOM     10  C   UNL     1      42.699   5.801  11.367  0.00  0.00    +0.000 A 
ATOM     11  N   UNL     1      42.742   4.609  12.044  0.00  0.00    +0.000 N 
ATOM     12  C   UNL     1      43.774   4.266  12.883  0.00  0.00    +0.000 A 
ATOM     13  O   UNL     1      43.716   3.258  13.582  0.00  0.00    +0.000 OA
ATOM     14  C   UNL     1      44.872   5.213  12.906  0.00  0.00    +0.000 A 
ATOM     15  H   UNL     1      41.965   3.966  12.006  0.00  0.00    +0.000 HD
ENDBRANCH   2   5
BRANCH   3  16
ATOM     16  C   UNL     1      47.247   3.508  16.787  0.00  0.00    +0.000 C 
BRANCH  16  17
ATOM     17  C   UNL     1      48.706   3.700  17.070  0.00  0.00    +0.000 A 
ATOM     18  C   UNL     1      49.573   2.618  17.242  0.00  0.00    +0.000 A 
ATOM     19  C   UNL     1      50.926   2.848  17.481  0.00  0.00    +0.000 A 
ATOM     20  C   UNL     1      51.385   4.161  17.541  0.00  0.00    +0.000 A 
ATOM     21  N   UNL     1      50.564   5.226  17.362  0.00  0.00    +0.000 NA
ATOM     22  C   UNL     1      49.257   4.974  17.122  0.00  0.00    +0.000 A 
BRANCH  20  23
ATOM     23  C   UNL     1      52.853   4.457  17.764  0.00  0.00    +0.000 C 
BRANCH  23  24
ATOM     24  C   UNL     1      53.492   3.591  18.825  0.00  0.00    +0.000 A 
ATOM     25  C   UNL     1      53.467   3.977  20.170  0.00  0.00    +0.000 A 
ATOM     26  C   UNL     1      54.074   3.160  21.112  0.00  0.00    +0.000 A 
ATOM     27  N   UNL     1      54.687   1.996  20.811  0.00  0.00    +0.000 NA
ATOM     28  C   UNL     1      54.686   1.632  19.512  0.00  0.00    +0.000 A 
ATOM     29  C   UNL     1      54.110   2.383  18.496  0.00  0.00    +0.000 A 
ENDBRANCH  23  24
ENDBRANCH  20  23
ENDBRANCH  16  17
ENDBRANCH   3  16
TORSDOF 5
ENDMDL
MODEL 7
REMARK VINA RESULT:    -7.200      2.526      3.316
REMARK INTER + INTRA:         -10.011
REMARK INTER:                  -9.005
REMARK INTRA:                  -1.006
REMARK UNBOUND:                -0.706
REMARK  Name = 
REMARK  5 active torsions:
REMARK  status: ('A' for Active; 'I' for Inactive)
REMARK    1  A    between atoms: C_2  and  C_18
REMARK    2  A    between atoms: N_3  and  C_4
REMARK    3  A    between atoms: C_4  and  C_5
REMARK    4  A    between atoms: C_8  and  C_9
REMARK    5  A    between atoms: C_9  and  C_10
REMARK                            x       y       z     vdW  Elec       q    Type
REMARK                         _______ _______ _______ _____ _____    ______ ____
ROOT
ATOM      1  O   UNL     1      50.152   6.464  15.481  0.00  0.00    +0.000 OA
ATOM      2  C   UNL     1      49.041   6.556  15.996  0.00  0.00    +0.000 C 
ATOM      3  N   UNL     1      47.944   6.989  15.296  0.00  0.00    +0.000 N 
ATOM      4  H   UNL     1      47.098   7.222  15.803  0.00  0.00    +0.000 HD
ENDROOT
BRANCH   2   5
ATOM      5  C   UNL     1      48.805   6.159  17.391  0.00  0.00    +0.000 A 
ATOM      6  C   UNL     1      49.094   4.862  17.796  0.00  0.00    +0.000 A 
ATOM      7  S   UNL     1      48.745   4.565  19.439  0.00  0.00    +0.000 S 
ATOM      8  C   UNL     1      48.241   6.172  19.680  0.00  0.00    +0.000 A 
ATOM      9  N   UNL     1      47.832   6.602  20.904  0.00  0.00    +0.000 NA
ATOM     10  C   UNL     1      47.524   7.855  20.954  0.00  0.00    +0.000 A 
ATOM     11  N   UNL     1      47.574   8.715  19.886  0.00  0.00    +0.000 N 
ATOM     12  C   UNL     1      47.902   8.307  18.616  0.00  0.00    +0.000 A 
ATOM     13  O   UNL     1      47.800   9.068  17.658  0.00  0.00    +0.000 OA
ATOM     14  C   UNL     1      48.308   6.918  18.516  0.00  0.00    +0.000 A 
ATOM     15  H   UNL     1      47.290   9.678  19.986  0.00  0.00    +0.000 HD
ENDBRANCH   2   5
BRANCH   3  16
ATOM     16  C   UNL     1      48.033   7.484  13.945  0.00  0.00    +0.000 C 
BRANCH  16  17
ATOM     17  C   UNL     1      47.004   6.844  13.063  0.00  0.00    +0.000 A 
ATOM     18  C   UNL     1      46.243   7.587  12.158  0.00  0.00    +0.000 A 
ATOM     19  C   UNL     1      45.314   6.943  11.343  0.00  0.00    +0.000 A 
ATOM     20  C   UNL     1      45.167   5.563  11.452  0.00  0.00    +0.000 A 
ATOM     21  N   UNL     1      45.905   4.820  12.314  0.00  0.00    +0.000 NA
ATOM     22  C   UNL     1      46.807   5.469  13.085  0.00  0.00    +0.000 A 
BRANCH  20  23
ATOM     23  C   UNL     1      44.194   4.818  10.564  0.00  0.00    +0.000 C 
BRANCH  23  24
ATOM     24  C   UNL     1      44.864   3.936   9.536  0.00  0.00    +0.000 A 
ATOM     25  C   UNL     1      44.789   2.542   9.635  0.00  0.00    +0.000 A 
ATOM     26  C   UNL     1      45.425   1.767   8.678  0.00  0.00    +0.000 A 
ATOM     27  N   UNL     1      46.115   2.279   7.636  0.00  0.00    +0.000 NA
ATOM     28  C   UNL     1      46.162   3.624   7.547  0.00  0.00    +0.000 A 
ATOM     29  C   UNL     1      45.561   4.485   8.457  0.00  0.00    +0.000 A 
ENDBRANCH  23  24
ENDBRANCH  20  23
ENDBRANCH  16  17
ENDBRANCH   3  16
TORSDOF 5
ENDMDL
MODEL 8
REMARK VINA RESULT:    -7.045      3.258      7.879
REMARK INTER + INTRA:          -9.810
REMARK INTER:                  -9.103
REMARK INTRA:                  -0.707
REMARK UNBOUND:                -0.706
REMARK  Name = 
REMARK  5 active torsions:
REMARK  status: ('A' for Active; 'I' for Inactive)
REMARK    1  A    between atoms: C_2  and  C_18
REMARK    2  A    between atoms: N_3  and  C_4
REMARK    3  A    between atoms: C_4  and  C_5
REMARK    4  A    between atoms: C_8  and  C_9
REMARK    5  A    between atoms: C_9  and  C_10
REMARK                            x       y       z     vdW  Elec       q    Type
REMARK                         _______ _______ _______ _____ _____    ______ ____
ROOT
ATOM      1  O   UNL     1      45.729   7.880  11.704  0.00  0.00    +0.000 OA
ATOM      2  C   UNL     1      46.299   6.805  11.543  0.00  0.00    +0.000 C 
ATOM      3  N   UNL     1      47.554   6.561  12.039  0.00  0.00    +0.000 N 
ATOM      4  H   UNL     1      48.053   5.735  11.728  0.00  0.00    +0.000 HD
ENDROOT
BRANCH   2   5
ATOM      5  C   UNL     1      45.647   5.686  10.849  0.00  0.00    +0.000 A 
ATOM      6  C   UNL     1      45.811   5.536   9.479  0.00  0.00    +0.000 A 
ATOM      7  S   UNL     1      44.973   4.199   8.831  0.00  0.00    +0.000 S 
ATOM      8  C   UNL     1      44.399   3.744  10.367  0.00  0.00    +0.000 A 
ATOM      9  N   UNL     1      43.625   2.638  10.525  0.00  0.00    +0.000 NA
ATOM     10  C   UNL     1      43.301   2.384  11.750  0.00  0.00    +0.000 A 
ATOM     11  N   UNL     1      43.668   3.147  12.828  0.00  0.00    +0.000 N 
ATOM     12  C   UNL     1      44.380   4.316  12.706  0.00  0.00    +0.000 A 
ATOM     13  O   UNL     1      44.570   5.048  13.674  0.00  0.00    +0.000 OA
ATOM     14  C   UNL     1      44.815   4.619  11.356  0.00  0.00    +0.000 A 
ATOM     15  H   UNL     1      43.355   2.911  13.759  0.00  0.00    +0.000 HD
ENDBRANCH   2   5
BRANCH   3  16
ATOM     16  C   UNL     1      48.348   7.582  12.675  0.00  0.00    +0.000 C 
BRANCH  16  17
ATOM     17  C   UNL     1      48.915   7.098  13.976  0.00  0.00    +0.000 A 
ATOM     18  C   UNL     1      50.134   7.568  14.469  0.00  0.00    +0.000 A 
ATOM     19  C   UNL     1      50.609   7.105  15.695  0.00  0.00    +0.000 A 
ATOM     20  C   UNL     1      49.849   6.178  16.403  0.00  0.00    +0.000 A 
ATOM     21  N   UNL     1      48.656   5.718  15.949  0.00  0.00    +0.000 NA
ATOM     22  C   UNL     1      48.214   6.193  14.762  0.00  0.00    +0.000 A 
BRANCH  20  23
ATOM     23  C   UNL     1      50.309   5.672  17.753  0.00  0.00    +0.000 C 
BRANCH  23  24
ATOM     24  C   UNL     1      50.862   4.266  17.718  0.00  0.00    +0.000 A 
ATOM     25  C   UNL     1      52.214   4.025  17.984  0.00  0.00    +0.000 A 
ATOM     26  C   UNL     1      52.685   2.722  17.932  0.00  0.00    +0.000 A 
ATOM     27  N   UNL     1      51.909   1.656  17.647  0.00  0.00    +0.000 NA
ATOM     28  C   UNL     1      50.605   1.905  17.410  0.00  0.00    +0.000 A 
ATOM     29  C   UNL     1      50.039   3.173  17.435  0.00  0.00    +0.000 A 
ENDBRANCH  23  24
ENDBRANCH  20  23
ENDBRANCH  16  17
ENDBRANCH   3  16
TORSDOF 5
ENDMDL
MODEL 9
REMARK VINA RESULT:    -6.820      3.963      8.588
REMARK INTER + INTRA:          -9.519
REMARK INTER:                  -8.675
REMARK INTRA:                  -0.845
REMARK UNBOUND:                -0.706
REMARK  Name = 
REMARK  5 active torsions:
REMARK  status: ('A' for Active; 'I' for Inactive)
REMARK    1  A    between atoms: C_2  and  C_18
REMARK    2  A    between atoms: N_3  and  C_4
REMARK    3  A    between atoms: C_4  and  C_5
REMARK    4  A    between atoms: C_8  and  C_9
REMARK    5  A    between atoms: C_9  and  C_10
REMARK                            x       y       z     vdW  Elec       q    Type
REMARK                         _______ _______ _______ _____ _____    ______ ____
ROOT
ATOM      1  O   UNL     1      47.093   3.106  14.023  0.00  0.00    +0.000 OA
ATOM      2  C   UNL     1      46.858   4.234  14.446  0.00  0.00    +0.000 C 
ATOM      3  N   UNL     1      47.072   4.583  15.755  0.00  0.00    +0.000 N 
ATOM      4  H   UNL     1      46.696   5.460  16.097  0.00  0.00    +0.000 HD
ENDROOT
BRANCH   2   5
ATOM      5  C   UNL     1      46.379   5.303  13.559  0.00  0.00    +0.000 A 
ATOM      6  C   UNL     1      47.212   6.370  13.253  0.00  0.00    +0.000 A 
ATOM      7  S   UNL     1      46.492   7.527  12.228  0.00  0.00    +0.000 S 
ATOM      8  C   UNL     1      45.058   6.619  12.117  0.00  0.00    +0.000 A 
ATOM      9  N   UNL     1      44.018   7.044  11.350  0.00  0.00    +0.000 NA
ATOM     10  C   UNL     1      43.012   6.234  11.319  0.00  0.00    +0.000 A 
ATOM     11  N   UNL     1      42.947   5.044  11.998  0.00  0.00    +0.000 N 
ATOM     12  C   UNL     1      43.939   4.615  12.846  0.00  0.00    +0.000 A 
ATOM     13  O   UNL     1      43.789   3.618  13.547  0.00  0.00    +0.000 OA
ATOM     14  C   UNL     1      45.115   5.464  12.877  0.00  0.00    +0.000 A 
ATOM     15  H   UNL     1      42.118   4.470  11.955  0.00  0.00    +0.000 HD
ENDBRANCH   2   5
BRANCH   3  16
ATOM     16  C   UNL     1      47.468   3.626  16.757  0.00  0.00    +0.000 C 
BRANCH  16  17
ATOM     17  C   UNL     1      48.855   3.902  17.254  0.00  0.00    +0.000 A 
ATOM     18  C   UNL     1      49.823   2.899  17.332  0.00  0.00    +0.000 A 
ATOM     19  C   UNL     1      51.106   3.209  17.780  0.00  0.00    +0.000 A 
ATOM     20  C   UNL     1      51.392   4.523  18.141  0.00  0.00    +0.000 A 
ATOM     21  N   UNL     1      50.471   5.516  18.060  0.00  0.00    +0.000 NA
ATOM     22  C   UNL     1      49.237   5.188  17.612  0.00  0.00    +0.000 A 
BRANCH  20  23
ATOM     23  C   UNL     1      52.780   4.913  18.601  0.00  0.00    +0.000 C 
BRANCH  23  24
ATOM     24  C   UNL     1      53.776   5.058  17.473  0.00  0.00    +0.000 A 
ATOM     25  C   UNL     1      53.628   6.070  16.518  0.00  0.00    +0.000 A 
ATOM     26  C   UNL     1      54.556   6.163  15.492  0.00  0.00    +0.000 A 
ATOM     27  N   UNL     1      55.613   5.334  15.360  0.00  0.00    +0.000 NA
ATOM     28  C   UNL     1      55.749   4.375  16.299  0.00  0.00    +0.000 A 
ATOM     29  C   UNL     1      54.871   4.198  17.361  0.00  0.00    +0.000 A 
ENDBRANCH  23  24
ENDBRANCH  20  23
ENDBRANCH  16  17
ENDBRANCH   3  16
TORSDOF 5
ENDMDL
