MODEL 1
REMARK VINA RESULT:    -8.229      0.000      0.000
REMARK INTER + INTRA:         -13.581
REMARK INTER:                 -12.077
REMARK INTRA:                  -1.504
REMARK UNBOUND:                -1.504
REMARK  Name = 
REMARK  9 active torsions:
REMARK  status: ('A' for Active; 'I' for Inactive)
REMARK    1  A    between atoms: C_1  and  O_2
REMARK    2  A    between atoms: O_2  and  C_3
REMARK    3  A    between atoms: C_10  and  C_11
REMARK    4  A    between atoms: N_13  and  C_14
REMARK    5  A    between atoms: C_14  and  C_15
REMARK    6  A    between atoms: C_18  and  C_19
REMARK    7  A    between atoms: C_19  and  N_20
REMARK    8  A    between atoms: N_20  and  C_21
REMARK    9  A    between atoms: C_21  and  C_22
REMARK                            x       y       z     vdW  Elec       q    Type
REMARK                         _______ _______ _______ _____ _____    ______ ____
ROOT
ATOM      1  C   UNL     1      47.146   8.153  13.474  0.00  0.00    +0.000 C 
ENDROOT
BRANCH   1   2
ATOM      2  C   UNL     1      46.294   7.297  12.569  0.00  0.00    +0.000 A 
ATOM      3  C   UNL     1      46.826   6.743  11.397  0.00  0.00    +0.000 A 
ATOM      4  C   UNL     1      46.029   5.959  10.556  0.00  0.00    +0.000 A 
ATOM      5  C   UNL     1      44.683   5.714  10.865  0.00  0.00    +0.000 A 
ATOM      6  C   UNL     1      44.145   6.296  12.020  0.00  0.00    +0.000 A 
ATOM      7  C   UNL     1      44.940   7.084  12.860  0.00  0.00    +0.000 A 
BRANCH   5   8
ATOM      8  C   UNL     1      43.829   4.853   9.960  0.00  0.00    +0.000 C 
BRANCH   8   9
ATOM      9  N   UNL     1      44.596   4.365   8.814  0.00  0.00    +0.000 NA
ATOM     10  H   UNL     1      45.547   4.731   8.874  0.00  0.00    +0.000 HD
BRANCH   9  11
ATOM     11  C   UNL     1      44.648   2.904   8.782  0.00  0.00    +0.000 C 
BRANCH  11  12
ATOM     12  C   UNL     1      45.858   2.420   8.019  0.00  0.00    +0.000 A 
ATOM     13  C   UNL     1      46.241   1.076   8.046  0.00  0.00    +0.000 A 
ATOM     14  C   UNL     1      47.360   0.687   7.325  0.00  0.00    +0.000 A 
ATOM     15  N   UNL     1      48.111   1.529   6.587  0.00  0.00    +0.000 NA
ATOM     16  C   UNL     1      47.726   2.823   6.570  0.00  0.00    +0.000 A 
ATOM     17  C   UNL     1      46.624   3.308   7.255  0.00  0.00    +0.000 A 
ENDBRANCH  11  12
ENDBRANCH   9  11
ENDBRANCH   8   9
ENDBRANCH   5   8
ENDBRANCH   1   2
BRANCH   1  20
ATOM     18  C   UNL     1      48.825   6.862  14.730  0.00  0.00    +0.000 C 
ATOM     19  O   UNL     1      49.648   6.981  13.826  0.00  0.00    +0.000 OA
ATOM     20  N   UNL     1      47.576   7.405  14.629  0.00  0.00    +0.000 N 
ATOM     21  H   UNL     1      46.897   7.255  15.361  0.00  0.00    +0.000 HD
BRANCH  18  29
ATOM     22  C   UNL     1      47.336   4.230  16.379  0.00  0.00    +0.000 A 
ATOM     23  N   UNL     1      46.966   3.239  17.214  0.00  0.00    +0.000 NA
ATOM     24  C   UNL     1      47.712   3.024  18.301  0.00  0.00    +0.000 A 
ATOM     25  N   UNL     1      48.805   3.688  18.668  0.00  0.00    +0.000 NA
ATOM     26  C   UNL     1      49.141   4.661  17.806  0.00  0.00    +0.000 A 
ATOM     27  S   UNL     1      50.513   5.613  18.114  0.00  0.00    +0.000 S 
ATOM     28  C   UNL     1      50.262   6.521  16.700  0.00  0.00    +0.000 A 
ATOM     29  C   UNL     1      49.146   6.129  15.969  0.00  0.00    +0.000 A 
ATOM     30  C   UNL     1      48.478   5.011  16.634  0.00  0.00    +0.000 A 
BRANCH  22  32
ATOM     31  C   UNL     1      47.063   3.672  14.121  0.00  0.00    +0.000 C 
ATOM     32  O   UNL     1      46.592   4.426  15.236  0.00  0.00    +0.000 OA
ENDBRANCH  22  32
ENDBRANCH  18  29
ENDBRANCH   1  20
TORSDOF 8
ENDMDL
MODEL 2
REMARK VINA RESULT:    -7.807      1.590      1.887
REMARK INTER + INTRA:         -12.963
REMARK INTER:                 -11.631
REMARK INTRA:                  -1.331
REMARK UNBOUND:                -1.504
REMARK  Name = 
REMARK  9 active torsions:
REMARK  status: ('A' for Active; 'I' for Inactive)
REMARK    1  A    between atoms: C_1  and  O_2
REMARK    2  A    between atoms: O_2  and  C_3
REMARK    3  A    between atoms: C_10  and  C_11
REMARK    4  A    between atoms: N_13  and  C_14
REMARK    5  A    between atoms: C_14  and  C_15
REMARK    6  A    between atoms: C_18  and  C_19
REMARK    7  A    between atoms: C_19  and  N_20
REMARK    8  A    between atoms: N_20  and  C_21
REMARK    9  A    between atoms: C_21  and  C_22
REMARK                            x       y       z     vdW  Elec       q    Type
REMARK                         _______ _______ _______ _____ _____    ______ ____
ROOT
ATOM      1  C   UNL     1      47.821   7.229  13.230  0.00  0.00    +0.000 C 
ENDROOT
BRANCH   1   2
ATOM      2  C   UNL     1      46.743   6.319  12.694  0.00  0.00    +0.000 A 
ATOM      3  C   UNL     1      46.225   5.281  13.480  0.00  0.00    +0.000 A 
ATOM      4  C   UNL     1      45.232   4.434  12.975  0.00  0.00    +0.000 A 
ATOM      5  C   UNL     1      44.739   4.602  11.672  0.00  0.00    +0.000 A 
ATOM      6  C   UNL     1      45.282   5.619  10.878  0.00  0.00    +0.000 A 
ATOM      7  C   UNL     1      46.277   6.466  11.381  0.00  0.00    +0.000 A 
BRANCH   5   8
ATOM      8  C   UNL     1      43.656   3.693  11.136  0.00  0.00    +0.000 C 
BRANCH   8   9
ATOM      9  N   UNL     1      43.834   3.441   9.706  0.00  0.00    +0.000 NA
ATOM     10  H   UNL     1      44.397   4.193   9.307  0.00  0.00    +0.000 HD
BRANCH   9  11
ATOM     11  C   UNL     1      44.503   2.164   9.462  0.00  0.00    +0.000 C 
BRANCH  11  12
ATOM     12  C   UNL     1      45.597   2.312   8.432  0.00  0.00    +0.000 A 
ATOM     13  C   UNL     1      46.402   1.227   8.070  0.00  0.00    +0.000 A 
ATOM     14  C   UNL     1      47.392   1.420   7.117  0.00  0.00    +0.000 A 
ATOM     15  N   UNL     1      47.629   2.598   6.505  0.00  0.00    +0.000 NA
ATOM     16  C   UNL     1      46.841   3.633   6.865  0.00  0.00    +0.000 A 
ATOM     17  C   UNL     1      45.828   3.541   7.805  0.00  0.00    +0.000 A 
ENDBRANCH  11  12
ENDBRANCH   9  11
ENDBRANCH   8   9
ENDBRANCH   5   8
ENDBRANCH   1   2
BRANCH   1  20
ATOM     18  C   UNL     1      48.938   6.985  15.411  0.00  0.00    +0.000 C 
ATOM     19  O   UNL     1      50.014   6.736  14.874  0.00  0.00    +0.000 OA
ATOM     20  N   UNL     1      47.816   7.232  14.672  0.00  0.00    +0.000 N 
ATOM     21  H   UNL     1      46.930   7.387  15.131  0.00  0.00    +0.000 HD
BRANCH  18  29
ATOM     22  C   UNL     1      48.863   4.563  17.858  0.00  0.00    +0.000 A 
ATOM     23  N   UNL     1      48.798   3.838  18.992  0.00  0.00    +0.000 NA
ATOM     24  C   UNL     1      48.640   4.493  20.146  0.00  0.00    +0.000 A 
ATOM     25  N   UNL     1      48.535   5.808  20.313  0.00  0.00    +0.000 NA
ATOM     26  C   UNL     1      48.611   6.492  19.160  0.00  0.00    +0.000 A 
ATOM     27  S   UNL     1      48.497   8.185  19.182  0.00  0.00    +0.000 S 
ATOM     28  C   UNL     1      48.661   8.269  17.493  0.00  0.00    +0.000 A 
ATOM     29  C   UNL     1      48.804   7.030  16.879  0.00  0.00    +0.000 A 
ATOM     30  C   UNL     1      48.776   5.966  17.882  0.00  0.00    +0.000 A 
BRANCH  22  32
ATOM     31  C   UNL     1      47.903   3.228  16.189  0.00  0.00    +0.000 C 
ATOM     32  O   UNL     1      49.069   3.891  16.672  0.00  0.00    +0.000 OA
ENDBRANCH  22  32
ENDBRANCH  18  29
ENDBRANCH   1  20
TORSDOF 8
ENDMDL
MODEL 3
REMARK VINA RESULT:    -7.510      2.019      3.481
REMARK INTER + INTRA:         -12.527
REMARK INTER:                 -11.339
REMARK INTRA:                  -1.188
REMARK UNBOUND:                -1.504
REMARK  Name = 
REMARK  9 active torsions:
REMARK  status: ('A' for Active; 'I' for Inactive)
REMARK    1  A    between atoms: C_1  and  O_2
REMARK    2  A    between atoms: O_2  and  C_3
REMARK    3  A    between atoms: C_10  and  C_11
REMARK    4  A    between atoms: N_13  and  C_14
REMARK    5  A    between atoms: C_14  and  C_15
REMARK    6  A    between atoms: C_18  and  C_19
REMARK    7  A    between atoms: C_19  and  N_20
REMARK    8  A    between atoms: N_20  and  C_21
REMARK    9  A    between atoms: C_21  and  C_22
REMARK                            x       y       z     vdW  Elec       q    Type
REMARK                         _______ _______ _______ _____ _____    ______ ____
ROOT
ATOM      1  C   UNL     1      47.195   3.643  14.989  0.00  0.00    +0.000 C 
ENDROOT
BRANCH   1   2
ATOM      2  C   UNL     1      46.574   4.152  13.712  0.00  0.00    +0.000 A 
ATOM      3  C   UNL     1      45.767   3.319  12.925  0.00  0.00    +0.000 A 
ATOM      4  C   UNL     1      45.201   3.793  11.736  0.00  0.00    +0.000 A 
ATOM      5  C   UNL     1      45.433   5.108  11.305  0.00  0.00    +0.000 A 
ATOM      6  C   UNL     1      46.266   5.928  12.076  0.00  0.00    +0.000 A 
ATOM      7  C   UNL     1      46.835   5.454  13.264  0.00  0.00    +0.000 A 
BRANCH   5   8
ATOM      8  C   UNL     1      44.807   5.620  10.027  0.00  0.00    +0.000 C 
BRANCH   8   9
ATOM      9  N   UNL     1      45.519   5.122   8.850  0.00  0.00    +0.000 NA
ATOM     10  H   UNL     1      46.471   4.874   9.121  0.00  0.00    +0.000 HD
BRANCH   9  11
ATOM     11  C   UNL     1      44.864   3.945   8.281  0.00  0.00    +0.000 C 
BRANCH  11  12
ATOM     12  C   UNL     1      45.878   2.971   7.732  0.00  0.00    +0.000 A 
ATOM     13  C   UNL     1      46.759   3.341   6.711  0.00  0.00    +0.000 A 
ATOM     14  C   UNL     1      47.671   2.405   6.246  0.00  0.00    +0.000 A 
ATOM     15  N   UNL     1      47.770   1.147   6.723  0.00  0.00    +0.000 NA
ATOM     16  C   UNL     1      46.914   0.808   7.710  0.00  0.00    +0.000 A 
ATOM     17  C   UNL     1      45.969   1.670   8.241  0.00  0.00    +0.000 A 
ENDBRANCH  11  12
ENDBRANCH   9  11
ENDBRANCH   8   9
ENDBRANCH   5   8
ENDBRANCH   1   2
BRANCH   1  20
ATOM     18  C   UNL     1      47.629   4.555  17.234  0.00  0.00    +0.000 C 
ATOM     19  O   UNL     1      47.520   3.444  17.748  0.00  0.00    +0.000 OA
ATOM     20  N   UNL     1      47.479   4.732  15.889  0.00  0.00    +0.000 N 
ATOM     21  H   UNL     1      47.524   5.660  15.492  0.00  0.00    +0.000 HD
BRANCH  18  29
ATOM     22  C   UNL     1      49.533   7.372  16.685  0.00  0.00    +0.000 A 
ATOM     23  N   UNL     1      50.196   8.544  16.736  0.00  0.00    +0.000 NA
ATOM     24  C   UNL     1      50.099   9.271  17.853  0.00  0.00    +0.000 A 
ATOM     25  N   UNL     1      49.407   8.969  18.948  0.00  0.00    +0.000 NA
ATOM     26  C   UNL     1      48.757   7.798  18.852  0.00  0.00    +0.000 A 
ATOM     27  S   UNL     1      47.820   7.252  20.159  0.00  0.00    +0.000 S 
ATOM     28  C   UNL     1      47.384   5.840  19.320  0.00  0.00    +0.000 A 
ATOM     29  C   UNL     1      47.930   5.749  18.045  0.00  0.00    +0.000 A 
ATOM     30  C   UNL     1      48.751   6.927  17.766  0.00  0.00    +0.000 A 
BRANCH  22  32
ATOM     31  C   UNL     1      49.881   7.437  14.369  0.00  0.00    +0.000 C 
ATOM     32  O   UNL     1      49.598   6.642  15.518  0.00  0.00    +0.000 OA
ENDBRANCH  22  32
ENDBRANCH  18  29
ENDBRANCH   1  20
TORSDOF 8
ENDMDL
MODEL 4
REMARK VINA RESULT:    -7.317      2.620      3.297
REMARK INTER + INTRA:         -12.243
REMARK INTER:                 -10.954
REMARK INTRA:                  -1.290
REMARK UNBOUND:                -1.504
REMARK  Name = 
REMARK  9 active torsions:
REMARK  status: ('A' for Active; 'I' for Inactive)
REMARK    1  A    between atoms: C_1  and  O_2
REMARK    2  A    between atoms: O_2  and  C_3
REMARK    3  A    between atoms: C_10  and  C_11
REMARK    4  A    between atoms: N_13  and  C_14
REMARK    5  A    between atoms: C_14  and  C_15
REMARK    6  A    between atoms: C_18  and  C_19
REMARK    7  A    between atoms: C_19  and  N_20
REMARK    8  A    between atoms: N_20  and  C_21
REMARK    9  A    between atoms: C_21  and  C_22
REMARK                            x       y       z     vdW  Elec       q    Type
REMARK                         _______ _______ _______ _____ _____    ______ ____
ROOT
ATOM      1  C   UNL     1      48.369   7.222  13.898  0.00  0.00    +0.000 C 
ENDROOT
BRANCH   1   2
ATOM      2  C   UNL     1      47.346   6.390  13.164  0.00  0.00    +0.000 A 
ATOM      3  C   UNL     1      46.741   6.865  11.994  0.00  0.00    +0.000 A 
ATOM      4  C   UNL     1      45.786   6.093  11.322  0.00  0.00    +0.000 A 
ATOM      5  C   UNL     1      45.412   4.832  11.808  0.00  0.00    +0.000 A 
ATOM      6  C   UNL     1      45.995   4.373  12.996  0.00  0.00    +0.000 A 
ATOM      7  C   UNL     1      46.947   5.145  13.670  0.00  0.00    +0.000 A 
BRANCH   5   8
ATOM      8  C   UNL     1      44.391   3.994  11.070  0.00  0.00    +0.000 C 
BRANCH   8   9
ATOM      9  N   UNL     1      44.933   2.681  10.723  0.00  0.00    +0.000 NA
ATOM     10  H   UNL     1      44.616   2.000  11.414  0.00  0.00    +0.000 HD
BRANCH   9  11
ATOM     11  C   UNL     1      44.496   2.251   9.395  0.00  0.00    +0.000 C 
BRANCH  11  12
ATOM     12  C   UNL     1      45.620   2.359   8.392  0.00  0.00    +0.000 A 
ATOM     13  C   UNL     1      46.410   1.252   8.068  0.00  0.00    +0.000 A 
ATOM     14  C   UNL     1      47.428   1.408   7.139  0.00  0.00    +0.000 A 
ATOM     15  N   UNL     1      47.707   2.571   6.515  0.00  0.00    +0.000 NA
ATOM     16  C   UNL     1      46.933   3.628   6.838  0.00  0.00    +0.000 A 
ATOM     17  C   UNL     1      45.893   3.573   7.752  0.00  0.00    +0.000 A 
ENDBRANCH  11  12
ENDBRANCH   9  11
ENDBRANCH   8   9
ENDBRANCH   5   8
ENDBRANCH   1   2
BRANCH   1  20
ATOM     18  C   UNL     1      49.071   6.739  16.208  0.00  0.00    +0.000 C 
ATOM     19  O   UNL     1      50.169   6.338  15.830  0.00  0.00    +0.000 OA
ATOM     20  N   UNL     1      48.134   7.183  15.319  0.00  0.00    +0.000 N 
ATOM     21  H   UNL     1      47.219   7.463  15.645  0.00  0.00    +0.000 HD
BRANCH  18  29
ATOM     22  C   UNL     1      47.765   9.156  18.285  0.00  0.00    +0.000 A 
ATOM     23  N   UNL     1      47.279   9.898  19.298  0.00  0.00    +0.000 NA
ATOM     24  C   UNL     1      47.187   9.330  20.504  0.00  0.00    +0.000 A 
ATOM     25  N   UNL     1      47.528   8.087  20.832  0.00  0.00    +0.000 NA
ATOM     26  C   UNL     1      48.002   7.381  19.792  0.00  0.00    +0.000 A 
ATOM     27  S   UNL     1      48.486   5.771  20.026  0.00  0.00    +0.000 S 
ATOM     28  C   UNL     1      48.921   5.611  18.391  0.00  0.00    +0.000 A 
ATOM     29  C   UNL     1      48.712   6.761  17.638  0.00  0.00    +0.000 A 
ATOM     30  C   UNL     1      48.158   7.820  18.481  0.00  0.00    +0.000 A 
BRANCH  22  32
ATOM     31  C   UNL     1      48.943  10.587  16.852  0.00  0.00    +0.000 C 
ATOM     32  O   UNL     1      47.820   9.727  17.032  0.00  0.00    +0.000 OA
ENDBRANCH  22  32
ENDBRANCH  18  29
ENDBRANCH   1  20
TORSDOF 8
ENDMDL
MODEL 5
REMARK VINA RESULT:    -6.663      3.314      7.608
REMARK INTER + INTRA:         -11.283
REMARK INTER:                  -9.615
REMARK INTRA:                  -1.668
REMARK UNBOUND:                -1.504
REMARK  Name = 
REMARK  9 active torsions:
REMARK  status: ('A' for Active; 'I' for Inactive)
REMARK    1  A    between atoms: C_1  and  O_2
REMARK    2  A    between atoms: O_2  and  C_3
REMARK    3  A    between atoms: C_10  and  C_11
REMARK    4  A    between atoms: N_13  and  C_14
REMARK    5  A    between atoms: C_14  and  C_15
REMARK    6  A    between atoms: C_18  and  C_19
REMARK    7  A    between atoms: C_19  and  N_20
REMARK    8  A    between atoms: N_20  and  C_21
REMARK    9  A    between atoms: C_21  and  C_22
REMARK                            x       y       z     vdW  Elec       q    Type
REMARK                         _______ _______ _______ _____ _____    ______ ____
ROOT
ATOM      1  C   UNL     1      48.374   8.055  11.861  0.00  0.00    +0.000 C 
ENDROOT
BRANCH   1   2
ATOM      2  C   UNL     1      48.525   7.917  13.356  0.00  0.00    +0.000 A 
ATOM      3  C   UNL     1      49.148   6.792  13.913  0.00  0.00    +0.000 A 
ATOM      4  C   UNL     1      49.277   6.664  15.301  0.00  0.00    +0.000 A 
ATOM      5  C   UNL     1      48.782   7.655  16.163  0.00  0.00    +0.000 A 
ATOM      6  C   UNL     1      48.130   8.762  15.605  0.00  0.00    +0.000 A 
ATOM      7  C   UNL     1      47.998   8.889  14.217  0.00  0.00    +0.000 A 
BRANCH   5   8
ATOM      8  C   UNL     1      48.937   7.519  17.661  0.00  0.00    +0.000 C 
BRANCH   8   9
ATOM      9  N   UNL     1      49.914   6.485  18.002  0.00  0.00    +0.000 NA
ATOM     10  H   UNL     1      50.630   6.894  18.604  0.00  0.00    +0.000 HD
BRANCH   9  11
ATOM     11  C   UNL     1      49.290   5.362  18.698  0.00  0.00    +0.000 C 
BRANCH  11  12
ATOM     12  C   UNL     1      49.307   4.116  17.844  0.00  0.00    +0.000 A 
ATOM     13  C   UNL     1      48.188   3.735  17.098  0.00  0.00    +0.000 A 
ATOM     14  C   UNL     1      48.259   2.582  16.330  0.00  0.00    +0.000 A 
ATOM     15  N   UNL     1      49.353   1.797  16.250  0.00  0.00    +0.000 NA
ATOM     16  C   UNL     1      50.425   2.181  16.975  0.00  0.00    +0.000 A 
ATOM     17  C   UNL     1      50.452   3.314  17.771  0.00  0.00    +0.000 A 
ENDBRANCH  11  12
ENDBRANCH   9  11
ENDBRANCH   8   9
ENDBRANCH   5   8
ENDBRANCH   1   2
BRANCH   1  20
ATOM     18  C   UNL     1      46.273   6.906  11.288  0.00  0.00    +0.000 C 
ATOM     19  O   UNL     1      45.601   7.831  11.737  0.00  0.00    +0.000 OA
ATOM     20  N   UNL     1      47.638   6.942  11.318  0.00  0.00    +0.000 N 
ATOM     21  H   UNL     1      48.173   6.151  10.988  0.00  0.00    +0.000 HD
BRANCH  18  29
ATOM     22  C   UNL     1      44.468   4.281  12.595  0.00  0.00    +0.000 A 
ATOM     23  N   UNL     1      43.756   3.162  12.835  0.00  0.00    +0.000 NA
ATOM     24  C   UNL     1      43.458   2.374  11.798  0.00  0.00    +0.000 A 
ATOM     25  N   UNL     1      43.789   2.567  10.525  0.00  0.00    +0.000 NA
ATOM     26  C   UNL     1      44.492   3.695  10.329  0.00  0.00    +0.000 A 
ATOM     27  S   UNL     1      44.999   4.103   8.762  0.00  0.00    +0.000 S 
ATOM     28  C   UNL     1      45.753   5.520   9.321  0.00  0.00    +0.000 A 
ATOM     29  C   UNL     1      45.640   5.715  10.693  0.00  0.00    +0.000 A 
ATOM     30  C   UNL     1      44.880   4.619  11.294  0.00  0.00    +0.000 A 
BRANCH  22  32
ATOM     31  C   UNL     1      46.014   4.878  14.252  0.00  0.00    +0.000 C 
ATOM     32  O   UNL     1      44.740   5.116  13.658  0.00  0.00    +0.000 OA
ENDBRANCH  22  32
ENDBRANCH  18  29
ENDBRANCH   1  20
TORSDOF 8
ENDMDL
MODEL 6
REMARK VINA RESULT:    -6.658      2.510      4.326
REMARK INTER + INTRA:         -11.276
REMARK INTER:                 -10.015
REMARK INTRA:                  -1.261
REMARK UNBOUND:                -1.504
REMARK  Name = 
REMARK  9 active torsions:
REMARK  status: ('A' for Active; 'I' for Inactive)
REMARK    1  A    between atoms: C_1  and  O_2
REMARK    2  A    between atoms: O_2  and  C_3
REMARK    3  A    between atoms: C_10  and  C_11
REMARK    4  A    between atoms: N_13  and  C_14
REMARK    5  A    between atoms: C_14  and  C_15
REMARK    6  A    between atoms: C_18  and  C_19
REMARK    7  A    between atoms: C_19  and  N_20
REMARK    8  A    between atoms: N_20  and  C_21
REMARK    9  A    between atoms: C_21  and  C_22
REMARK                            x       y       z     vdW  Elec       q    Type
REMARK                         _______ _______ _______ _____ _____    ______ ____
ROOT
ATOM      1  C   UNL     1      47.454   5.346  14.737  0.00  0.00    +0.000 C 
ENDROOT
BRANCH   1   2
ATOM      2  C   UNL     1      46.501   5.189  13.578  0.00  0.00    +0.000 A 
ATOM      3  C   UNL     1      46.028   6.310  12.882  0.00  0.00    +0.000 A 
ATOM      4  C   UNL     1      45.137   6.159  11.813  0.00  0.00    +0.000 A 
ATOM      5  C   UNL     1      44.695   4.887  11.420  0.00  0.00    +0.000 A 
ATOM      6  C   UNL     1      45.144   3.772  12.139  0.00  0.00    +0.000 A 
ATOM      7  C   UNL     1      46.033   3.921  13.209  0.00  0.00    +0.000 A 
BRANCH   5   8
ATOM      8  C   UNL     1      43.743   4.729  10.255  0.00  0.00    +0.000 C 
BRANCH   8   9
ATOM      9  N   UNL     1      44.457   4.357   9.034  0.00  0.00    +0.000 NA
ATOM     10  H   UNL     1      45.423   4.677   9.106  0.00  0.00    +0.000 HD
BRANCH   9  11
ATOM     11  C   UNL     1      44.448   2.910   8.824  0.00  0.00    +0.000 C 
BRANCH  11  12
ATOM     12  C   UNL     1      45.706   2.455   8.122  0.00  0.00    +0.000 A 
ATOM     13  C   UNL     1      46.092   1.112   8.126  0.00  0.00    +0.000 A 
ATOM     14  C   UNL     1      47.256   0.750   7.465  0.00  0.00    +0.000 A 
ATOM     15  N   UNL     1      48.049   1.619   6.805  0.00  0.00    +0.000 NA
ATOM     16  C   UNL     1      47.660   2.912   6.809  0.00  0.00    +0.000 A 
ATOM     17  C   UNL     1      46.515   3.371   7.439  0.00  0.00    +0.000 A 
ENDBRANCH  11  12
ENDBRANCH   9  11
ENDBRANCH   8   9
ENDBRANCH   5   8
ENDBRANCH   1   2
BRANCH   1  20
ATOM     18  C   UNL     1      49.185   7.047  15.151  0.00  0.00    +0.000 C 
ATOM     19  O   UNL     1      48.722   7.303  16.261  0.00  0.00    +0.000 OA
ATOM     20  N   UNL     1      48.616   6.104  14.345  0.00  0.00    +0.000 N 
ATOM     21  H   UNL     1      48.982   5.942  13.418  0.00  0.00    +0.000 HD
BRANCH  18  29
ATOM     22  C   UNL     1      49.808   8.908  12.321  0.00  0.00    +0.000 A 
ATOM     23  N   UNL     1      50.317   9.654  11.321  0.00  0.00    +0.000 NA
ATOM     24  C   UNL     1      51.600  10.016  11.400  0.00  0.00    +0.000 A 
ATOM     25  N   UNL     1      52.458   9.720  12.372  0.00  0.00    +0.000 NA
ATOM     26  C   UNL     1      51.909   8.981  13.350  0.00  0.00    +0.000 A 
ATOM     27  S   UNL     1      52.858   8.510  14.676  0.00  0.00    +0.000 S 
ATOM     28  C   UNL     1      51.552   7.684  15.382  0.00  0.00    +0.000 A 
ATOM     29  C   UNL     1      50.378   7.745  14.639  0.00  0.00    +0.000 A 
ATOM     30  C   UNL     1      50.596   8.527  13.422  0.00  0.00    +0.000 A 
BRANCH  22  32
ATOM     31  C   UNL     1      47.601   9.673  12.498  0.00  0.00    +0.000 C 
ATOM     32  O   UNL     1      48.473   8.570  12.262  0.00  0.00    +0.000 OA
ENDBRANCH  22  32
ENDBRANCH  18  29
ENDBRANCH   1  20
TORSDOF 8
ENDMDL
MODEL 7
REMARK VINA RESULT:    -6.643      4.494      9.116
REMARK INTER + INTRA:         -11.254
REMARK INTER:                 -10.224
REMARK INTRA:                  -1.030
REMARK UNBOUND:                -1.504
REMARK  Name = 
REMARK  9 active torsions:
REMARK  status: ('A' for Active; 'I' for Inactive)
REMARK    1  A    between atoms: C_1  and  O_2
REMARK    2  A    between atoms: O_2  and  C_3
REMARK    3  A    between atoms: C_10  and  C_11
REMARK    4  A    between atoms: N_13  and  C_14
REMARK    5  A    between atoms: C_14  and  C_15
REMARK    6  A    between atoms: C_18  and  C_19
REMARK    7  A    between atoms: C_19  and  N_20
REMARK    8  A    between atoms: N_20  and  C_21
REMARK    9  A    between atoms: C_21  and  C_22
REMARK                            x       y       z     vdW  Elec       q    Type
REMARK                         _______ _______ _______ _____ _____    ______ ____
ROOT
ATOM      1  C   UNL     1      47.142   3.383  16.759  0.00  0.00    +0.000 C 
ENDROOT
BRANCH   1   2
ATOM      2  C   UNL     1      48.616   3.344  17.081  0.00  0.00    +0.000 A 
ATOM      3  C   UNL     1      49.341   2.150  16.976  0.00  0.00    +0.000 A 
ATOM      4  C   UNL     1      50.706   2.116  17.285  0.00  0.00    +0.000 A 
ATOM      5  C   UNL     1      51.375   3.274  17.710  0.00  0.00    +0.000 A 
ATOM      6  C   UNL     1      50.640   4.459  17.845  0.00  0.00    +0.000 A 
ATOM      7  C   UNL     1      49.275   4.493  17.539  0.00  0.00    +0.000 A 
BRANCH   5   8
ATOM      8  C   UNL     1      52.853   3.236  18.029  0.00  0.00    +0.000 C 
BRANCH   8   9
ATOM      9  N   UNL     1      53.177   2.117  18.913  0.00  0.00    +0.000 NA
ATOM     10  H   UNL     1      52.579   1.325  18.675  0.00  0.00    +0.000 HD
BRANCH   9  11
ATOM     11  C   UNL     1      54.576   1.714  18.783  0.00  0.00    +0.000 C 
BRANCH  11  12
ATOM     12  C   UNL     1      54.695   0.379  18.087  0.00  0.00    +0.000 A 
ATOM     13  C   UNL     1      54.888   0.298  16.705  0.00  0.00    +0.000 A 
ATOM     14  C   UNL     1      54.992  -0.955  16.119  0.00  0.00    +0.000 A 
ATOM     15  N   UNL     1      54.923  -2.116  16.804  0.00  0.00    +0.000 NA
ATOM     16  C   UNL     1      54.738  -2.018  18.137  0.00  0.00    +0.000 A 
ATOM     17  C   UNL     1      54.623  -0.815  18.814  0.00  0.00    +0.000 A 
ENDBRANCH  11  12
ENDBRANCH   9  11
ENDBRANCH   8   9
ENDBRANCH   5   8
ENDBRANCH   1   2
BRANCH   1  20
ATOM     18  C   UNL     1      46.885   4.244  14.466  0.00  0.00    +0.000 C 
ATOM     19  O   UNL     1      47.175   3.152  13.984  0.00  0.00    +0.000 OA
ATOM     20  N   UNL     1      46.853   4.436  15.818  0.00  0.00    +0.000 N 
ATOM     21  H   UNL     1      46.661   5.353  16.195  0.00  0.00    +0.000 HD
BRANCH  18  29
ATOM     22  C   UNL     1      44.096   5.129  12.650  0.00  0.00    +0.000 A 
ATOM     23  N   UNL     1      43.163   5.703  11.866  0.00  0.00    +0.000 NA
ATOM     24  C   UNL     1      43.467   6.863  11.275  0.00  0.00    +0.000 A 
ATOM     25  N   UNL     1      44.610   7.535  11.372  0.00  0.00    +0.000 NA
ATOM     26  C   UNL     1      45.509   6.932  12.168  0.00  0.00    +0.000 A 
ATOM     27  S   UNL     1      47.028   7.651  12.409  0.00  0.00    +0.000 S 
ATOM     28  C   UNL     1      47.520   6.385  13.430  0.00  0.00    +0.000 A 
ATOM     29  C   UNL     1      46.557   5.399  13.611  0.00  0.00    +0.000 A 
ATOM     30  C   UNL     1      45.350   5.732  12.854  0.00  0.00    +0.000 A 
BRANCH  22  32
ATOM     31  C   UNL     1      43.655   2.841  12.411  0.00  0.00    +0.000 C 
ATOM     32  O   UNL     1      43.768   3.955  13.294  0.00  0.00    +0.000 OA
ENDBRANCH  22  32
ENDBRANCH  18  29
ENDBRANCH   1  20
TORSDOF 8
ENDMDL
MODEL 8
REMARK VINA RESULT:    -6.578      1.981      3.467
REMARK INTER + INTRA:         -11.159
REMARK INTER:                  -9.998
REMARK INTRA:                  -1.160
REMARK UNBOUND:                -1.504
REMARK  Name = 
REMARK  9 active torsions:
REMARK  status: ('A' for Active; 'I' for Inactive)
REMARK    1  A    between atoms: C_1  and  O_2
REMARK    2  A    between atoms: O_2  and  C_3
REMARK    3  A    between atoms: C_10  and  C_11
REMARK    4  A    between atoms: N_13  and  C_14
REMARK    5  A    between atoms: C_14  and  C_15
REMARK    6  A    between atoms: C_18  and  C_19
REMARK    7  A    between atoms: C_19  and  N_20
REMARK    8  A    between atoms: N_20  and  C_21
REMARK    9  A    between atoms: C_21  and  C_22
REMARK                            x       y       z     vdW  Elec       q    Type
REMARK                         _______ _______ _______ _____ _____    ______ ____
ROOT
ATOM      1  C   UNL     1      46.928   4.436  15.252  0.00  0.00    +0.000 C 
ENDROOT
BRANCH   1   2
ATOM      2  C   UNL     1      46.428   4.798  13.875  0.00  0.00    +0.000 A 
ATOM      3  C   UNL     1      46.955   5.900  13.187  0.00  0.00    +0.000 A 
ATOM      4  C   UNL     1      46.481   6.237  11.915  0.00  0.00    +0.000 A 
ATOM      5  C   UNL     1      45.467   5.486  11.303  0.00  0.00    +0.000 A 
ATOM      6  C   UNL     1      44.919   4.405  12.006  0.00  0.00    +0.000 A 
ATOM      7  C   UNL     1      45.390   4.068  13.280  0.00  0.00    +0.000 A 
BRANCH   5   8
ATOM      8  C   UNL     1      44.968   5.845   9.921  0.00  0.00    +0.000 C 
BRANCH   8   9
ATOM      9  N   UNL     1      45.718   5.135   8.885  0.00  0.00    +0.000 NA
ATOM     10  H   UNL     1      46.634   4.882   9.256  0.00  0.00    +0.000 HD
BRANCH   9  11
ATOM     11  C   UNL     1      45.026   3.921   8.456  0.00  0.00    +0.000 C 
BRANCH  11  12
ATOM     12  C   UNL     1      45.987   2.942   7.823  0.00  0.00    +0.000 A 
ATOM     13  C   UNL     1      46.026   1.604   8.225  0.00  0.00    +0.000 A 
ATOM     14  C   UNL     1      46.929   0.749   7.609  0.00  0.00    +0.000 A 
ATOM     15  N   UNL     1      47.777   1.127   6.631  0.00  0.00    +0.000 NA
ATOM     16  C   UNL     1      47.724   2.422   6.254  0.00  0.00    +0.000 A 
ATOM     17  C   UNL     1      46.858   3.351   6.807  0.00  0.00    +0.000 A 
ENDBRANCH  11  12
ENDBRANCH   9  11
ENDBRANCH   8   9
ENDBRANCH   5   8
ENDBRANCH   1   2
BRANCH   1  20
ATOM     18  C   UNL     1      48.648   5.468  16.679  0.00  0.00    +0.000 C 
ATOM     19  O   UNL     1      47.887   5.492  17.644  0.00  0.00    +0.000 OA
ATOM     20  N   UNL     1      48.249   4.969  15.472  0.00  0.00    +0.000 N 
ATOM     21  H   UNL     1      48.873   5.002  14.679  0.00  0.00    +0.000 HD
BRANCH  18  29
ATOM     22  C   UNL     1      50.416   7.883  14.976  0.00  0.00    +0.000 A 
ATOM     23  N   UNL     1      51.323   8.747  14.480  0.00  0.00    +0.000 NA
ATOM     24  C   UNL     1      52.549   8.743  15.012  0.00  0.00    +0.000 A 
ATOM     25  N   UNL     1      52.993   7.967  15.996  0.00  0.00    +0.000 NA
ATOM     26  C   UNL     1      52.056   7.126  16.465  0.00  0.00    +0.000 A 
ATOM     27  S   UNL     1      52.445   6.059  17.726  0.00  0.00    +0.000 S 
ATOM     28  C   UNL     1      50.877   5.405  17.725  0.00  0.00    +0.000 A 
ATOM     29  C   UNL     1      50.030   5.973  16.779  0.00  0.00    +0.000 A 
ATOM     30  C   UNL     1      50.740   7.007  16.026  0.00  0.00    +0.000 A 
BRANCH  22  32
ATOM     31  C   UNL     1      48.334   8.956  15.008  0.00  0.00    +0.000 C 
ATOM     32  O   UNL     1      49.140   7.917  14.457  0.00  0.00    +0.000 OA
ENDBRANCH  22  32
ENDBRANCH  18  29
ENDBRANCH   1  20
TORSDOF 8
ENDMDL
MODEL 9
REMARK VINA RESULT:    -6.428      3.695      8.651
REMARK INTER + INTRA:         -10.938
REMARK INTER:                  -9.611
REMARK INTRA:                  -1.327
REMARK UNBOUND:                -1.504
REMARK  Name = 
REMARK  9 active torsions:
REMARK  status: ('A' for Active; 'I' for Inactive)
REMARK    1  A    between atoms: C_1  and  O_2
REMARK    2  A    between atoms: O_2  and  C_3
REMARK    3  A    between atoms: C_10  and  C_11
REMARK    4  A    between atoms: N_13  and  C_14
REMARK    5  A    between atoms: C_14  and  C_15
REMARK    6  A    between atoms: C_18  and  C_19
REMARK    7  A    between atoms: C_19  and  N_20
REMARK    8  A    between atoms: N_20  and  C_21
REMARK    9  A    between atoms: C_21  and  C_22
REMARK                            x       y       z     vdW  Elec       q    Type
REMARK                         _______ _______ _______ _____ _____    ______ ____
ROOT
ATOM      1  C   UNL     1      47.457   3.269  16.881  0.00  0.00    +0.000 C 
ENDROOT
BRANCH   1   2
ATOM      2  C   UNL     1      48.927   3.246  17.221  0.00  0.00    +0.000 A 
ATOM      3  C   UNL     1      49.704   2.109  16.963  0.00  0.00    +0.000 A 
ATOM      4  C   UNL     1      51.065   2.088  17.289  0.00  0.00    +0.000 A 
ATOM      5  C   UNL     1      51.678   3.201  17.884  0.00  0.00    +0.000 A 
ATOM      6  C   UNL     1      50.892   4.324  18.170  0.00  0.00    +0.000 A 
ATOM      7  C   UNL     1      49.530   4.345  17.847  0.00  0.00    +0.000 A 
BRANCH   5   8
ATOM      8  C   UNL     1      53.153   3.180  18.220  0.00  0.00    +0.000 C 
BRANCH   8   9
ATOM      9  N   UNL     1      53.716   4.530  18.220  0.00  0.00    +0.000 NA
ATOM     10  H   UNL     1      54.181   4.693  19.113  0.00  0.00    +0.000 HD
BRANCH   9  11
ATOM     11  C   UNL     1      54.684   4.710  17.138  0.00  0.00    +0.000 C 
BRANCH  11  12
ATOM     12  C   UNL     1      54.253   5.815  16.203  0.00  0.00    +0.000 A 
ATOM     13  C   UNL     1      53.079   6.538  16.429  0.00  0.00    +0.000 A 
ATOM     14  C   UNL     1      52.733   7.543  15.537  0.00  0.00    +0.000 A 
ATOM     15  N   UNL     1      53.466   7.876  14.455  0.00  0.00    +0.000 NA
ATOM     16  C   UNL     1      54.598   7.169  14.254  0.00  0.00    +0.000 A 
ATOM     17  C   UNL     1      55.029   6.149  15.086  0.00  0.00    +0.000 A 
ENDBRANCH  11  12
ENDBRANCH   9  11
ENDBRANCH   8   9
ENDBRANCH   5   8
ENDBRANCH   1   2
BRANCH   1  20
ATOM     18  C   UNL     1      47.106   4.188  14.624  0.00  0.00    +0.000 C 
ATOM     19  O   UNL     1      47.322   3.095  14.105  0.00  0.00    +0.000 OA
ATOM     20  N   UNL     1      47.159   4.353  15.979  0.00  0.00    +0.000 N 
ATOM     21  H   UNL     1      47.026   5.268  16.383  0.00  0.00    +0.000 HD
BRANCH  18  29
ATOM     22  C   UNL     1      44.388   5.058  12.697  0.00  0.00    +0.000 A 
ATOM     23  N   UNL     1      43.477   5.636  11.889  0.00  0.00    +0.000 NA
ATOM     24  C   UNL     1      43.765   6.836  11.377  0.00  0.00    +0.000 A 
ATOM     25  N   UNL     1      44.871   7.547  11.574  0.00  0.00    +0.000 NA
ATOM     26  C   UNL     1      45.749   6.938  12.388  0.00  0.00    +0.000 A 
ATOM     27  S   UNL     1      47.220   7.701  12.753  0.00  0.00    +0.000 S 
ATOM     28  C   UNL     1      47.708   6.403  13.736  0.00  0.00    +0.000 A 
ATOM     29  C   UNL     1      46.778   5.373  13.810  0.00  0.00    +0.000 A 
ATOM     30  C   UNL     1      45.602   5.698  13.003  0.00  0.00    +0.000 A 
BRANCH  22  32
ATOM     31  C   UNL     1      43.596   2.887  12.313  0.00  0.00    +0.000 C 
ATOM     32  O   UNL     1      44.074   3.840  13.260  0.00  0.00    +0.000 OA
ENDBRANCH  22  32
ENDBRANCH  18  29
ENDBRANCH   1  20
TORSDOF 8
ENDMDL
