MODEL 1
REMARK VINA RESULT:    -8.337      0.000      0.000
REMARK INTER + INTRA:         -12.580
REMARK INTER:                 -11.505
REMARK INTRA:                  -1.074
REMARK UNBOUND:                -1.074
REMARK  Name = 
REMARK  8 active torsions:
REMARK  status: ('A' for Active; 'I' for Inactive)
REMARK    1  A    between atoms: C_1  and  C_2
REMARK    2  A    between atoms: C_2  and  C_3
REMARK    3  A    between atoms: C_2  and  C_18
REMARK    4  A    between atoms: C_3  and  N_4
REMARK    5  A    between atoms: C_9  and  O_10
REMARK    6  A    between atoms: O_10  and  C_11
REMARK    7  A    between atoms: C_21  and  S_22
REMARK    8  A    between atoms: S_22  and  N_23
REMARK                            x       y       z     vdW  Elec       q    Type
REMARK                         _______ _______ _______ _____ _____    ______ ____
ROOT
ATOM      1  C   UNL     1      46.940   7.079  12.086  0.00  0.00    +0.000 C 
ENDROOT
BRANCH   1   2
ATOM      2  N   UNL     1      45.659   6.863  12.737  0.00  0.00    +0.000 N 
ATOM      3  C   UNL     1      44.822   5.954  12.110  0.00  0.00    +0.000 A 
ATOM      4  N   UNL     1      43.509   6.200  12.209  0.00  0.00    +0.000 NA
ATOM      5  C   UNL     1      42.673   5.297  11.664  0.00  0.00    +0.000 A 
ATOM      6  C   UNL     1      43.103   4.164  11.028  0.00  0.00    +0.000 A 
ATOM      7  C   UNL     1      44.465   4.025  10.958  0.00  0.00    +0.000 A 
ATOM      8  N   UNL     1      45.341   4.898  11.477  0.00  0.00    +0.000 NA
ATOM      9  H   UNL     1      45.111   7.710  12.888  0.00  0.00    +0.000 HD
BRANCH   7  10
ATOM     10  O   UNL     1      44.955   2.886  10.352  0.00  0.00    +0.000 OA
BRANCH  10  11
ATOM     11  C   UNL     1      45.067   2.932   8.912  0.00  0.00    +0.000 C 
ATOM     12  C   UNL     1      46.096   1.935   8.333  0.00  0.00    +0.000 C 
ATOM     13  C   UNL     1      46.476   3.005   7.296  0.00  0.00    +0.000 C 
ATOM     14  F   UNL     1      47.793   3.113   7.017  0.00  0.00    +0.000 F 
ATOM     15  F   UNL     1      45.833   2.907   6.109  0.00  0.00    +0.000 F 
ATOM     16  C   UNL     1      45.908   4.058   8.266  0.00  0.00    +0.000 C 
ENDBRANCH  10  11
ENDBRANCH   7  10
ENDBRANCH   1   2
BRANCH   1  18
ATOM     17  C   UNL     1      49.454   7.251  12.446  0.00  0.00    +0.000 C 
ATOM     18  C   UNL     1      48.072   7.313  13.107  0.00  0.00    +0.000 C 
BRANCH  18  19
ATOM     19  C   UNL     1      48.030   6.377  14.300  0.00  0.00    +0.000 A 
ATOM     20  C   UNL     1      48.604   6.757  15.512  0.00  0.00    +0.000 A 
ATOM     21  C   UNL     1      48.672   5.832  16.543  0.00  0.00    +0.000 A 
ATOM     22  C   UNL     1      48.155   4.578  16.294  0.00  0.00    +0.000 A 
ATOM     23  N   UNL     1      47.580   4.213  15.127  0.00  0.00    +0.000 NA
ATOM     24  N   UNL     1      47.525   5.128  14.122  0.00  0.00    +0.000 NA
BRANCH  22  25
ATOM     25  S   UNL     1      48.265   3.282  17.493  0.00  0.00    +0.000 S 
ATOM     26  O   UNL     1      48.914   2.158  16.858  0.00  0.00    +0.000 OA
ATOM     27  O   UNL     1      48.749   3.871  18.722  0.00  0.00    +0.000 OA
BRANCH  25  28
ATOM     28  N   UNL     1      46.663   2.823  17.772  0.00  0.00    +0.000 NA
ATOM     29  H   UNL     1      46.028   3.617  17.694  0.00  0.00    +0.000 HD
ATOM     30  H   UNL     1      46.569   2.309  18.648  0.00  0.00    +0.000 HD
ENDBRANCH  25  28
ENDBRANCH  22  25
ENDBRANCH  18  19
ENDBRANCH   1  18
TORSDOF 7
ENDMDL
MODEL 2
REMARK VINA RESULT:    -7.777      3.491      5.011
REMARK INTER + INTRA:         -11.807
REMARK INTER:                 -10.830
REMARK INTRA:                  -0.977
REMARK UNBOUND:                -1.074
REMARK  Name = 
REMARK  8 active torsions:
REMARK  status: ('A' for Active; 'I' for Inactive)
REMARK    1  A    between atoms: C_1  and  C_2
REMARK    2  A    between atoms: C_2  and  C_3
REMARK    3  A    between atoms: C_2  and  C_18
REMARK    4  A    between atoms: C_3  and  N_4
REMARK    5  A    between atoms: C_9  and  O_10
REMARK    6  A    between atoms: O_10  and  C_11
REMARK    7  A    between atoms: C_21  and  S_22
REMARK    8  A    between atoms: S_22  and  N_23
REMARK                            x       y       z     vdW  Elec       q    Type
REMARK                         _______ _______ _______ _____ _____    ______ ____
ROOT
ATOM      1  C   UNL     1      47.193   4.870  13.460  0.00  0.00    +0.000 C 
ENDROOT
BRANCH   1   2
ATOM      2  N   UNL     1      45.844   4.952  13.994  0.00  0.00    +0.000 N 
ATOM      3  C   UNL     1      44.829   4.781  13.067  0.00  0.00    +0.000 A 
ATOM      4  N   UNL     1      43.706   5.475  13.294  0.00  0.00    +0.000 NA
ATOM      5  C   UNL     1      42.682   5.276  12.443  0.00  0.00    +0.000 A 
ATOM      6  C   UNL     1      42.743   4.414  11.382  0.00  0.00    +0.000 A 
ATOM      7  C   UNL     1      43.947   3.779  11.226  0.00  0.00    +0.000 A 
ATOM      8  N   UNL     1      45.000   3.945  12.039  0.00  0.00    +0.000 NA
ATOM      9  H   UNL     1      45.639   5.814  14.499  0.00  0.00    +0.000 HD
BRANCH   7  10
ATOM     10  O   UNL     1      44.056   2.875  10.188  0.00  0.00    +0.000 OA
BRANCH  10  11
ATOM     11  C   UNL     1      45.304   2.896   9.459  0.00  0.00    +0.000 C 
ATOM     12  C   UNL     1      45.340   3.930   8.311  0.00  0.00    +0.000 C 
ATOM     13  C   UNL     1      46.145   2.913   7.486  0.00  0.00    +0.000 C 
ATOM     14  F   UNL     1      45.826   2.833   6.176  0.00  0.00    +0.000 F 
ATOM     15  F   UNL     1      47.489   3.058   7.551  0.00  0.00    +0.000 F 
ATOM     16  C   UNL     1      45.559   1.810   8.387  0.00  0.00    +0.000 C 
ENDBRANCH  10  11
ENDBRANCH   7  10
ENDBRANCH   1   2
BRANCH   1  18
ATOM     17  C   UNL     1      48.426   6.793  14.584  0.00  0.00    +0.000 C 
ATOM     18  C   UNL     1      47.826   6.265  13.276  0.00  0.00    +0.000 C 
BRANCH  18  19
ATOM     19  C   UNL     1      46.881   7.298  12.691  0.00  0.00    +0.000 A 
ATOM     20  C   UNL     1      46.622   8.482  13.378  0.00  0.00    +0.000 A 
ATOM     21  C   UNL     1      45.653   9.346  12.889  0.00  0.00    +0.000 A 
ATOM     22  C   UNL     1      45.004   8.967  11.733  0.00  0.00    +0.000 A 
ATOM     23  N   UNL     1      45.267   7.830  11.053  0.00  0.00    +0.000 NA
ATOM     24  N   UNL     1      46.215   6.989  11.547  0.00  0.00    +0.000 NA
BRANCH  22  25
ATOM     25  S   UNL     1      43.684   9.934  11.059  0.00  0.00    +0.000 S 
ATOM     26  O   UNL     1      43.304  10.904  12.061  0.00  0.00    +0.000 OA
ATOM     27  O   UNL     1      44.066  10.308   9.715  0.00  0.00    +0.000 OA
BRANCH  25  28
ATOM     28  N   UNL     1      42.394   8.854  10.916  0.00  0.00    +0.000 NA
ATOM     29  H   UNL     1      41.959   8.912   9.996  0.00  0.00    +0.000 HD
ATOM     30  H   UNL     1      41.734   8.956  11.687  0.00  0.00    +0.000 HD
ENDBRANCH  25  28
ENDBRANCH  22  25
ENDBRANCH  18  19
ENDBRANCH   1  18
TORSDOF 7
ENDMDL
MODEL 3
REMARK VINA RESULT:    -7.658      1.309      1.364
REMARK INTER + INTRA:         -11.642
REMARK INTER:                 -10.720
REMARK INTRA:                  -0.922
REMARK UNBOUND:                -1.074
REMARK  Name = 
REMARK  8 active torsions:
REMARK  status: ('A' for Active; 'I' for Inactive)
REMARK    1  A    between atoms: C_1  and  C_2
REMARK    2  A    between atoms: C_2  and  C_3
REMARK    3  A    between atoms: C_2  and  C_18
REMARK    4  A    between atoms: C_3  and  N_4
REMARK    5  A    between atoms: C_9  and  O_10
REMARK    6  A    between atoms: O_10  and  C_11
REMARK    7  A    between atoms: C_21  and  S_22
REMARK    8  A    between atoms: S_22  and  N_23
REMARK                            x       y       z     vdW  Elec       q    Type
REMARK                         _______ _______ _______ _____ _____    ______ ____
ROOT
ATOM      1  C   UNL     1      47.223   6.209  12.803  0.00  0.00    +0.000 C 
ENDROOT
BRANCH   1   2
ATOM      2  N   UNL     1      45.911   6.101  13.417  0.00  0.00    +0.000 N 
ATOM      3  C   UNL     1      44.963   5.418  12.673  0.00  0.00    +0.000 A 
ATOM      4  N   UNL     1      43.699   5.842  12.802  0.00  0.00    +0.000 NA
ATOM      5  C   UNL     1      42.751   5.153  12.139  0.00  0.00    +0.000 A 
ATOM      6  C   UNL     1      43.023   4.063  11.358  0.00  0.00    +0.000 A 
ATOM      7  C   UNL     1      44.350   3.734  11.272  0.00  0.00    +0.000 A 
ATOM      8  N   UNL     1      45.334   4.390  11.905  0.00  0.00    +0.000 NA
ATOM      9  H   UNL     1      45.491   6.993  13.680  0.00  0.00    +0.000 HD
BRANCH   7  10
ATOM     10  O   UNL     1      44.680   2.625  10.519  0.00  0.00    +0.000 OA
BRANCH  10  11
ATOM     11  C   UNL     1      44.800   2.838   9.095  0.00  0.00    +0.000 C 
ATOM     12  C   UNL     1      45.905   1.988   8.427  0.00  0.00    +0.000 C 
ATOM     13  C   UNL     1      46.213   3.191   7.521  0.00  0.00    +0.000 C 
ATOM     14  F   UNL     1      47.522   3.424   7.276  0.00  0.00    +0.000 F 
ATOM     15  F   UNL     1      45.590   3.179   6.319  0.00  0.00    +0.000 F 
ATOM     16  C   UNL     1      45.562   4.087   8.591  0.00  0.00    +0.000 C 
ENDBRANCH  10  11
ENDBRANCH   7  10
ENDBRANCH   1   2
BRANCH   1  18
ATOM     17  C   UNL     1      49.316   7.656  12.734  0.00  0.00    +0.000 C 
ATOM     18  C   UNL     1      48.156   7.148  13.596  0.00  0.00    +0.000 C 
BRANCH  18  19
ATOM     19  C   UNL     1      48.695   6.541  14.878  0.00  0.00    +0.000 A 
ATOM     20  C   UNL     1      49.804   7.103  15.509  0.00  0.00    +0.000 A 
ATOM     21  C   UNL     1      50.359   6.452  16.600  0.00  0.00    +0.000 A 
ATOM     22  C   UNL     1      49.762   5.272  16.994  0.00  0.00    +0.000 A 
ATOM     23  N   UNL     1      48.675   4.736  16.398  0.00  0.00    +0.000 NA
ATOM     24  N   UNL     1      48.145   5.382  15.325  0.00  0.00    +0.000 NA
BRANCH  22  25
ATOM     25  S   UNL     1      50.429   4.299  18.313  0.00  0.00    +0.000 S 
ATOM     26  O   UNL     1      51.672   3.729  17.843  0.00  0.00    +0.000 OA
ATOM     27  O   UNL     1      50.339   5.088  19.521  0.00  0.00    +0.000 OA
BRANCH  25  28
ATOM     28  N   UNL     1      49.343   3.016  18.487  0.00  0.00    +0.000 NA
ATOM     29  H   UNL     1      49.828   2.121  18.536  0.00  0.00    +0.000 HD
ATOM     30  H   UNL     1      48.612   3.047  17.775  0.00  0.00    +0.000 HD
ENDBRANCH  25  28
ENDBRANCH  22  25
ENDBRANCH  18  19
ENDBRANCH   1  18
TORSDOF 7
ENDMDL
MODEL 4
REMARK VINA RESULT:    -7.011      1.646      2.238
REMARK INTER + INTRA:         -10.750
REMARK INTER:                  -9.711
REMARK INTRA:                  -1.039
REMARK UNBOUND:                -1.074
REMARK  Name = 
REMARK  8 active torsions:
REMARK  status: ('A' for Active; 'I' for Inactive)
REMARK    1  A    between atoms: C_1  and  C_2
REMARK    2  A    between atoms: C_2  and  C_3
REMARK    3  A    between atoms: C_2  and  C_18
REMARK    4  A    between atoms: C_3  and  N_4
REMARK    5  A    between atoms: C_9  and  O_10
REMARK    6  A    between atoms: O_10  and  C_11
REMARK    7  A    between atoms: C_21  and  S_22
REMARK    8  A    between atoms: S_22  and  N_23
REMARK                            x       y       z     vdW  Elec       q    Type
REMARK                         _______ _______ _______ _____ _____    ______ ____
ROOT
ATOM      1  C   UNL     1      48.505   8.359  13.320  0.00  0.00    +0.000 C 
ENDROOT
BRANCH   1   2
ATOM      2  N   UNL     1      47.169   8.922  13.424  0.00  0.00    +0.000 N 
ATOM      3  C   UNL     1      46.209   8.321  12.626  0.00  0.00    +0.000 A 
ATOM      4  N   UNL     1      45.245   9.126  12.162  0.00  0.00    +0.000 NA
ATOM      5  C   UNL     1      44.266   8.554  11.437  0.00  0.00    +0.000 A 
ATOM      6  C   UNL     1      44.218   7.214  11.164  0.00  0.00    +0.000 A 
ATOM      7  C   UNL     1      45.269   6.488  11.661  0.00  0.00    +0.000 A 
ATOM      8  N   UNL     1      46.273   7.009  12.382  0.00  0.00    +0.000 NA
ATOM      9  H   UNL     1      47.115   9.925  13.244  0.00  0.00    +0.000 HD
BRANCH   7  10
ATOM     10  O   UNL     1      45.259   5.126  11.440  0.00  0.00    +0.000 OA
BRANCH  10  11
ATOM     11  C   UNL     1      44.826   4.700  10.129  0.00  0.00    +0.000 C 
ATOM     12  C   UNL     1      44.883   3.170   9.919  0.00  0.00    +0.000 C 
ATOM     13  C   UNL     1      45.338   3.435   8.474  0.00  0.00    +0.000 C 
ATOM     14  F   UNL     1      46.300   2.614   8.000  0.00  0.00    +0.000 F 
ATOM     15  F   UNL     1      44.346   3.444   7.553  0.00  0.00    +0.000 F 
ATOM     16  C   UNL     1      45.811   4.823   8.943  0.00  0.00    +0.000 C 
ENDBRANCH  10  11
ENDBRANCH   7  10
ENDBRANCH   1   2
BRANCH   1  18
ATOM     17  C   UNL     1      50.715   8.291  14.582  0.00  0.00    +0.000 C 
ATOM     18  C   UNL     1      49.188   8.237  14.698  0.00  0.00    +0.000 C 
BRANCH  18  19
ATOM     19  C   UNL     1      48.775   7.006  15.484  0.00  0.00    +0.000 A 
ATOM     20  C   UNL     1      49.095   6.896  16.836  0.00  0.00    +0.000 A 
ATOM     21  C   UNL     1      48.827   5.705  17.495  0.00  0.00    +0.000 A 
ATOM     22  C   UNL     1      48.250   4.696  16.753  0.00  0.00    +0.000 A 
ATOM     23  N   UNL     1      47.920   4.807  15.448  0.00  0.00    +0.000 NA
ATOM     24  N   UNL     1      48.193   5.978  14.812  0.00  0.00    +0.000 NA
BRANCH  22  25
ATOM     25  S   UNL     1      47.944   3.099  17.453  0.00  0.00    +0.000 S 
ATOM     26  O   UNL     1      46.514   2.891  17.447  0.00  0.00    +0.000 OA
ATOM     27  O   UNL     1      48.870   2.174  16.839  0.00  0.00    +0.000 OA
BRANCH  25  28
ATOM     28  N   UNL     1      48.406   3.248  19.071  0.00  0.00    +0.000 NA
ATOM     29  H   UNL     1      48.263   2.378  19.581  0.00  0.00    +0.000 HD
ATOM     30  H   UNL     1      47.967   4.057  19.512  0.00  0.00    +0.000 HD
ENDBRANCH  25  28
ENDBRANCH  22  25
ENDBRANCH  18  19
ENDBRANCH   1  18
TORSDOF 7
ENDMDL
MODEL 5
REMARK VINA RESULT:    -6.949      2.725      3.636
REMARK INTER + INTRA:         -10.663
REMARK INTER:                  -9.549
REMARK INTRA:                  -1.114
REMARK UNBOUND:                -1.074
REMARK  Name = 
REMARK  8 active torsions:
REMARK  status: ('A' for Active; 'I' for Inactive)
REMARK    1  A    between atoms: C_1  and  C_2
REMARK    2  A    between atoms: C_2  and  C_3
REMARK    3  A    between atoms: C_2  and  C_18
REMARK    4  A    between atoms: C_3  and  N_4
REMARK    5  A    between atoms: C_9  and  O_10
REMARK    6  A    between atoms: O_10  and  C_11
REMARK    7  A    between atoms: C_21  and  S_22
REMARK    8  A    between atoms: S_22  and  N_23
REMARK                            x       y       z     vdW  Elec       q    Type
REMARK                         _______ _______ _______ _____ _____    ______ ____
ROOT
ATOM      1  C   UNL     1      48.497   8.373  13.255  0.00  0.00    +0.000 C 
ENDROOT
BRANCH   1   2
ATOM      2  N   UNL     1      47.477   9.400  13.380  0.00  0.00    +0.000 N 
ATOM      3  C   UNL     1      46.370   9.238  12.563  0.00  0.00    +0.000 A 
ATOM      4  N   UNL     1      45.792  10.365  12.128  0.00  0.00    +0.000 NA
ATOM      5  C   UNL     1      44.677  10.234  11.385  0.00  0.00    +0.000 A 
ATOM      6  C   UNL     1      44.124   9.024  11.066  0.00  0.00    +0.000 A 
ATOM      7  C   UNL     1      44.811   7.936  11.538  0.00  0.00    +0.000 A 
ATOM      8  N   UNL     1      45.930   8.009  12.275  0.00  0.00    +0.000 NA
ATOM      9  H   UNL     1      47.812  10.352  13.234  0.00  0.00    +0.000 HD
BRANCH   7  10
ATOM     10  O   UNL     1      44.283   6.689  11.270  0.00  0.00    +0.000 OA
BRANCH  10  11
ATOM     11  C   UNL     1      44.996   5.565  11.835  0.00  0.00    +0.000 C 
ATOM     12  C   UNL     1      44.826   4.253  11.035  0.00  0.00    +0.000 C 
ATOM     13  C   UNL     1      44.800   3.499  12.375  0.00  0.00    +0.000 C 
ATOM     14  F   UNL     1      43.911   2.485  12.463  0.00  0.00    +0.000 F 
ATOM     15  F   UNL     1      45.994   3.005  12.778  0.00  0.00    +0.000 F 
ATOM     16  C   UNL     1      44.377   4.821  13.042  0.00  0.00    +0.000 C 
ENDBRANCH  10  11
ENDBRANCH   7  10
ENDBRANCH   1   2
BRANCH   1  18
ATOM     17  C   UNL     1      50.791   8.117  14.328  0.00  0.00    +0.000 C 
ATOM     18  C   UNL     1      49.279   8.174  14.570  0.00  0.00    +0.000 C 
BRANCH  18  19
ATOM     19  C   UNL     1      48.841   6.962  15.370  0.00  0.00    +0.000 A 
ATOM     20  C   UNL     1      49.211   6.832  16.708  0.00  0.00    +0.000 A 
ATOM     21  C   UNL     1      48.914   5.653  17.377  0.00  0.00    +0.000 A 
ATOM     22  C   UNL     1      48.258   4.675  16.658  0.00  0.00    +0.000 A 
ATOM     23  N   UNL     1      47.880   4.807  15.368  0.00  0.00    +0.000 NA
ATOM     24  N   UNL     1      48.182   5.965  14.723  0.00  0.00    +0.000 NA
BRANCH  22  25
ATOM     25  S   UNL     1      47.906   3.093  17.368  0.00  0.00    +0.000 S 
ATOM     26  O   UNL     1      46.468   2.946  17.405  0.00  0.00    +0.000 OA
ATOM     27  O   UNL     1      48.773   2.130  16.728  0.00  0.00    +0.000 OA
BRANCH  25  28
ATOM     28  N   UNL     1      48.421   3.222  18.972  0.00  0.00    +0.000 NA
ATOM     29  H   UNL     1      47.669   3.002  19.624  0.00  0.00    +0.000 HD
ATOM     30  H   UNL     1      48.866   4.123  19.150  0.00  0.00    +0.000 HD
ENDBRANCH  25  28
ENDBRANCH  22  25
ENDBRANCH  18  19
ENDBRANCH   1  18
TORSDOF 7
ENDMDL
MODEL 6
REMARK VINA RESULT:    -6.945      3.938      7.282
REMARK INTER + INTRA:         -10.658
REMARK INTER:                  -9.467
REMARK INTRA:                  -1.191
REMARK UNBOUND:                -1.074
REMARK  Name = 
REMARK  8 active torsions:
REMARK  status: ('A' for Active; 'I' for Inactive)
REMARK    1  A    between atoms: C_1  and  C_2
REMARK    2  A    between atoms: C_2  and  C_3
REMARK    3  A    between atoms: C_2  and  C_18
REMARK    4  A    between atoms: C_3  and  N_4
REMARK    5  A    between atoms: C_9  and  O_10
REMARK    6  A    between atoms: O_10  and  C_11
REMARK    7  A    between atoms: C_21  and  S_22
REMARK    8  A    between atoms: S_22  and  N_23
REMARK                            x       y       z     vdW  Elec       q    Type
REMARK                         _______ _______ _______ _____ _____    ______ ____
ROOT
ATOM      1  C   UNL     1      49.526   7.394  13.567  0.00  0.00    +0.000 C 
ENDROOT
BRANCH   1   2
ATOM      2  N   UNL     1      49.564   8.588  14.394  0.00  0.00    +0.000 N 
ATOM      3  C   UNL     1      49.023   8.447  15.662  0.00  0.00    +0.000 A 
ATOM      4  N   UNL     1      48.424   9.533  16.168  0.00  0.00    +0.000 NA
ATOM      5  C   UNL     1      47.948   9.440  17.424  0.00  0.00    +0.000 A 
ATOM      6  C   UNL     1      48.050   8.307  18.185  0.00  0.00    +0.000 A 
ATOM      7  C   UNL     1      48.653   7.247  17.559  0.00  0.00    +0.000 A 
ATOM      8  N   UNL     1      49.138   7.284  16.309  0.00  0.00    +0.000 NA
ATOM      9  H   UNL     1      49.123   9.408  13.977  0.00  0.00    +0.000 HD
BRANCH   7  10
ATOM     10  O   UNL     1      48.809   6.086  18.289  0.00  0.00    +0.000 OA
BRANCH  10  11
ATOM     11  C   UNL     1      48.771   4.854  17.535  0.00  0.00    +0.000 C 
ATOM     12  C   UNL     1      47.358   4.466  17.045  0.00  0.00    +0.000 C 
ATOM     13  C   UNL     1      47.719   2.997  17.324  0.00  0.00    +0.000 C 
ATOM     14  F   UNL     1      46.738   2.244  17.869  0.00  0.00    +0.000 F 
ATOM     15  F   UNL     1      48.189   2.310  16.257  0.00  0.00    +0.000 F 
ATOM     16  C   UNL     1      48.792   3.510  18.301  0.00  0.00    +0.000 C 
ENDBRANCH  10  11
ENDBRANCH   7  10
ENDBRANCH   1   2
BRANCH   1  18
ATOM     17  C   UNL     1      48.233   9.057  12.137  0.00  0.00    +0.000 C 
ATOM     18  C   UNL     1      48.661   7.595  12.305  0.00  0.00    +0.000 C 
BRANCH  18  19
ATOM     19  C   UNL     1      47.442   6.692  12.244  0.00  0.00    +0.000 A 
ATOM     20  C   UNL     1      46.687   6.611  11.076  0.00  0.00    +0.000 A 
ATOM     21  C   UNL     1      45.503   5.886  11.089  0.00  0.00    +0.000 A 
ATOM     22  C   UNL     1      45.153   5.284  12.279  0.00  0.00    +0.000 A 
ATOM     23  N   UNL     1      45.894   5.344  13.407  0.00  0.00    +0.000 NA
ATOM     24  N   UNL     1      47.048   6.063  13.382  0.00  0.00    +0.000 NA
BRANCH  22  25
ATOM     25  S   UNL     1      43.624   4.411  12.453  0.00  0.00    +0.000 S 
ATOM     26  O   UNL     1      43.037   4.301  11.137  0.00  0.00    +0.000 OA
ATOM     27  O   UNL     1      43.876   3.261  13.293  0.00  0.00    +0.000 OA
BRANCH  25  28
ATOM     28  N   UNL     1      42.635   5.455  13.339  0.00  0.00    +0.000 NA
ATOM     29  H   UNL     1      42.607   5.196  14.325  0.00  0.00    +0.000 HD
ATOM     30  H   UNL     1      41.712   5.546  12.914  0.00  0.00    +0.000 HD
ENDBRANCH  25  28
ENDBRANCH  22  25
ENDBRANCH  18  19
ENDBRANCH   1  18
TORSDOF 7
ENDMDL
MODEL 7
REMARK VINA RESULT:    -6.304      4.105      5.407
REMARK INTER + INTRA:          -9.773
REMARK INTER:                  -8.910
REMARK INTRA:                  -0.863
REMARK UNBOUND:                -1.074
REMARK  Name = 
REMARK  8 active torsions:
REMARK  status: ('A' for Active; 'I' for Inactive)
REMARK    1  A    between atoms: C_1  and  C_2
REMARK    2  A    between atoms: C_2  and  C_3
REMARK    3  A    between atoms: C_2  and  C_18
REMARK    4  A    between atoms: C_3  and  N_4
REMARK    5  A    between atoms: C_9  and  O_10
REMARK    6  A    between atoms: O_10  and  C_11
REMARK    7  A    between atoms: C_21  and  S_22
REMARK    8  A    between atoms: S_22  and  N_23
REMARK                            x       y       z     vdW  Elec       q    Type
REMARK                         _______ _______ _______ _____ _____    ______ ____
ROOT
ATOM      1  C   UNL     1      47.462   4.559  15.576  0.00  0.00    +0.000 C 
ENDROOT
BRANCH   1   2
ATOM      2  N   UNL     1      47.153   3.568  14.559  0.00  0.00    +0.000 N 
ATOM      3  C   UNL     1      46.422   4.036  13.479  0.00  0.00    +0.000 A 
ATOM      4  N   UNL     1      45.571   3.163  12.924  0.00  0.00    +0.000 NA
ATOM      5  C   UNL     1      44.897   3.574  11.833  0.00  0.00    +0.000 A 
ATOM      6  C   UNL     1      45.044   4.819  11.284  0.00  0.00    +0.000 A 
ATOM      7  C   UNL     1      45.917   5.641  11.947  0.00  0.00    +0.000 A 
ATOM      8  N   UNL     1      46.608   5.285  13.041  0.00  0.00    +0.000 NA
ATOM      9  H   UNL     1      46.666   2.741  14.905  0.00  0.00    +0.000 HD
BRANCH   7  10
ATOM     10  O   UNL     1      46.126   6.900  11.421  0.00  0.00    +0.000 OA
BRANCH  10  11
ATOM     11  C   UNL     1      45.296   7.955  11.954  0.00  0.00    +0.000 C 
ATOM     12  C   UNL     1      44.496   8.724  10.878  0.00  0.00    +0.000 C 
ATOM     13  C   UNL     1      44.740  10.009  11.686  0.00  0.00    +0.000 C 
ATOM     14  F   UNL     1      45.014  11.117  10.962  0.00  0.00    +0.000 F 
ATOM     15  F   UNL     1      43.750  10.343  12.546  0.00  0.00    +0.000 F 
ATOM     16  C   UNL     1      45.954   9.307  12.322  0.00  0.00    +0.000 C 
ENDBRANCH  10  11
ENDBRANCH   7  10
ENDBRANCH   1   2
BRANCH   1  18
ATOM     17  C   UNL     1      47.118   4.886  18.076  0.00  0.00    +0.000 C 
ATOM     18  C   UNL     1      47.586   3.926  16.977  0.00  0.00    +0.000 C 
BRANCH  18  19
ATOM     19  C   UNL     1      48.977   3.413  17.301  0.00  0.00    +0.000 A 
ATOM     20  C   UNL     1      49.816   4.142  18.142  0.00  0.00    +0.000 A 
ATOM     21  C   UNL     1      51.127   3.722  18.312  0.00  0.00    +0.000 A 
ATOM     22  C   UNL     1      51.514   2.589  17.628  0.00  0.00    +0.000 A 
ATOM     23  N   UNL     1      50.697   1.869  16.829  0.00  0.00    +0.000 NA
ATOM     24  N   UNL     1      49.416   2.295  16.666  0.00  0.00    +0.000 NA
BRANCH  22  25
ATOM     25  S   UNL     1      53.183   2.004  17.688  0.00  0.00    +0.000 S 
ATOM     26  O   UNL     1      53.194   0.670  17.130  0.00  0.00    +0.000 OA
ATOM     27  O   UNL     1      54.031   3.065  17.192  0.00  0.00    +0.000 OA
BRANCH  25  28
ATOM     28  N   UNL     1      53.519   1.842  19.336  0.00  0.00    +0.000 NA
ATOM     29  H   UNL     1      52.766   1.359  19.824  0.00  0.00    +0.000 HD
ATOM     30  H   UNL     1      53.769   2.739  19.755  0.00  0.00    +0.000 HD
ENDBRANCH  25  28
ENDBRANCH  22  25
ENDBRANCH  18  19
ENDBRANCH   1  18
TORSDOF 7
ENDMDL
MODEL 8
REMARK VINA RESULT:    -6.084      4.446      7.790
REMARK INTER + INTRA:          -9.470
REMARK INTER:                  -8.617
REMARK INTRA:                  -0.854
REMARK UNBOUND:                -1.074
REMARK  Name = 
REMARK  8 active torsions:
REMARK  status: ('A' for Active; 'I' for Inactive)
REMARK    1  A    between atoms: C_1  and  C_2
REMARK    2  A    between atoms: C_2  and  C_3
REMARK    3  A    between atoms: C_2  and  C_18
REMARK    4  A    between atoms: C_3  and  N_4
REMARK    5  A    between atoms: C_9  and  O_10
REMARK    6  A    between atoms: O_10  and  C_11
REMARK    7  A    between atoms: C_21  and  S_22
REMARK    8  A    between atoms: S_22  and  N_23
REMARK                            x       y       z     vdW  Elec       q    Type
REMARK                         _______ _______ _______ _____ _____    ______ ____
ROOT
ATOM      1  C   UNL     1      49.326   7.224  13.027  0.00  0.00    +0.000 C 
ENDROOT
BRANCH   1   2
ATOM      2  N   UNL     1      49.532   8.010  14.231  0.00  0.00    +0.000 N 
ATOM      3  C   UNL     1      49.209   7.372  15.418  0.00  0.00    +0.000 A 
ATOM      4  N   UNL     1      48.732   8.155  16.394  0.00  0.00    +0.000 NA
ATOM      5  C   UNL     1      48.471   7.568  17.577  0.00  0.00    +0.000 A 
ATOM      6  C   UNL     1      48.671   6.235  17.815  0.00  0.00    +0.000 A 
ATOM      7  C   UNL     1      49.134   5.523  16.740  0.00  0.00    +0.000 A 
ATOM      8  N   UNL     1      49.403   6.055  15.539  0.00  0.00    +0.000 NA
ATOM      9  H   UNL     1      49.049   8.909  14.241  0.00  0.00    +0.000 HD
BRANCH   7  10
ATOM     10  O   UNL     1      49.381   4.178  16.931  0.00  0.00    +0.000 OA
BRANCH  10  11
ATOM     11  C   UNL     1      50.406   3.853  17.897  0.00  0.00    +0.000 C 
ATOM     12  C   UNL     1      51.761   4.546  17.626  0.00  0.00    +0.000 C 
ATOM     13  C   UNL     1      52.456   3.258  18.096  0.00  0.00    +0.000 C 
ATOM     14  F   UNL     1      53.546   2.886  17.389  0.00  0.00    +0.000 F 
ATOM     15  F   UNL     1      52.816   3.243  19.401  0.00  0.00    +0.000 F 
ATOM     16  C   UNL     1      51.154   2.506  17.765  0.00  0.00    +0.000 C 
ENDBRANCH  10  11
ENDBRANCH   7  10
ENDBRANCH   1   2
BRANCH   1  18
ATOM     17  C   UNL     1      47.589   9.062  12.734  0.00  0.00    +0.000 C 
ATOM     18  C   UNL     1      48.100   7.709  12.225  0.00  0.00    +0.000 C 
BRANCH  18  19
ATOM     19  C   UNL     1      46.958   6.711  12.181  0.00  0.00    +0.000 A 
ATOM     20  C   UNL     1      46.677   5.916  13.291  0.00  0.00    +0.000 A 
ATOM     21  C   UNL     1      45.719   4.919  13.179  0.00  0.00    +0.000 A 
ATOM     22  C   UNL     1      45.098   4.785  11.955  0.00  0.00    +0.000 A 
ATOM     23  N   UNL     1      45.353   5.567  10.884  0.00  0.00    +0.000 NA
ATOM     24  N   UNL     1      46.299   6.537  11.006  0.00  0.00    +0.000 NA
BRANCH  22  25
ATOM     25  S   UNL     1      43.926   3.493  11.656  0.00  0.00    +0.000 S 
ATOM     26  O   UNL     1      44.287   2.863  10.406  0.00  0.00    +0.000 OA
ATOM     27  O   UNL     1      43.775   2.752  12.889  0.00  0.00    +0.000 OA
BRANCH  25  28
ATOM     28  N   UNL     1      42.464   4.297  11.390  0.00  0.00    +0.000 NA
ATOM     29  H   UNL     1      41.666   3.696  11.589  0.00  0.00    +0.000 HD
ATOM     30  H   UNL     1      42.435   4.721  10.462  0.00  0.00    +0.000 HD
ENDBRANCH  25  28
ENDBRANCH  22  25
ENDBRANCH  18  19
ENDBRANCH   1  18
TORSDOF 7
ENDMDL
MODEL 9
REMARK VINA RESULT:    -5.680      3.895      5.504
REMARK INTER + INTRA:          -8.913
REMARK INTER:                  -7.991
REMARK INTRA:                  -0.922
REMARK UNBOUND:                -1.074
REMARK  Name = 
REMARK  8 active torsions:
REMARK  status: ('A' for Active; 'I' for Inactive)
REMARK    1  A    between atoms: C_1  and  C_2
REMARK    2  A    between atoms: C_2  and  C_3
REMARK    3  A    between atoms: C_2  and  C_18
REMARK    4  A    between atoms: C_3  and  N_4
REMARK    5  A    between atoms: C_9  and  O_10
REMARK    6  A    between atoms: O_10  and  C_11
REMARK    7  A    between atoms: C_21  and  S_22
REMARK    8  A    between atoms: S_22  and  N_23
REMARK                            x       y       z     vdW  Elec       q    Type
REMARK                         _______ _______ _______ _____ _____    ______ ____
ROOT
ATOM      1  C   UNL     1      47.167   4.315  15.615  0.00  0.00    +0.000 C 
ENDROOT
BRANCH   1   2
ATOM      2  N   UNL     1      46.990   3.448  14.463  0.00  0.00    +0.000 N 
ATOM      3  C   UNL     1      46.341   4.023  13.383  0.00  0.00    +0.000 A 
ATOM      4  N   UNL     1      45.580   3.200  12.650  0.00  0.00    +0.000 NA
ATOM      5  C   UNL     1      44.991   3.721  11.558  0.00  0.00    +0.000 A 
ATOM      6  C   UNL     1      45.136   5.028  11.176  0.00  0.00    +0.000 A 
ATOM      7  C   UNL     1      45.911   5.787  12.013  0.00  0.00    +0.000 A 
ATOM      8  N   UNL     1      46.515   5.321  13.116  0.00  0.00    +0.000 NA
ATOM      9  H   UNL     1      46.509   2.571  14.661  0.00  0.00    +0.000 HD
BRANCH   7  10
ATOM     10  O   UNL     1      46.116   7.107  11.662  0.00  0.00    +0.000 OA
BRANCH  10  11
ATOM     11  C   UNL     1      47.264   7.750  12.259  0.00  0.00    +0.000 C 
ATOM     12  C   UNL     1      47.270   9.288  12.101  0.00  0.00    +0.000 C 
ATOM     13  C   UNL     1      48.794   9.212  11.909  0.00  0.00    +0.000 C 
ATOM     14  F   UNL     1      49.310  10.030  10.966  0.00  0.00    +0.000 F 
ATOM     15  F   UNL     1      49.524   9.405  13.032  0.00  0.00    +0.000 F 
ATOM     16  C   UNL     1      48.607   7.741  11.491  0.00  0.00    +0.000 C 
ENDBRANCH  10  11
ENDBRANCH   7  10
ENDBRANCH   1   2
BRANCH   1  18
ATOM     17  C   UNL     1      47.448   2.872  17.693  0.00  0.00    +0.000 C 
ATOM     18  C   UNL     1      48.161   3.722  16.636  0.00  0.00    +0.000 C 
BRANCH  18  19
ATOM     19  C   UNL     1      49.038   4.758  17.315  0.00  0.00    +0.000 A 
ATOM     20  C   UNL     1      48.482   5.671  18.209  0.00  0.00    +0.000 A 
ATOM     21  C   UNL     1      49.278   6.691  18.710  0.00  0.00    +0.000 A 
ATOM     22  C   UNL     1      50.589   6.728  18.283  0.00  0.00    +0.000 A 
ATOM     23  N   UNL     1      51.136   5.831  17.433  0.00  0.00    +0.000 NA
ATOM     24  N   UNL     1      50.342   4.841  16.945  0.00  0.00    +0.000 NA
BRANCH  22  25
ATOM     25  S   UNL     1      51.681   8.031  18.776  0.00  0.00    +0.000 S 
ATOM     26  O   UNL     1      51.190   9.253  18.182  0.00  0.00    +0.000 OA
ATOM     27  O   UNL     1      51.909   7.889  20.197  0.00  0.00    +0.000 OA
BRANCH  25  28
ATOM     28  N   UNL     1      53.143   7.673  18.010  0.00  0.00    +0.000 NA
ATOM     29  H   UNL     1      53.040   6.903  17.350  0.00  0.00    +0.000 HD
ATOM     30  H   UNL     1      53.895   7.534  18.687  0.00  0.00    +0.000 HD
ENDBRANCH  25  28
ENDBRANCH  22  25
ENDBRANCH  18  19
ENDBRANCH   1  18
TORSDOF 7
ENDMDL
