MODEL 1
REMARK VINA RESULT:    -8.027      0.000      0.000
REMARK INTER + INTRA:         -11.156
REMARK INTER:                 -10.373
REMARK INTRA:                  -0.783
REMARK UNBOUND:                -0.783
REMARK  Name = 
REMARK  6 active torsions:
REMARK  status: ('A' for Active; 'I' for Inactive)
REMARK    1  A    between atoms: C_1  and  C_2
REMARK    2  A    between atoms: C_2  and  C_3
REMARK    3  A    between atoms: C_2  and  C_17
REMARK    4  A    between atoms: C_3  and  O_4
REMARK    5  A    between atoms: O_4  and  C_5
REMARK    6  A    between atoms: C_9  and  C_10
REMARK                            x       y       z     vdW  Elec       q    Type
REMARK                         _______ _______ _______ _____ _____    ______ ____
ROOT
ATOM      1  C   UNL     1      45.799   4.944  13.203  0.00  0.00    +0.000 A 
ATOM      2  C   UNL     1      46.378   5.981  12.481  0.00  0.00    +0.000 A 
ATOM      3  C   UNL     1      47.510   6.603  12.987  0.00  0.00    +0.000 A 
ATOM      4  C   UNL     1      48.029   6.179  14.201  0.00  0.00    +0.000 A 
ATOM      5  C   UNL     1      47.397   5.144  14.892  0.00  0.00    +0.000 A 
ATOM      6  N   UNL     1      46.299   4.521  14.389  0.00  0.00    +0.000 NA
ENDROOT
BRANCH   5   7
ATOM      7  C   UNL     1      47.897   4.665  16.199  0.00  0.00    +0.000 A 
ATOM      8  C   UNL     1      47.494   3.433  16.738  0.00  0.00    +0.000 A 
ATOM      9  C   UNL     1      47.952   3.047  17.988  0.00  0.00    +0.000 A 
ATOM     10  N   UNL     1      48.785   3.789  18.739  0.00  0.00    +0.000 NA
ATOM     11  C   UNL     1      49.188   4.961  18.209  0.00  0.00    +0.000 A 
ATOM     12  C   UNL     1      48.784   5.431  16.967  0.00  0.00    +0.000 A 
ENDBRANCH   5   7
BRANCH   1  13
ATOM     13  O   UNL     1      44.689   4.246  12.801  0.00  0.00    +0.000 OA
BRANCH  13  14
ATOM     14  C   UNL     1      44.912   3.203  11.848  0.00  0.00    +0.000 C 
BRANCH  14  16
ATOM     15  C   UNL     1      43.392   4.808  10.602  0.00  0.00    +0.000 C 
ATOM     16  C   UNL     1      44.088   3.442  10.568  0.00  0.00    +0.000 C 
BRANCH  16  17
ATOM     17  C   UNL     1      44.984   3.231   9.352  0.00  0.00    +0.000 A 
ATOM     18  C   UNL     1      45.480   4.298   8.585  0.00  0.00    +0.000 A 
ATOM     19  C   UNL     1      46.354   4.070   7.517  0.00  0.00    +0.000 A 
ATOM     20  C   UNL     1      46.755   2.774   7.204  0.00  0.00    +0.000 A 
ATOM     21  C   UNL     1      46.275   1.706   7.958  0.00  0.00    +0.000 A 
ATOM     22 CL   UNL     1      46.784   0.104   7.587  0.00  0.00    +0.000 Cl
ATOM     23  C   UNL     1      45.398   1.928   9.021  0.00  0.00    +0.000 A 
ENDBRANCH  16  17
ENDBRANCH  14  16
ENDBRANCH  13  14
ENDBRANCH   1  13
TORSDOF 5
ENDMDL
MODEL 2
REMARK VINA RESULT:    -7.638      3.572      7.854
REMARK INTER + INTRA:         -10.653
REMARK INTER:                  -9.769
REMARK INTRA:                  -0.885
REMARK UNBOUND:                -0.783
REMARK  Name = 
REMARK  6 active torsions:
REMARK  status: ('A' for Active; 'I' for Inactive)
REMARK    1  A    between atoms: C_1  and  C_2
REMARK    2  A    between atoms: C_2  and  C_3
REMARK    3  A    between atoms: C_2  and  C_17
REMARK    4  A    between atoms: C_3  and  O_4
REMARK    5  A    between atoms: O_4  and  C_5
REMARK    6  A    between atoms: C_9  and  C_10
REMARK                            x       y       z     vdW  Elec       q    Type
REMARK                         _______ _______ _______ _____ _____    ______ ____
ROOT
ATOM      1  C   UNL     1      44.648   5.235  10.795  0.00  0.00    +0.000 A 
ATOM      2  C   UNL     1      43.722   4.543  11.565  0.00  0.00    +0.000 A 
ATOM      3  C   UNL     1      43.477   3.207  11.283  0.00  0.00    +0.000 A 
ATOM      4  C   UNL     1      44.157   2.601  10.237  0.00  0.00    +0.000 A 
ATOM      5  C   UNL     1      45.064   3.349   9.486  0.00  0.00    +0.000 A 
ATOM      6  N   UNL     1      45.319   4.653   9.773  0.00  0.00    +0.000 NA
ENDROOT
BRANCH   5   7
ATOM      7  C   UNL     1      45.802   2.759   8.348  0.00  0.00    +0.000 A 
ATOM      8  C   UNL     1      46.209   1.415   8.349  0.00  0.00    +0.000 A 
ATOM      9  C   UNL     1      46.939   0.918   7.279  0.00  0.00    +0.000 A 
ATOM     10  N   UNL     1      47.288   1.653   6.209  0.00  0.00    +0.000 NA
ATOM     11  C   UNL     1      46.876   2.936   6.201  0.00  0.00    +0.000 A 
ATOM     12  C   UNL     1      46.142   3.522   7.223  0.00  0.00    +0.000 A 
ENDBRANCH   5   7
BRANCH   1  13
ATOM     13  O   UNL     1      44.984   6.552  10.985  0.00  0.00    +0.000 OA
BRANCH  13  14
ATOM     14  C   UNL     1      45.590   6.872  12.240  0.00  0.00    +0.000 C 
BRANCH  14  16
ATOM     15  C   UNL     1      48.016   7.444  11.762  0.00  0.00    +0.000 C 
ATOM     16  C   UNL     1      47.048   6.377  12.289  0.00  0.00    +0.000 C 
BRANCH  16  17
ATOM     17  C   UNL     1      47.364   5.894  13.701  0.00  0.00    +0.000 A 
ATOM     18  C   UNL     1      46.828   4.708  14.231  0.00  0.00    +0.000 A 
ATOM     19  C   UNL     1      47.193   4.262  15.505  0.00  0.00    +0.000 A 
ATOM     20  C   UNL     1      48.107   4.985  16.267  0.00  0.00    +0.000 A 
ATOM     21  C   UNL     1      48.650   6.160  15.753  0.00  0.00    +0.000 A 
ATOM     22 CL   UNL     1      49.795   7.047  16.682  0.00  0.00    +0.000 Cl
ATOM     23  C   UNL     1      48.284   6.614  14.484  0.00  0.00    +0.000 A 
ENDBRANCH  16  17
ENDBRANCH  14  16
ENDBRANCH  13  14
ENDBRANCH   1  13
TORSDOF 5
ENDMDL
MODEL 3
REMARK VINA RESULT:    -7.256      3.495      7.314
REMARK INTER + INTRA:         -10.159
REMARK INTER:                  -9.096
REMARK INTRA:                  -1.063
REMARK UNBOUND:                -0.783
REMARK  Name = 
REMARK  6 active torsions:
REMARK  status: ('A' for Active; 'I' for Inactive)
REMARK    1  A    between atoms: C_1  and  C_2
REMARK    2  A    between atoms: C_2  and  C_3
REMARK    3  A    between atoms: C_2  and  C_17
REMARK    4  A    between atoms: C_3  and  O_4
REMARK    5  A    between atoms: O_4  and  C_5
REMARK    6  A    between atoms: C_9  and  C_10
REMARK                            x       y       z     vdW  Elec       q    Type
REMARK                         _______ _______ _______ _____ _____    ______ ____
ROOT
ATOM      1  C   UNL     1      43.447   4.847  10.699  0.00  0.00    +0.000 A 
ATOM      2  C   UNL     1      42.997   3.960  11.669  0.00  0.00    +0.000 A 
ATOM      3  C   UNL     1      43.410   2.637  11.613  0.00  0.00    +0.000 A 
ATOM      4  C   UNL     1      44.253   2.234  10.589  0.00  0.00    +0.000 A 
ATOM      5  C   UNL     1      44.661   3.164   9.632  0.00  0.00    +0.000 A 
ATOM      6  N   UNL     1      44.273   4.465   9.695  0.00  0.00    +0.000 NA
ENDROOT
BRANCH   5   7
ATOM      7  C   UNL     1      45.544   2.784   8.508  0.00  0.00    +0.000 A 
ATOM      8  C   UNL     1      45.939   3.713   7.532  0.00  0.00    +0.000 A 
ATOM      9  C   UNL     1      46.730   3.301   6.470  0.00  0.00    +0.000 A 
ATOM     10  N   UNL     1      47.163   2.038   6.310  0.00  0.00    +0.000 NA
ATOM     11  C   UNL     1      46.801   1.153   7.261  0.00  0.00    +0.000 A 
ATOM     12  C   UNL     1      46.013   1.473   8.358  0.00  0.00    +0.000 A 
ENDBRANCH   5   7
BRANCH   1  13
ATOM     13  O   UNL     1      43.119   6.179  10.655  0.00  0.00    +0.000 OA
BRANCH  13  14
ATOM     14  C   UNL     1      43.571   6.975  11.754  0.00  0.00    +0.000 C 
BRANCH  14  16
ATOM     15  C   UNL     1      44.696   9.224  11.411  0.00  0.00    +0.000 C 
ATOM     16  C   UNL     1      44.884   7.702  11.403  0.00  0.00    +0.000 C 
BRANCH  16  17
ATOM     17  C   UNL     1      45.991   7.206  12.328  0.00  0.00    +0.000 A 
ATOM     18  C   UNL     1      46.911   8.076  12.938  0.00  0.00    +0.000 A 
ATOM     19  C   UNL     1      47.870   7.593  13.833  0.00  0.00    +0.000 A 
ATOM     20  C   UNL     1      47.921   6.236  14.142  0.00  0.00    +0.000 A 
ATOM     21  C   UNL     1      47.014   5.363  13.549  0.00  0.00    +0.000 A 
ATOM     22 CL   UNL     1      47.060   3.688  13.943  0.00  0.00    +0.000 Cl
ATOM     23  C   UNL     1      46.057   5.839  12.649  0.00  0.00    +0.000 A 
ENDBRANCH  16  17
ENDBRANCH  14  16
ENDBRANCH  13  14
ENDBRANCH   1  13
TORSDOF 5
ENDMDL
MODEL 4
REMARK VINA RESULT:    -7.175      2.168      4.141
REMARK INTER + INTRA:         -10.056
REMARK INTER:                  -9.317
REMARK INTRA:                  -0.739
REMARK UNBOUND:                -0.783
REMARK  Name = 
REMARK  6 active torsions:
REMARK  status: ('A' for Active; 'I' for Inactive)
REMARK    1  A    between atoms: C_1  and  C_2
REMARK    2  A    between atoms: C_2  and  C_3
REMARK    3  A    between atoms: C_2  and  C_17
REMARK    4  A    between atoms: C_3  and  O_4
REMARK    5  A    between atoms: O_4  and  C_5
REMARK    6  A    between atoms: C_9  and  C_10
REMARK                            x       y       z     vdW  Elec       q    Type
REMARK                         _______ _______ _______ _____ _____    ______ ____
ROOT
ATOM      1  C   UNL     1      45.892   5.162  13.258  0.00  0.00    +0.000 A 
ATOM      2  C   UNL     1      46.518   4.592  14.360  0.00  0.00    +0.000 A 
ATOM      3  C   UNL     1      47.616   5.234  14.916  0.00  0.00    +0.000 A 
ATOM      4  C   UNL     1      48.061   6.421  14.354  0.00  0.00    +0.000 A 
ATOM      5  C   UNL     1      47.404   6.939  13.238  0.00  0.00    +0.000 A 
ATOM      6  N   UNL     1      46.318   6.322  12.703  0.00  0.00    +0.000 NA
ENDROOT
BRANCH   5   7
ATOM      7  C   UNL     1      47.849   8.191  12.587  0.00  0.00    +0.000 A 
ATOM      8  C   UNL     1      49.037   8.254  11.841  0.00  0.00    +0.000 A 
ATOM      9  C   UNL     1      49.437   9.461  11.288  0.00  0.00    +0.000 A 
ATOM     10  N   UNL     1      48.743  10.606  11.414  0.00  0.00    +0.000 NA
ATOM     11  C   UNL     1      47.591  10.537  12.111  0.00  0.00    +0.000 A 
ATOM     12  C   UNL     1      47.109   9.375  12.700  0.00  0.00    +0.000 A 
ENDBRANCH   5   7
BRANCH   1  13
ATOM     13  O   UNL     1      44.795   4.630  12.630  0.00  0.00    +0.000 OA
BRANCH  13  14
ATOM     14  C   UNL     1      45.027   3.459  11.842  0.00  0.00    +0.000 C 
BRANCH  14  16
ATOM     15  C   UNL     1      43.314   4.749  10.484  0.00  0.00    +0.000 C 
ATOM     16  C   UNL     1      44.153   3.467  10.573  0.00  0.00    +0.000 C 
BRANCH  16  17
ATOM     17  C   UNL     1      45.037   3.217   9.356  0.00  0.00    +0.000 A 
ATOM     18  C   UNL     1      45.557   4.261   8.572  0.00  0.00    +0.000 A 
ATOM     19  C   UNL     1      46.419   3.996   7.504  0.00  0.00    +0.000 A 
ATOM     20  C   UNL     1      46.785   2.686   7.206  0.00  0.00    +0.000 A 
ATOM     21  C   UNL     1      46.280   1.641   7.975  0.00  0.00    +0.000 A 
ATOM     22 CL   UNL     1      46.745   0.022   7.623  0.00  0.00    +0.000 Cl
ATOM     23  C   UNL     1      45.414   1.900   9.040  0.00  0.00    +0.000 A 
ENDBRANCH  16  17
ENDBRANCH  14  16
ENDBRANCH  13  14
ENDBRANCH   1  13
TORSDOF 5
ENDMDL
MODEL 5
REMARK VINA RESULT:    -7.056      3.881      7.516
REMARK INTER + INTRA:          -9.901
REMARK INTER:                  -9.246
REMARK INTRA:                  -0.655
REMARK UNBOUND:                -0.783
REMARK  Name = 
REMARK  6 active torsions:
REMARK  status: ('A' for Active; 'I' for Inactive)
REMARK    1  A    between atoms: C_1  and  C_2
REMARK    2  A    between atoms: C_2  and  C_3
REMARK    3  A    between atoms: C_2  and  C_17
REMARK    4  A    between atoms: C_3  and  O_4
REMARK    5  A    between atoms: O_4  and  C_5
REMARK    6  A    between atoms: C_9  and  C_10
REMARK                            x       y       z     vdW  Elec       q    Type
REMARK                         _______ _______ _______ _____ _____    ______ ____
ROOT
ATOM      1  C   UNL     1      43.982   5.054  11.246  0.00  0.00    +0.000 A 
ATOM      2  C   UNL     1      43.240   4.160  12.008  0.00  0.00    +0.000 A 
ATOM      3  C   UNL     1      43.260   2.813  11.675  0.00  0.00    +0.000 A 
ATOM      4  C   UNL     1      44.014   2.397  10.588  0.00  0.00    +0.000 A 
ATOM      5  C   UNL     1      44.728   3.340   9.848  0.00  0.00    +0.000 A 
ATOM      6  N   UNL     1      44.724   4.657  10.185  0.00  0.00    +0.000 NA
ENDROOT
BRANCH   5   7
ATOM      7  C   UNL     1      45.533   2.955   8.669  0.00  0.00    +0.000 A 
ATOM      8  C   UNL     1      45.974   1.636   8.475  0.00  0.00    +0.000 A 
ATOM      9  C   UNL     1      46.766   1.331   7.378  0.00  0.00    +0.000 A 
ATOM     10  N   UNL     1      47.144   2.235   6.457  0.00  0.00    +0.000 NA
ATOM     11  C   UNL     1      46.699   3.495   6.633  0.00  0.00    +0.000 A 
ATOM     12  C   UNL     1      45.903   3.895   7.699  0.00  0.00    +0.000 A 
ENDBRANCH   5   7
BRANCH   1  13
ATOM     13  O   UNL     1      44.051   6.403  11.484  0.00  0.00    +0.000 OA
BRANCH  13  14
ATOM     14  C   UNL     1      45.300   7.032  11.182  0.00  0.00    +0.000 C 
BRANCH  14  16
ATOM     15  C   UNL     1      46.483   6.032  13.191  0.00  0.00    +0.000 C 
ATOM     16  C   UNL     1      46.093   7.327  12.469  0.00  0.00    +0.000 C 
BRANCH  16  17
ATOM     17  C   UNL     1      47.275   8.231  12.131  0.00  0.00    +0.000 A 
ATOM     18  C   UNL     1      47.221   9.628  12.267  0.00  0.00    +0.000 A 
ATOM     19  C   UNL     1      48.345  10.419  12.012  0.00  0.00    +0.000 A 
ATOM     20  C   UNL     1      49.546   9.828  11.626  0.00  0.00    +0.000 A 
ATOM     21  C   UNL     1      49.615   8.444  11.490  0.00  0.00    +0.000 A 
ATOM     22 CL   UNL     1      51.102   7.707  11.033  0.00  0.00    +0.000 Cl
ATOM     23  C   UNL     1      48.494   7.650  11.738  0.00  0.00    +0.000 A 
ENDBRANCH  16  17
ENDBRANCH  14  16
ENDBRANCH  13  14
ENDBRANCH   1  13
TORSDOF 5
ENDMDL
MODEL 6
REMARK VINA RESULT:    -6.863      1.979      2.608
REMARK INTER + INTRA:          -9.653
REMARK INTER:                  -8.834
REMARK INTRA:                  -0.818
REMARK UNBOUND:                -0.783
REMARK  Name = 
REMARK  6 active torsions:
REMARK  status: ('A' for Active; 'I' for Inactive)
REMARK    1  A    between atoms: C_1  and  C_2
REMARK    2  A    between atoms: C_2  and  C_3
REMARK    3  A    between atoms: C_2  and  C_17
REMARK    4  A    between atoms: C_3  and  O_4
REMARK    5  A    between atoms: O_4  and  C_5
REMARK    6  A    between atoms: C_9  and  C_10
REMARK                            x       y       z     vdW  Elec       q    Type
REMARK                         _______ _______ _______ _____ _____    ______ ____
ROOT
ATOM      1  C   UNL     1      45.367   5.554  13.065  0.00  0.00    +0.000 A 
ATOM      2  C   UNL     1      44.738   6.580  12.370  0.00  0.00    +0.000 A 
ATOM      3  C   UNL     1      45.367   7.813  12.278  0.00  0.00    +0.000 A 
ATOM      4  C   UNL     1      46.600   7.991  12.886  0.00  0.00    +0.000 A 
ATOM      5  C   UNL     1      47.178   6.930  13.585  0.00  0.00    +0.000 A 
ATOM      6  N   UNL     1      46.573   5.716  13.660  0.00  0.00    +0.000 NA
ENDROOT
BRANCH   5   7
ATOM      7  C   UNL     1      48.483   7.070  14.268  0.00  0.00    +0.000 A 
ATOM      8  C   UNL     1      49.552   7.769  13.684  0.00  0.00    +0.000 A 
ATOM      9  C   UNL     1      50.771   7.834  14.342  0.00  0.00    +0.000 A 
ATOM     10  N   UNL     1      51.004   7.265  15.538  0.00  0.00    +0.000 NA
ATOM     11  C   UNL     1      49.969   6.615  16.107  0.00  0.00    +0.000 A 
ATOM     12  C   UNL     1      48.713   6.496  15.525  0.00  0.00    +0.000 A 
ENDBRANCH   5   7
BRANCH   1  13
ATOM     13  O   UNL     1      44.853   4.291  13.214  0.00  0.00    +0.000 OA
BRANCH  13  14
ATOM     14  C   UNL     1      45.394   3.285  12.353  0.00  0.00    +0.000 C 
BRANCH  14  16
ATOM     15  C   UNL     1      43.054   3.639  11.436  0.00  0.00    +0.000 C 
ATOM     16  C   UNL     1      44.391   2.912  11.244  0.00  0.00    +0.000 C 
BRANCH  16  17
ATOM     17  C   UNL     1      45.039   3.151   9.884  0.00  0.00    +0.000 A 
ATOM     18  C   UNL     1      45.213   4.438   9.346  0.00  0.00    +0.000 A 
ATOM     19  C   UNL     1      45.872   4.623   8.127  0.00  0.00    +0.000 A 
ATOM     20  C   UNL     1      46.379   3.529   7.430  0.00  0.00    +0.000 A 
ATOM     21  C   UNL     1      46.218   2.249   7.953  0.00  0.00    +0.000 A 
ATOM     22 CL   UNL     1      46.859   0.895   7.104  0.00  0.00    +0.000 Cl
ATOM     23  C   UNL     1      45.554   2.058   9.167  0.00  0.00    +0.000 A 
ENDBRANCH  16  17
ENDBRANCH  14  16
ENDBRANCH  13  14
ENDBRANCH   1  13
TORSDOF 5
ENDMDL
MODEL 7
REMARK VINA RESULT:    -6.492      2.529      4.540
REMARK INTER + INTRA:          -9.172
REMARK INTER:                  -8.449
REMARK INTRA:                  -0.723
REMARK UNBOUND:                -0.783
REMARK  Name = 
REMARK  6 active torsions:
REMARK  status: ('A' for Active; 'I' for Inactive)
REMARK    1  A    between atoms: C_1  and  C_2
REMARK    2  A    between atoms: C_2  and  C_3
REMARK    3  A    between atoms: C_2  and  C_17
REMARK    4  A    between atoms: C_3  and  O_4
REMARK    5  A    between atoms: O_4  and  C_5
REMARK    6  A    between atoms: C_9  and  C_10
REMARK                            x       y       z     vdW  Elec       q    Type
REMARK                         _______ _______ _______ _____ _____    ______ ____
ROOT
ATOM      1  C   UNL     1      47.534   4.058  16.513  0.00  0.00    +0.000 A 
ATOM      2  C   UNL     1      47.149   5.048  17.408  0.00  0.00    +0.000 A 
ATOM      3  C   UNL     1      48.012   5.399  18.436  0.00  0.00    +0.000 A 
ATOM      4  C   UNL     1      49.231   4.747  18.546  0.00  0.00    +0.000 A 
ATOM      5  C   UNL     1      49.560   3.749  17.629  0.00  0.00    +0.000 A 
ATOM      6  N   UNL     1      48.723   3.417  16.610  0.00  0.00    +0.000 NA
ENDROOT
BRANCH   5   7
ATOM      7  C   UNL     1      50.838   3.009  17.712  0.00  0.00    +0.000 A 
ATOM      8  C   UNL     1      52.023   3.627  18.140  0.00  0.00    +0.000 A 
ATOM      9  C   UNL     1      53.208   2.905  18.157  0.00  0.00    +0.000 A 
ATOM     10  N   UNL     1      53.300   1.616  17.788  0.00  0.00    +0.000 NA
ATOM     11  C   UNL     1      52.156   1.018  17.399  0.00  0.00    +0.000 A 
ATOM     12  C   UNL     1      50.924   1.658  17.349  0.00  0.00    +0.000 A 
ENDBRANCH   5   7
BRANCH   1  13
ATOM     13  O   UNL     1      46.774   3.635  15.452  0.00  0.00    +0.000 OA
BRANCH  13  14
ATOM     14  C   UNL     1      47.220   4.044  14.156  0.00  0.00    +0.000 C 
BRANCH  14  16
ATOM     15  C   UNL     1      47.416   6.263  12.940  0.00  0.00    +0.000 C 
ATOM     16  C   UNL     1      46.477   5.312  13.693  0.00  0.00    +0.000 C 
BRANCH  16  17
ATOM     17  C   UNL     1      45.239   4.904  12.901  0.00  0.00    +0.000 A 
ATOM     18  C   UNL     1      43.985   5.508  13.096  0.00  0.00    +0.000 A 
ATOM     19  C   UNL     1      42.887   5.154  12.305  0.00  0.00    +0.000 A 
ATOM     20  C   UNL     1      43.025   4.201  11.300  0.00  0.00    +0.000 A 
ATOM     21  C   UNL     1      44.262   3.597  11.093  0.00  0.00    +0.000 A 
ATOM     22 CL   UNL     1      44.442   2.431   9.839  0.00  0.00    +0.000 Cl
ATOM     23  C   UNL     1      45.360   3.941  11.884  0.00  0.00    +0.000 A 
ENDBRANCH  16  17
ENDBRANCH  14  16
ENDBRANCH  13  14
ENDBRANCH   1  13
TORSDOF 5
ENDMDL
MODEL 8
REMARK VINA RESULT:    -6.415      3.286      7.769
REMARK INTER + INTRA:          -9.074
REMARK INTER:                  -8.468
REMARK INTRA:                  -0.605
REMARK UNBOUND:                -0.783
REMARK  Name = 
REMARK  6 active torsions:
REMARK  status: ('A' for Active; 'I' for Inactive)
REMARK    1  A    between atoms: C_1  and  C_2
REMARK    2  A    between atoms: C_2  and  C_3
REMARK    3  A    between atoms: C_2  and  C_17
REMARK    4  A    between atoms: C_3  and  O_4
REMARK    5  A    between atoms: O_4  and  C_5
REMARK    6  A    between atoms: C_9  and  C_10
REMARK                            x       y       z     vdW  Elec       q    Type
REMARK                         _______ _______ _______ _____ _____    ______ ____
ROOT
ATOM      1  C   UNL     1      47.835   6.059  14.171  0.00  0.00    +0.000 A 
ATOM      2  C   UNL     1      48.304   7.217  13.562  0.00  0.00    +0.000 A 
ATOM      3  C   UNL     1      47.747   7.614  12.355  0.00  0.00    +0.000 A 
ATOM      4  C   UNL     1      46.745   6.843  11.786  0.00  0.00    +0.000 A 
ATOM      5  C   UNL     1      46.324   5.681  12.433  0.00  0.00    +0.000 A 
ATOM      6  N   UNL     1      46.855   5.300  13.625  0.00  0.00    +0.000 NA
ENDROOT
BRANCH   5   7
ATOM      7  C   UNL     1      45.273   4.812  11.862  0.00  0.00    +0.000 A 
ATOM      8  C   UNL     1      44.451   4.015  12.675  0.00  0.00    +0.000 A 
ATOM      9  C   UNL     1      43.509   3.180  12.091  0.00  0.00    +0.000 A 
ATOM     10  N   UNL     1      43.319   3.084  10.763  0.00  0.00    +0.000 NA
ATOM     11  C   UNL     1      44.094   3.868   9.987  0.00  0.00    +0.000 A 
ATOM     12  C   UNL     1      45.062   4.734  10.479  0.00  0.00    +0.000 A 
ENDBRANCH   5   7
BRANCH   1  13
ATOM     13  O   UNL     1      48.296   5.573  15.368  0.00  0.00    +0.000 OA
BRANCH  13  14
ATOM     14  C   UNL     1      47.752   4.319  15.790  0.00  0.00    +0.000 C 
BRANCH  14  16
ATOM     15  C   UNL     1      47.203   2.897  17.819  0.00  0.00    +0.000 C 
ATOM     16  C   UNL     1      48.032   4.072  17.285  0.00  0.00    +0.000 C 
BRANCH  16  17
ATOM     17  C   UNL     1      49.535   3.918  17.492  0.00  0.00    +0.000 A 
ATOM     18  C   UNL     1      50.355   4.985  17.896  0.00  0.00    +0.000 A 
ATOM     19  C   UNL     1      51.718   4.791  18.142  0.00  0.00    +0.000 A 
ATOM     20  C   UNL     1      52.283   3.527  17.998  0.00  0.00    +0.000 A 
ATOM     21  C   UNL     1      51.482   2.459  17.603  0.00  0.00    +0.000 A 
ATOM     22 CL   UNL     1      52.172   0.890  17.443  0.00  0.00    +0.000 Cl
ATOM     23  C   UNL     1      50.122   2.649  17.350  0.00  0.00    +0.000 A 
ENDBRANCH  16  17
ENDBRANCH  14  16
ENDBRANCH  13  14
ENDBRANCH   1  13
TORSDOF 5
ENDMDL
MODEL 9
REMARK VINA RESULT:    -6.265      3.623      7.500
REMARK INTER + INTRA:          -8.879
REMARK INTER:                  -8.271
REMARK INTRA:                  -0.608
REMARK UNBOUND:                -0.783
REMARK  Name = 
REMARK  6 active torsions:
REMARK  status: ('A' for Active; 'I' for Inactive)
REMARK    1  A    between atoms: C_1  and  C_2
REMARK    2  A    between atoms: C_2  and  C_3
REMARK    3  A    between atoms: C_2  and  C_17
REMARK    4  A    between atoms: C_3  and  O_4
REMARK    5  A    between atoms: O_4  and  C_5
REMARK    6  A    between atoms: C_9  and  C_10
REMARK                            x       y       z     vdW  Elec       q    Type
REMARK                         _______ _______ _______ _____ _____    ______ ____
ROOT
ATOM      1  C   UNL     1      48.326   6.491  13.743  0.00  0.00    +0.000 A 
ATOM      2  C   UNL     1      48.856   7.411  12.846  0.00  0.00    +0.000 A 
ATOM      3  C   UNL     1      48.202   7.628  11.641  0.00  0.00    +0.000 A 
ATOM      4  C   UNL     1      47.045   6.917  11.362  0.00  0.00    +0.000 A 
ATOM      5  C   UNL     1      46.566   5.994  12.293  0.00  0.00    +0.000 A 
ATOM      6  N   UNL     1      47.195   5.794  13.482  0.00  0.00    +0.000 NA
ENDROOT
BRANCH   5   7
ATOM      7  C   UNL     1      45.348   5.196  12.039  0.00  0.00    +0.000 A 
ATOM      8  C   UNL     1      45.266   3.839  12.392  0.00  0.00    +0.000 A 
ATOM      9  C   UNL     1      44.119   3.119  12.092  0.00  0.00    +0.000 A 
ATOM     10  N   UNL     1      43.047   3.647  11.475  0.00  0.00    +0.000 NA
ATOM     11  C   UNL     1      43.120   4.956  11.159  0.00  0.00    +0.000 A 
ATOM     12  C   UNL     1      44.223   5.757  11.419  0.00  0.00    +0.000 A 
ENDBRANCH   5   7
BRANCH   1  13
ATOM     13  O   UNL     1      48.873   6.201  14.967  0.00  0.00    +0.000 OA
BRANCH  13  14
ATOM     14  C   UNL     1      48.733   7.207  15.974  0.00  0.00    +0.000 C 
BRANCH  14  16
ATOM     15  C   UNL     1      48.469   7.469  18.485  0.00  0.00    +0.000 C 
ATOM     16  C   UNL     1      49.123   6.656  17.360  0.00  0.00    +0.000 C 
BRANCH  16  17
ATOM     17  C   UNL     1      48.813   5.164  17.409  0.00  0.00    +0.000 A 
ATOM     18  C   UNL     1      47.500   4.665  17.405  0.00  0.00    +0.000 A 
ATOM     19  C   UNL     1      47.255   3.288  17.383  0.00  0.00    +0.000 A 
ATOM     20  C   UNL     1      48.316   2.387  17.354  0.00  0.00    +0.000 A 
ATOM     21  C   UNL     1      49.623   2.867  17.354  0.00  0.00    +0.000 A 
ATOM     22 CL   UNL     1      50.938   1.758  17.299  0.00  0.00    +0.000 Cl
ATOM     23  C   UNL     1      49.873   4.241  17.382  0.00  0.00    +0.000 A 
ENDBRANCH  16  17
ENDBRANCH  14  16
ENDBRANCH  13  14
ENDBRANCH   1  13
TORSDOF 5
ENDMDL
