MODEL 1
REMARK VINA RESULT:    -7.667      0.000      0.000
REMARK INTER + INTRA:          -9.906
REMARK INTER:                  -9.460
REMARK INTRA:                  -0.446
REMARK UNBOUND:                -0.446
REMARK  Name = 
REMARK  5 active torsions:
REMARK  status: ('A' for Active; 'I' for Inactive)
REMARK    1  A    between atoms: C_1  and  O_2
REMARK    2  A    between atoms: O_2  and  C_3
REMARK    3  A    between atoms: C_5  and  C_6
REMARK    4  A    between atoms: C_6  and  C_7
REMARK    5  A    between atoms: C_13  and  C_14
REMARK                            x       y       z     vdW  Elec       q    Type
REMARK                         _______ _______ _______ _____ _____    ______ ____
ROOT
ATOM      1  C   UNL     1      45.766   5.663  11.955  0.00  0.00    +0.000 A 
ATOM      2  N   UNL     1      46.623   6.681  11.750  0.00  0.00    +0.000 NA
ATOM      3  C   UNL     1      47.553   6.883  12.722  0.00  0.00    +0.000 A 
ATOM      4  C   UNL     1      47.674   6.144  13.887  0.00  0.00    +0.000 A 
ATOM      5  N   UNL     1      48.594   6.386  14.865  0.00  0.00    +0.000 NA
ATOM      6  C   UNL     1      48.551   5.592  15.968  0.00  0.00    +0.000 A 
ATOM      7  C   UNL     1      47.639   4.564  16.135  0.00  0.00    +0.000 A 
ATOM      8  C   UNL     1      46.738   4.334  15.092  0.00  0.00    +0.000 A 
ATOM      9  C   UNL     1      46.730   5.120  13.964  0.00  0.00    +0.000 A 
ATOM     10  N   UNL     1      45.798   4.867  13.034  0.00  0.00    +0.000 NA
ENDROOT
BRANCH   7  11
ATOM     11  C   UNL     1      47.522   3.704  17.335  0.00  0.00    +0.000 C 
ATOM     12  N   UNL     1      48.436   3.824  18.339  0.00  0.00    +0.000 N 
ATOM     13  O   UNL     1      46.602   2.903  17.448  0.00  0.00    +0.000 OA
ATOM     14  H   UNL     1      49.191   4.488  18.388  0.00  0.00    +0.000 HD
ATOM     15  H   UNL     1      48.268   3.243  19.153  0.00  0.00    +0.000 HD
ENDBRANCH   7  11
BRANCH   1  16
ATOM     16  C   UNL     1      44.653   5.417  10.965  0.00  0.00    +0.000 C 
BRANCH  16  19
ATOM     17  C   UNL     1      45.914   3.676   7.833  0.00  0.00    +0.000 A 
ATOM     18  C   UNL     1      45.689   4.686   8.759  0.00  0.00    +0.000 A 
ATOM     19  C   UNL     1      44.974   4.374   9.922  0.00  0.00    +0.000 A 
ATOM     20  C   UNL     1      44.531   3.061  10.099  0.00  0.00    +0.000 A 
ATOM     21  C   UNL     1      44.837   2.119   9.134  0.00  0.00    +0.000 A 
ATOM     22  N   UNL     1      45.521   2.395   8.006  0.00  0.00    +0.000 NA
BRANCH  17  24
ATOM     23  C   UNL     1      46.833   2.877   5.855  0.00  0.00    +0.000 C 
ATOM     24  O   UNL     1      46.581   4.019   6.673  0.00  0.00    +0.000 OA
ENDBRANCH  17  24
ENDBRANCH  16  19
ENDBRANCH   1  16
TORSDOF 4
ENDMDL
MODEL 2
REMARK VINA RESULT:    -7.430      2.791      7.448
REMARK INTER + INTRA:          -9.613
REMARK INTER:                  -9.193
REMARK INTRA:                  -0.420
REMARK UNBOUND:                -0.446
REMARK  Name = 
REMARK  5 active torsions:
REMARK  status: ('A' for Active; 'I' for Inactive)
REMARK    1  A    between atoms: C_1  and  O_2
REMARK    2  A    between atoms: O_2  and  C_3
REMARK    3  A    between atoms: C_5  and  C_6
REMARK    4  A    between atoms: C_6  and  C_7
REMARK    5  A    between atoms: C_13  and  C_14
REMARK                            x       y       z     vdW  Elec       q    Type
REMARK                         _______ _______ _______ _____ _____    ______ ____
ROOT
ATOM      1  C   UNL     1      43.960   4.970  10.591  0.00  0.00    +0.000 A 
ATOM      2  N   UNL     1      43.502   3.842  11.166  0.00  0.00    +0.000 NA
ATOM      3  C   UNL     1      43.957   2.675  10.636  0.00  0.00    +0.000 A 
ATOM      4  C   UNL     1      44.828   2.562   9.566  0.00  0.00    +0.000 A 
ATOM      5  N   UNL     1      45.245   1.380   9.029  0.00  0.00    +0.000 NA
ATOM      6  C   UNL     1      46.069   1.444   7.949  0.00  0.00    +0.000 A 
ATOM      7  C   UNL     1      46.503   2.633   7.387  0.00  0.00    +0.000 A 
ATOM      8  C   UNL     1      46.075   3.817   7.992  0.00  0.00    +0.000 A 
ATOM      9  C   UNL     1      45.227   3.806   9.075  0.00  0.00    +0.000 A 
ATOM     10  N   UNL     1      44.821   4.987   9.562  0.00  0.00    +0.000 NA
ENDROOT
BRANCH   7  11
ATOM     11  C   UNL     1      47.361   2.755   6.187  0.00  0.00    +0.000 C 
ATOM     12  N   UNL     1      48.706   2.572   6.302  0.00  0.00    +0.000 N 
ATOM     13  O   UNL     1      46.875   2.994   5.088  0.00  0.00    +0.000 OA
ATOM     14  H   UNL     1      49.208   2.307   7.134  0.00  0.00    +0.000 HD
ATOM     15  H   UNL     1      49.228   2.617   5.433  0.00  0.00    +0.000 HD
ENDBRANCH   7  11
BRANCH   1  16
ATOM     16  C   UNL     1      43.446   6.309  11.065  0.00  0.00    +0.000 C 
BRANCH  16  19
ATOM     17  C   UNL     1      46.472   7.614  12.954  0.00  0.00    +0.000 A 
ATOM     18  C   UNL     1      45.551   6.714  12.436  0.00  0.00    +0.000 A 
ATOM     19  C   UNL     1      44.511   7.210  11.640  0.00  0.00    +0.000 A 
ATOM     20  C   UNL     1      44.458   8.585  11.398  0.00  0.00    +0.000 A 
ATOM     21  C   UNL     1      45.443   9.395  11.932  0.00  0.00    +0.000 A 
ATOM     22  N   UNL     1      46.451   8.941  12.702  0.00  0.00    +0.000 NA
BRANCH  17  24
ATOM     23  C   UNL     1      47.358   5.688  13.902  0.00  0.00    +0.000 C 
ATOM     24  O   UNL     1      47.461   7.106  13.774  0.00  0.00    +0.000 OA
ENDBRANCH  17  24
ENDBRANCH  16  19
ENDBRANCH   1  16
TORSDOF 4
ENDMDL
MODEL 3
REMARK VINA RESULT:    -7.404      2.683      7.739
REMARK INTER + INTRA:          -9.582
REMARK INTER:                  -9.398
REMARK INTRA:                  -0.184
REMARK UNBOUND:                -0.446
REMARK  Name = 
REMARK  5 active torsions:
REMARK  status: ('A' for Active; 'I' for Inactive)
REMARK    1  A    between atoms: C_1  and  O_2
REMARK    2  A    between atoms: O_2  and  C_3
REMARK    3  A    between atoms: C_5  and  C_6
REMARK    4  A    between atoms: C_6  and  C_7
REMARK    5  A    between atoms: C_13  and  C_14
REMARK                            x       y       z     vdW  Elec       q    Type
REMARK                         _______ _______ _______ _____ _____    ______ ____
ROOT
ATOM      1  C   UNL     1      47.209   4.497  15.397  0.00  0.00    +0.000 A 
ATOM      2  N   UNL     1      48.030   5.527  15.120  0.00  0.00    +0.000 NA
ATOM      3  C   UNL     1      47.855   6.120  13.907  0.00  0.00    +0.000 A 
ATOM      4  C   UNL     1      46.924   5.743  12.954  0.00  0.00    +0.000 A 
ATOM      5  N   UNL     1      46.788   6.331  11.730  0.00  0.00    +0.000 NA
ATOM      6  C   UNL     1      45.851   5.812  10.893  0.00  0.00    +0.000 A 
ATOM      7  C   UNL     1      45.039   4.741  11.224  0.00  0.00    +0.000 A 
ATOM      8  C   UNL     1      45.192   4.194  12.500  0.00  0.00    +0.000 A 
ATOM      9  C   UNL     1      46.138   4.671  13.378  0.00  0.00    +0.000 A 
ATOM     10  N   UNL     1      46.257   4.055  14.562  0.00  0.00    +0.000 NA
ENDROOT
BRANCH   7  11
ATOM     11  C   UNL     1      44.038   4.112  10.332  0.00  0.00    +0.000 C 
ATOM     12  N   UNL     1      44.013   4.445   9.010  0.00  0.00    +0.000 N 
ATOM     13  O   UNL     1      43.248   3.279  10.760  0.00  0.00    +0.000 OA
ATOM     14  H   UNL     1      44.650   5.062   8.534  0.00  0.00    +0.000 HD
ATOM     15  H   UNL     1      43.338   3.940   8.446  0.00  0.00    +0.000 HD
ENDBRANCH   7  11
BRANCH   1  16
ATOM     16  C   UNL     1      47.386   3.732  16.687  0.00  0.00    +0.000 C 
BRANCH  16  19
ATOM     17  C   UNL     1      50.805   2.178  17.255  0.00  0.00    +0.000 A 
ATOM     18  C   UNL     1      49.491   2.309  16.828  0.00  0.00    +0.000 A 
ATOM     19  C   UNL     1      48.825   3.515  17.084  0.00  0.00    +0.000 A 
ATOM     20  C   UNL     1      49.520   4.530  17.747  0.00  0.00    +0.000 A 
ATOM     21  C   UNL     1      50.839   4.313  18.101  0.00  0.00    +0.000 A 
ATOM     22  N   UNL     1      51.499   3.162  17.868  0.00  0.00    +0.000 NA
BRANCH  17  24
ATOM     23  C   UNL     1      52.682   0.885  17.700  0.00  0.00    +0.000 C 
ATOM     24  O   UNL     1      51.423   0.963  17.033  0.00  0.00    +0.000 OA
ENDBRANCH  17  24
ENDBRANCH  16  19
ENDBRANCH   1  16
TORSDOF 4
ENDMDL
MODEL 4
REMARK VINA RESULT:    -7.165      1.673      2.104
REMARK INTER + INTRA:          -9.287
REMARK INTER:                  -9.049
REMARK INTRA:                  -0.237
REMARK UNBOUND:                -0.446
REMARK  Name = 
REMARK  5 active torsions:
REMARK  status: ('A' for Active; 'I' for Inactive)
REMARK    1  A    between atoms: C_1  and  O_2
REMARK    2  A    between atoms: O_2  and  C_3
REMARK    3  A    between atoms: C_5  and  C_6
REMARK    4  A    between atoms: C_6  and  C_7
REMARK    5  A    between atoms: C_13  and  C_14
REMARK                            x       y       z     vdW  Elec       q    Type
REMARK                         _______ _______ _______ _____ _____    ______ ____
ROOT
ATOM      1  C   UNL     1      46.956   6.331  12.334  0.00  0.00    +0.000 A 
ATOM      2  N   UNL     1      47.889   7.293  12.466  0.00  0.00    +0.000 NA
ATOM      3  C   UNL     1      48.599   7.280  13.627  0.00  0.00    +0.000 A 
ATOM      4  C   UNL     1      48.431   6.379  14.664  0.00  0.00    +0.000 A 
ATOM      5  N   UNL     1      49.131   6.405  15.834  0.00  0.00    +0.000 NA
ATOM      6  C   UNL     1      48.813   5.471  16.769  0.00  0.00    +0.000 A 
ATOM      7  C   UNL     1      47.835   4.508  16.587  0.00  0.00    +0.000 A 
ATOM      8  C   UNL     1      47.168   4.501  15.360  0.00  0.00    +0.000 A 
ATOM      9  C   UNL     1      47.440   5.435  14.388  0.00  0.00    +0.000 A 
ATOM     10  N   UNL     1      46.717   5.391  13.260  0.00  0.00    +0.000 NA
ENDROOT
BRANCH   7  11
ATOM     11  C   UNL     1      47.422   3.501  17.591  0.00  0.00    +0.000 C 
ATOM     12  N   UNL     1      48.165   3.334  18.721  0.00  0.00    +0.000 N 
ATOM     13  O   UNL     1      46.408   2.832  17.431  0.00  0.00    +0.000 OA
ATOM     14  H   UNL     1      48.975   3.868  18.992  0.00  0.00    +0.000 HD
ATOM     15  H   UNL     1      47.798   2.666  19.390  0.00  0.00    +0.000 HD
ENDBRANCH   7  11
BRANCH   1  16
ATOM     16  C   UNL     1      46.070   6.318  11.112  0.00  0.00    +0.000 C 
BRANCH  16  19
ATOM     17  C   UNL     1      44.185   3.126  10.281  0.00  0.00    +0.000 A 
ATOM     18  C   UNL     1      45.182   4.092  10.255  0.00  0.00    +0.000 A 
ATOM     19  C   UNL     1      45.052   5.203  11.099  0.00  0.00    +0.000 A 
ATOM     20  C   UNL     1      43.933   5.280  11.931  0.00  0.00    +0.000 A 
ATOM     21  C   UNL     1      43.012   4.248  11.906  0.00  0.00    +0.000 A 
ATOM     22  N   UNL     1      43.114   3.171  11.103  0.00  0.00    +0.000 NA
BRANCH  17  24
ATOM     23  C   UNL     1      45.601   2.039   8.796  0.00  0.00    +0.000 C 
ATOM     24  O   UNL     1      44.312   2.064   9.406  0.00  0.00    +0.000 OA
ENDBRANCH  17  24
ENDBRANCH  16  19
ENDBRANCH   1  16
TORSDOF 4
ENDMDL
MODEL 5
REMARK VINA RESULT:    -7.126      2.581      3.624
REMARK INTER + INTRA:          -9.239
REMARK INTER:                  -8.802
REMARK INTRA:                  -0.437
REMARK UNBOUND:                -0.446
REMARK  Name = 
REMARK  5 active torsions:
REMARK  status: ('A' for Active; 'I' for Inactive)
REMARK    1  A    between atoms: C_1  and  O_2
REMARK    2  A    between atoms: O_2  and  C_3
REMARK    3  A    between atoms: C_5  and  C_6
REMARK    4  A    between atoms: C_6  and  C_7
REMARK    5  A    between atoms: C_13  and  C_14
REMARK                            x       y       z     vdW  Elec       q    Type
REMARK                         _______ _______ _______ _____ _____    ______ ____
ROOT
ATOM      1  C   UNL     1      45.409   5.277  11.691  0.00  0.00    +0.000 A 
ATOM      2  N   UNL     1      45.334   4.674  12.892  0.00  0.00    +0.000 NA
ATOM      3  C   UNL     1      46.299   5.010  13.790  0.00  0.00    +0.000 A 
ATOM      4  C   UNL     1      47.337   5.898  13.562  0.00  0.00    +0.000 A 
ATOM      5  N   UNL     1      48.314   6.195  14.467  0.00  0.00    +0.000 NA
ATOM      6  C   UNL     1      49.287   7.057  14.069  0.00  0.00    +0.000 A 
ATOM      7  C   UNL     1      49.325   7.642  12.814  0.00  0.00    +0.000 A 
ATOM      8  C   UNL     1      48.285   7.332  11.935  0.00  0.00    +0.000 A 
ATOM      9  C   UNL     1      47.287   6.452  12.283  0.00  0.00    +0.000 A 
ATOM     10  N   UNL     1      46.356   6.168  11.361  0.00  0.00    +0.000 NA
ENDROOT
BRANCH   7  11
ATOM     11  C   UNL     1      50.386   8.549  12.320  0.00  0.00    +0.000 C 
ATOM     12  N   UNL     1      51.678   8.116  12.287  0.00  0.00    +0.000 N 
ATOM     13  O   UNL     1      50.115   9.673  11.916  0.00  0.00    +0.000 OA
ATOM     14  H   UNL     1      52.010   7.197  12.528  0.00  0.00    +0.000 HD
ATOM     15  H   UNL     1      52.346   8.767  11.889  0.00  0.00    +0.000 HD
ENDBRANCH   7  11
BRANCH   1  16
ATOM     16  C   UNL     1      44.425   4.904  10.608  0.00  0.00    +0.000 C 
BRANCH  16  19
ATOM     17  C   UNL     1      46.020   3.458   7.479  0.00  0.00    +0.000 A 
ATOM     18  C   UNL     1      45.570   4.402   8.392  0.00  0.00    +0.000 A 
ATOM     19  C   UNL     1      44.973   3.950   9.577  0.00  0.00    +0.000 A 
ATOM     20  C   UNL     1      44.870   2.572   9.785  0.00  0.00    +0.000 A 
ATOM     21  C   UNL     1      45.381   1.713   8.829  0.00  0.00    +0.000 A 
ATOM     22  N   UNL     1      45.956   2.124   7.682  0.00  0.00    +0.000 NA
BRANCH  17  24
ATOM     23  C   UNL     1      47.018   2.863   5.468  0.00  0.00    +0.000 C 
ATOM     24  O   UNL     1      46.561   3.929   6.298  0.00  0.00    +0.000 OA
ENDBRANCH  17  24
ENDBRANCH  16  19
ENDBRANCH   1  16
TORSDOF 4
ENDMDL
MODEL 6
REMARK VINA RESULT:    -6.974      2.818      4.113
REMARK INTER + INTRA:          -9.051
REMARK INTER:                  -8.696
REMARK INTRA:                  -0.355
REMARK UNBOUND:                -0.446
REMARK  Name = 
REMARK  5 active torsions:
REMARK  status: ('A' for Active; 'I' for Inactive)
REMARK    1  A    between atoms: C_1  and  O_2
REMARK    2  A    between atoms: O_2  and  C_3
REMARK    3  A    between atoms: C_5  and  C_6
REMARK    4  A    between atoms: C_6  and  C_7
REMARK    5  A    between atoms: C_13  and  C_14
REMARK                            x       y       z     vdW  Elec       q    Type
REMARK                         _______ _______ _______ _____ _____    ______ ____
ROOT
ATOM      1  C   UNL     1      44.868   4.007   9.760  0.00  0.00    +0.000 A 
ATOM      2  N   UNL     1      44.489   3.048  10.626  0.00  0.00    +0.000 NA
ATOM      3  C   UNL     1      44.758   3.289  11.938  0.00  0.00    +0.000 A 
ATOM      4  C   UNL     1      45.388   4.416  12.437  0.00  0.00    +0.000 A 
ATOM      5  N   UNL     1      45.678   4.621  13.754  0.00  0.00    +0.000 NA
ATOM      6  C   UNL     1      46.341   5.765  14.073  0.00  0.00    +0.000 A 
ATOM      7  C   UNL     1      46.720   6.715  13.140  0.00  0.00    +0.000 A 
ATOM      8  C   UNL     1      46.372   6.476  11.809  0.00  0.00    +0.000 A 
ATOM      9  C   UNL     1      45.717   5.326  11.432  0.00  0.00    +0.000 A 
ATOM     10  N   UNL     1      45.468   5.149  10.127  0.00  0.00    +0.000 NA
ENDROOT
BRANCH   7  11
ATOM     11  C   UNL     1      47.482   7.951  13.432  0.00  0.00    +0.000 C 
ATOM     12  N   UNL     1      47.122   8.728  14.493  0.00  0.00    +0.000 N 
ATOM     13  O   UNL     1      48.445   8.272  12.747  0.00  0.00    +0.000 OA
ATOM     14  H   UNL     1      46.395   8.532  15.161  0.00  0.00    +0.000 HD
ATOM     15  H   UNL     1      47.717   9.530  14.667  0.00  0.00    +0.000 HD
ENDBRANCH   7  11
BRANCH   1  16
ATOM     16  C   UNL     1      44.679   3.788   8.278  0.00  0.00    +0.000 C 
BRANCH  16  19
ATOM     17  C   UNL     1      47.137   1.051   7.333  0.00  0.00    +0.000 A 
ATOM     18  C   UNL     1      46.072   1.683   7.960  0.00  0.00    +0.000 A 
ATOM     19  C   UNL     1      45.794   3.013   7.621  0.00  0.00    +0.000 A 
ATOM     20  C   UNL     1      46.596   3.635   6.661  0.00  0.00    +0.000 A 
ATOM     21  C   UNL     1      47.613   2.909   6.069  0.00  0.00    +0.000 A 
ATOM     22  N   UNL     1      47.900   1.630   6.380  0.00  0.00    +0.000 NA
BRANCH  17  24
ATOM     23  C   UNL     1      46.406  -1.153   7.288  0.00  0.00    +0.000 C 
ATOM     24  O   UNL     1      47.419  -0.245   7.718  0.00  0.00    +0.000 OA
ENDBRANCH  17  24
ENDBRANCH  16  19
ENDBRANCH   1  16
TORSDOF 4
ENDMDL
MODEL 7
REMARK VINA RESULT:    -6.786      2.448      3.597
REMARK INTER + INTRA:          -8.819
REMARK INTER:                  -8.367
REMARK INTRA:                  -0.452
REMARK UNBOUND:                -0.446
REMARK  Name = 
REMARK  5 active torsions:
REMARK  status: ('A' for Active; 'I' for Inactive)
REMARK    1  A    between atoms: C_1  and  O_2
REMARK    2  A    between atoms: O_2  and  C_3
REMARK    3  A    between atoms: C_5  and  C_6
REMARK    4  A    between atoms: C_6  and  C_7
REMARK    5  A    between atoms: C_13  and  C_14
REMARK                            x       y       z     vdW  Elec       q    Type
REMARK                         _______ _______ _______ _____ _____    ______ ____
ROOT
ATOM      1  C   UNL     1      45.381   4.683  12.316  0.00  0.00    +0.000 A 
ATOM      2  N   UNL     1      45.913   3.712  13.082  0.00  0.00    +0.000 NA
ATOM      3  C   UNL     1      46.883   4.105  13.953  0.00  0.00    +0.000 A 
ATOM      4  C   UNL     1      47.360   5.396  14.098  0.00  0.00    +0.000 A 
ATOM      5  N   UNL     1      48.357   5.761  14.955  0.00  0.00    +0.000 NA
ATOM      6  C   UNL     1      48.738   7.066  14.944  0.00  0.00    +0.000 A 
ATOM      7  C   UNL     1      48.165   8.024  14.126  0.00  0.00    +0.000 A 
ATOM      8  C   UNL     1      47.125   7.609  13.290  0.00  0.00    +0.000 A 
ATOM      9  C   UNL     1      46.715   6.296  13.250  0.00  0.00    +0.000 A 
ATOM     10  N   UNL     1      45.747   5.971  12.381  0.00  0.00    +0.000 NA
ENDROOT
BRANCH   7  11
ATOM     11  C   UNL     1      48.575   9.444  14.045  0.00  0.00    +0.000 C 
ATOM     12  N   UNL     1      48.605  10.067  12.833  0.00  0.00    +0.000 N 
ATOM     13  O   UNL     1      48.866  10.073  15.056  0.00  0.00    +0.000 OA
ATOM     14  H   UNL     1      48.326   9.675  11.949  0.00  0.00    +0.000 HD
ATOM     15  H   UNL     1      48.844  11.053  12.856  0.00  0.00    +0.000 HD
ENDBRANCH   7  11
BRANCH   1  16
ATOM     16  C   UNL     1      44.354   4.324  11.268  0.00  0.00    +0.000 C 
BRANCH  16  19
ATOM     17  C   UNL     1      45.668   1.997   8.568  0.00  0.00    +0.000 A 
ATOM     18  C   UNL     1      45.087   2.410   9.759  0.00  0.00    +0.000 A 
ATOM     19  C   UNL     1      44.942   3.785   9.987  0.00  0.00    +0.000 A 
ATOM     20  C   UNL     1      45.380   4.672   9.000  0.00  0.00    +0.000 A 
ATOM     21  C   UNL     1      45.914   4.159   7.832  0.00  0.00    +0.000 A 
ATOM     22  N   UNL     1      46.065   2.842   7.592  0.00  0.00    +0.000 NA
BRANCH  17  24
ATOM     23  C   UNL     1      46.920   0.362   7.494  0.00  0.00    +0.000 C 
ATOM     24  O   UNL     1      45.843   0.639   8.388  0.00  0.00    +0.000 OA
ENDBRANCH  17  24
ENDBRANCH  16  19
ENDBRANCH   1  16
TORSDOF 4
ENDMDL
MODEL 8
REMARK VINA RESULT:    -6.641      2.467      8.190
REMARK INTER + INTRA:          -8.640
REMARK INTER:                  -8.373
REMARK INTRA:                  -0.266
REMARK UNBOUND:                -0.446
REMARK  Name = 
REMARK  5 active torsions:
REMARK  status: ('A' for Active; 'I' for Inactive)
REMARK    1  A    between atoms: C_1  and  O_2
REMARK    2  A    between atoms: O_2  and  C_3
REMARK    3  A    between atoms: C_5  and  C_6
REMARK    4  A    between atoms: C_6  and  C_7
REMARK    5  A    between atoms: C_13  and  C_14
REMARK                            x       y       z     vdW  Elec       q    Type
REMARK                         _______ _______ _______ _____ _____    ______ ____
ROOT
ATOM      1  C   UNL     1      47.288   4.460  15.289  0.00  0.00    +0.000 A 
ATOM      2  N   UNL     1      48.045   5.545  15.040  0.00  0.00    +0.000 NA
ATOM      3  C   UNL     1      47.817   6.171  13.853  0.00  0.00    +0.000 A 
ATOM      4  C   UNL     1      46.895   5.778  12.899  0.00  0.00    +0.000 A 
ATOM      5  N   UNL     1      46.707   6.401  11.700  0.00  0.00    +0.000 NA
ATOM      6  C   UNL     1      45.788   5.861  10.856  0.00  0.00    +0.000 A 
ATOM      7  C   UNL     1      45.043   4.733  11.157  0.00  0.00    +0.000 A 
ATOM      8  C   UNL     1      45.247   4.150  12.409  0.00  0.00    +0.000 A 
ATOM      9  C   UNL     1      46.178   4.647  13.292  0.00  0.00    +0.000 A 
ATOM     10  N   UNL     1      46.350   3.995  14.451  0.00  0.00    +0.000 NA
ENDROOT
BRANCH   7  11
ATOM     11  C   UNL     1      44.066   4.082  10.255  0.00  0.00    +0.000 C 
ATOM     12  N   UNL     1      44.038   4.424   8.936  0.00  0.00    +0.000 N 
ATOM     13  O   UNL     1      43.300   3.222  10.673  0.00  0.00    +0.000 OA
ATOM     14  H   UNL     1      44.658   5.064   8.467  0.00  0.00    +0.000 HD
ATOM     15  H   UNL     1      43.381   3.903   8.364  0.00  0.00    +0.000 HD
ENDBRANCH   7  11
BRANCH   1  16
ATOM     16  C   UNL     1      47.527   3.659  16.547  0.00  0.00    +0.000 C 
BRANCH  16  19
ATOM     17  C   UNL     1      48.971   5.946  19.215  0.00  0.00    +0.000 A 
ATOM     18  C   UNL     1      48.041   5.369  18.360  0.00  0.00    +0.000 A 
ATOM     19  C   UNL     1      48.461   4.320  17.531  0.00  0.00    +0.000 A 
ATOM     20  C   UNL     1      49.790   3.899  17.613  0.00  0.00    +0.000 A 
ATOM     21  C   UNL     1      50.630   4.516  18.522  0.00  0.00    +0.000 A 
ATOM     22  N   UNL     1      50.250   5.527  19.328  0.00  0.00    +0.000 NA
BRANCH  17  24
ATOM     23  C   UNL     1      47.538   7.770  19.322  0.00  0.00    +0.000 C 
ATOM     24  O   UNL     1      48.545   7.009  19.987  0.00  0.00    +0.000 OA
ENDBRANCH  17  24
ENDBRANCH  16  19
ENDBRANCH   1  16
TORSDOF 4
ENDMDL
MODEL 9
REMARK VINA RESULT:    -6.483      2.279      3.167
REMARK INTER + INTRA:          -8.444
REMARK INTER:                  -8.042
REMARK INTRA:                  -0.402
REMARK UNBOUND:                -0.446
REMARK  Name = 
REMARK  5 active torsions:
REMARK  status: ('A' for Active; 'I' for Inactive)
REMARK    1  A    between atoms: C_1  and  O_2
REMARK    2  A    between atoms: O_2  and  C_3
REMARK    3  A    between atoms: C_5  and  C_6
REMARK    4  A    between atoms: C_6  and  C_7
REMARK    5  A    between atoms: C_13  and  C_14
REMARK                            x       y       z     vdW  Elec       q    Type
REMARK                         _______ _______ _______ _____ _____    ______ ____
ROOT
ATOM      1  C   UNL     1      47.104   4.254  14.068  0.00  0.00    +0.000 A 
ATOM      2  N   UNL     1      47.592   5.403  13.564  0.00  0.00    +0.000 NA
ATOM      3  C   UNL     1      48.205   6.231  14.453  0.00  0.00    +0.000 A 
ATOM      4  C   UNL     1      48.350   5.991  15.808  0.00  0.00    +0.000 A 
ATOM      5  N   UNL     1      48.939   6.852  16.688  0.00  0.00    +0.000 NA
ATOM      6  C   UNL     1      48.962   6.483  17.996  0.00  0.00    +0.000 A 
ATOM      7  C   UNL     1      48.434   5.292  18.465  0.00  0.00    +0.000 A 
ATOM      8  C   UNL     1      47.871   4.430  17.522  0.00  0.00    +0.000 A 
ATOM      9  C   UNL     1      47.807   4.764  16.189  0.00  0.00    +0.000 A 
ATOM     10  N   UNL     1      47.201   3.903  15.358  0.00  0.00    +0.000 NA
ENDROOT
BRANCH   7  11
ATOM     11  C   UNL     1      48.394   4.868  19.883  0.00  0.00    +0.000 C 
ATOM     12  N   UNL     1      48.523   3.547  20.193  0.00  0.00    +0.000 N 
ATOM     13  O   UNL     1      48.270   5.691  20.783  0.00  0.00    +0.000 OA
ATOM     14  H   UNL     1      48.695   2.793  19.549  0.00  0.00    +0.000 HD
ATOM     15  H   UNL     1      48.540   3.331  21.184  0.00  0.00    +0.000 HD
ENDBRANCH   7  11
BRANCH   1  16
ATOM     16  C   UNL     1      46.340   3.312  13.167  0.00  0.00    +0.000 C 
BRANCH  16  19
ATOM     17  C   UNL     1      43.840   4.494  10.563  0.00  0.00    +0.000 A 
ATOM     18  C   UNL     1      44.951   3.865  11.108  0.00  0.00    +0.000 A 
ATOM     19  C   UNL     1      45.143   3.937  12.494  0.00  0.00    +0.000 A 
ATOM     20  C   UNL     1      44.202   4.630  13.260  0.00  0.00    +0.000 A 
ATOM     21  C   UNL     1      43.111   5.194  12.625  0.00  0.00    +0.000 A 
ATOM     22  N   UNL     1      42.906   5.140  11.295  0.00  0.00    +0.000 NA
BRANCH  17  24
ATOM     23  C   UNL     1      44.931   4.129   8.545  0.00  0.00    +0.000 C 
ATOM     24  O   UNL     1      43.699   4.449   9.189  0.00  0.00    +0.000 OA
ENDBRANCH  17  24
ENDBRANCH  16  19
ENDBRANCH   1  16
TORSDOF 4
ENDMDL
