MODEL 1
REMARK VINA RESULT:    -7.910      0.000      0.000
REMARK INTER + INTRA:         -11.837
REMARK INTER:                 -10.685
REMARK INTRA:                  -1.152
REMARK UNBOUND:                -1.152
REMARK  Name = 
REMARK  7 active torsions:
REMARK  status: ('A' for Active; 'I' for Inactive)
REMARK    1  A    between atoms: C_1  and  C_2
REMARK    2  A    between atoms: C_3  and  C_4
REMARK    3  A    between atoms: C_4  and  C_5
REMARK    4  A    between atoms: C_5  and  N_6
REMARK    5  A    between atoms: N_6  and  C_7
REMARK    6  A    between atoms: C_10  and  C_11
REMARK    7  A    between atoms: C_19  and  N_20
REMARK                            x       y       z     vdW  Elec       q    Type
REMARK                         _______ _______ _______ _____ _____    ______ ____
ROOT
ATOM      1  C   UNL     1      43.299   5.495  12.312  0.00  0.00    +0.000 C 
ENDROOT
BRANCH   1   4
ATOM      2  C   UNL     1      45.123   7.882  12.266  0.00  0.00    +0.000 C 
ATOM      3  C   UNL     1      45.644   6.554  12.762  0.00  0.00    +0.000 A 
ATOM      4  C   UNL     1      44.753   5.435  12.775  0.00  0.00    +0.000 A 
ATOM      5  C   UNL     1      45.239   4.165  13.122  0.00  0.00    +0.000 A 
ATOM      6  C   UNL     1      46.558   3.995  13.500  0.00  0.00    +0.000 A 
ATOM      7  C   UNL     1      47.410   5.097  13.537  0.00  0.00    +0.000 A 
ATOM      8  C   UNL     1      47.009   6.398  13.159  0.00  0.00    +0.000 A 
BRANCH   8   9
ATOM      9  N   UNL     1      47.967   7.403  13.122  0.00  0.00    +0.000 N 
ATOM     10  C   UNL     1      48.529   8.093  14.292  0.00  0.00    +0.000 C 
ATOM     11  C   UNL     1      48.509   9.621  14.033  0.00  0.00    +0.000 C 
ATOM     12  N   UNL     1      49.271  10.011  12.824  0.00  0.00    +0.000 NA
ATOM     13  C   UNL     1      48.749   9.250  11.667  0.00  0.00    +0.000 C 
ATOM     14  C   UNL     1      48.703   7.717  11.879  0.00  0.00    +0.000 C 
ATOM     15  H   UNL     1      50.242   9.736  12.965  0.00  0.00    +0.000 HD
ENDBRANCH   8   9
ENDBRANCH   1   4
BRANCH   1  16
ATOM     16  C   UNL     1      43.092   4.549  11.124  0.00  0.00    +0.000 C 
BRANCH  16  17
ATOM     17  N   UNL     1      43.774   4.995   9.898  0.00  0.00    +0.000 N 
ATOM     18  H   UNL     1      44.279   5.870  10.027  0.00  0.00    +0.000 HD
BRANCH  17  19
ATOM     19  C   UNL     1      44.596   4.021   9.286  0.00  0.00    +0.000 A 
ATOM     20  C   UNL     1      44.453   2.650   9.535  0.00  0.00    +0.000 A 
ATOM     21  C   UNL     1      45.266   1.700   8.916  0.00  0.00    +0.000 A 
ATOM     22  C   UNL     1      46.218   2.096   7.983  0.00  0.00    +0.000 A 
ATOM     23  C   UNL     1      46.339   3.451   7.663  0.00  0.00    +0.000 A 
ATOM     24  C   UNL     1      45.519   4.401   8.299  0.00  0.00    +0.000 A 
BRANCH  22  25
ATOM     25  C   UNL     1      47.070   1.033   7.383  0.00  0.00    +0.000 C 
ATOM     26  N   UNL     1      47.936   1.399   6.394  0.00  0.00    +0.000 N 
ATOM     27  O   UNL     1      46.971  -0.140   7.724  0.00  0.00    +0.000 OA
ATOM     28  H   UNL     1      47.856   2.276   5.906  0.00  0.00    +0.000 HD
ATOM     29  H   UNL     1      48.393   0.633   5.909  0.00  0.00    +0.000 HD
ENDBRANCH  22  25
ENDBRANCH  17  19
ENDBRANCH  16  17
ENDBRANCH   1  16
TORSDOF 6
ENDMDL
MODEL 2
REMARK VINA RESULT:    -7.034      1.460      2.541
REMARK INTER + INTRA:         -10.653
REMARK INTER:                  -9.823
REMARK INTRA:                  -0.830
REMARK UNBOUND:                -1.152
REMARK  Name = 
REMARK  7 active torsions:
REMARK  status: ('A' for Active; 'I' for Inactive)
REMARK    1  A    between atoms: C_1  and  C_2
REMARK    2  A    between atoms: C_3  and  C_4
REMARK    3  A    between atoms: C_4  and  C_5
REMARK    4  A    between atoms: C_5  and  N_6
REMARK    5  A    between atoms: N_6  and  C_7
REMARK    6  A    between atoms: C_10  and  C_11
REMARK    7  A    between atoms: C_19  and  N_20
REMARK                            x       y       z     vdW  Elec       q    Type
REMARK                         _______ _______ _______ _____ _____    ______ ____
ROOT
ATOM      1  C   UNL     1      45.055   4.919  11.938  0.00  0.00    +0.000 C 
ENDROOT
BRANCH   1   4
ATOM      2  C   UNL     1      47.418   5.330  13.747  0.00  0.00    +0.000 C 
ATOM      3  C   UNL     1      46.787   6.519  13.062  0.00  0.00    +0.000 A 
ATOM      4  C   UNL     1      45.664   6.294  12.204  0.00  0.00    +0.000 A 
ATOM      5  C   UNL     1      44.987   7.390  11.645  0.00  0.00    +0.000 A 
ATOM      6  C   UNL     1      45.426   8.680  11.876  0.00  0.00    +0.000 A 
ATOM      7  C   UNL     1      46.551   8.893  12.669  0.00  0.00    +0.000 A 
ATOM      8  C   UNL     1      47.259   7.848  13.303  0.00  0.00    +0.000 A 
BRANCH   8   9
ATOM      9  N   UNL     1      48.297   8.177  14.166  0.00  0.00    +0.000 N 
ATOM     10  C   UNL     1      49.729   8.133  13.837  0.00  0.00    +0.000 C 
ATOM     11  C   UNL     1      50.485   7.403  14.976  0.00  0.00    +0.000 C 
ATOM     12  N   UNL     1      50.307   8.053  16.295  0.00  0.00    +0.000 NA
ATOM     13  C   UNL     1      48.859   8.164  16.578  0.00  0.00    +0.000 C 
ATOM     14  C   UNL     1      48.040   8.848  15.457  0.00  0.00    +0.000 C 
ATOM     15  H   UNL     1      50.686   8.997  16.231  0.00  0.00    +0.000 HD
ENDBRANCH   8   9
ENDBRANCH   1   4
BRANCH   1  16
ATOM     16  C   UNL     1      43.936   5.039  10.897  0.00  0.00    +0.000 C 
BRANCH  16  17
ATOM     17  N   UNL     1      43.628   3.767  10.224  0.00  0.00    +0.000 N 
ATOM     18  H   UNL     1      42.712   3.770   9.780  0.00  0.00    +0.000 HD
BRANCH  17  19
ATOM     19  C   UNL     1      44.624   3.313   9.328  0.00  0.00    +0.000 A 
ATOM     20  C   UNL     1      45.026   1.972   9.265  0.00  0.00    +0.000 A 
ATOM     21  C   UNL     1      46.003   1.537   8.368  0.00  0.00    +0.000 A 
ATOM     22  C   UNL     1      46.572   2.431   7.467  0.00  0.00    +0.000 A 
ATOM     23  C   UNL     1      46.143   3.762   7.460  0.00  0.00    +0.000 A 
ATOM     24  C   UNL     1      45.162   4.190   8.374  0.00  0.00    +0.000 A 
BRANCH  22  25
ATOM     25  C   UNL     1      47.629   1.906   6.560  0.00  0.00    +0.000 C 
ATOM     26  N   UNL     1      48.722   2.692   6.340  0.00  0.00    +0.000 N 
ATOM     27  O   UNL     1      47.508   0.828   5.988  0.00  0.00    +0.000 OA
ATOM     28  H   UNL     1      48.733   3.674   6.566  0.00  0.00    +0.000 HD
ATOM     29  H   UNL     1      49.350   2.371   5.609  0.00  0.00    +0.000 HD
ENDBRANCH  22  25
ENDBRANCH  17  19
ENDBRANCH  16  17
ENDBRANCH   1  16
TORSDOF 6
ENDMDL
MODEL 3
REMARK VINA RESULT:    -7.019      4.353      7.898
REMARK INTER + INTRA:         -10.634
REMARK INTER:                  -9.552
REMARK INTRA:                  -1.082
REMARK UNBOUND:                -1.152
REMARK  Name = 
REMARK  7 active torsions:
REMARK  status: ('A' for Active; 'I' for Inactive)
REMARK    1  A    between atoms: C_1  and  C_2
REMARK    2  A    between atoms: C_3  and  C_4
REMARK    3  A    between atoms: C_4  and  C_5
REMARK    4  A    between atoms: C_5  and  N_6
REMARK    5  A    between atoms: N_6  and  C_7
REMARK    6  A    between atoms: C_10  and  C_11
REMARK    7  A    between atoms: C_19  and  N_20
REMARK                            x       y       z     vdW  Elec       q    Type
REMARK                         _______ _______ _______ _____ _____    ______ ____
ROOT
ATOM      1  C   UNL     1      48.743   6.522  14.576  0.00  0.00    +0.000 C 
ENDROOT
BRANCH   1   4
ATOM      2  C   UNL     1      47.038   4.254  13.589  0.00  0.00    +0.000 C 
ATOM      3  C   UNL     1      46.600   5.679  13.342  0.00  0.00    +0.000 A 
ATOM      4  C   UNL     1      47.431   6.740  13.826  0.00  0.00    +0.000 A 
ATOM      5  C   UNL     1      47.110   8.070  13.513  0.00  0.00    +0.000 A 
ATOM      6  C   UNL     1      45.973   8.367  12.786  0.00  0.00    +0.000 A 
ATOM      7  C   UNL     1      45.138   7.335  12.362  0.00  0.00    +0.000 A 
ATOM      8  C   UNL     1      45.415   5.970  12.597  0.00  0.00    +0.000 A 
BRANCH   8   9
ATOM      9  N   UNL     1      44.579   5.015  12.031  0.00  0.00    +0.000 N 
ATOM     10  C   UNL     1      43.447   4.364  12.705  0.00  0.00    +0.000 C 
ATOM     11  C   UNL     1      43.529   2.835  12.463  0.00  0.00    +0.000 C 
ATOM     12  N   UNL     1      43.513   2.477  11.026  0.00  0.00    +0.000 NA
ATOM     13  C   UNL     1      44.608   3.202  10.344  0.00  0.00    +0.000 C 
ATOM     14  C   UNL     1      44.606   4.732  10.581  0.00  0.00    +0.000 C 
ATOM     15  H   UNL     1      42.631   2.804  10.633  0.00  0.00    +0.000 HD
ENDBRANCH   8   9
ENDBRANCH   1   4
BRANCH   1  16
ATOM     16  C   UNL     1      48.527   6.747  16.077  0.00  0.00    +0.000 C 
BRANCH  16  17
ATOM     17  N   UNL     1      48.034   5.551  16.779  0.00  0.00    +0.000 N 
ATOM     18  H   UNL     1      47.186   5.173  16.362  0.00  0.00    +0.000 HD
BRANCH  17  19
ATOM     19  C   UNL     1      48.999   4.535  16.973  0.00  0.00    +0.000 A 
ATOM     20  C   UNL     1      50.293   4.804  17.437  0.00  0.00    +0.000 A 
ATOM     21  C   UNL     1      51.231   3.789  17.633  0.00  0.00    +0.000 A 
ATOM     22  C   UNL     1      50.880   2.461  17.416  0.00  0.00    +0.000 A 
ATOM     23  C   UNL     1      49.576   2.155  17.017  0.00  0.00    +0.000 A 
ATOM     24  C   UNL     1      48.640   3.187  16.816  0.00  0.00    +0.000 A 
BRANCH  22  25
ATOM     25  C   UNL     1      51.939   1.434  17.616  0.00  0.00    +0.000 C 
ATOM     26  N   UNL     1      51.559   0.224  18.120  0.00  0.00    +0.000 N 
ATOM     27  O   UNL     1      53.118   1.672  17.384  0.00  0.00    +0.000 OA
ATOM     28  H   UNL     1      50.668   0.084  18.570  0.00  0.00    +0.000 HD
ATOM     29  H   UNL     1      52.318  -0.398  18.379  0.00  0.00    +0.000 HD
ENDBRANCH  22  25
ENDBRANCH  17  19
ENDBRANCH  16  17
ENDBRANCH   1  16
TORSDOF 6
ENDMDL
MODEL 4
REMARK VINA RESULT:    -6.327      1.396      2.617
REMARK INTER + INTRA:          -9.699
REMARK INTER:                  -9.026
REMARK INTRA:                  -0.673
REMARK UNBOUND:                -1.152
REMARK  Name = 
REMARK  7 active torsions:
REMARK  status: ('A' for Active; 'I' for Inactive)
REMARK    1  A    between atoms: C_1  and  C_2
REMARK    2  A    between atoms: C_3  and  C_4
REMARK    3  A    between atoms: C_4  and  C_5
REMARK    4  A    between atoms: C_5  and  N_6
REMARK    5  A    between atoms: N_6  and  C_7
REMARK    6  A    between atoms: C_10  and  C_11
REMARK    7  A    between atoms: C_19  and  N_20
REMARK                            x       y       z     vdW  Elec       q    Type
REMARK                         _______ _______ _______ _____ _____    ______ ____
ROOT
ATOM      1  C   UNL     1      45.313   5.664  11.950  0.00  0.00    +0.000 C 
ENDROOT
BRANCH   1   4
ATOM      2  C   UNL     1      48.107   6.431  12.744  0.00  0.00    +0.000 C 
ATOM      3  C   UNL     1      47.126   7.505  12.337  0.00  0.00    +0.000 A 
ATOM      4  C   UNL     1      45.802   7.111  11.961  0.00  0.00    +0.000 A 
ATOM      5  C   UNL     1      44.837   8.093  11.689  0.00  0.00    +0.000 A 
ATOM      6  C   UNL     1      45.167   9.434  11.730  0.00  0.00    +0.000 A 
ATOM      7  C   UNL     1      46.469   9.813  12.045  0.00  0.00    +0.000 A 
ATOM      8  C   UNL     1      47.485   8.889  12.375  0.00  0.00    +0.000 A 
BRANCH   8   9
ATOM      9  N   UNL     1      48.720   9.376  12.786  0.00  0.00    +0.000 N 
ATOM     10  C   UNL     1      49.107   9.660  14.175  0.00  0.00    +0.000 C 
ATOM     11  C   UNL     1      49.773  11.059  14.236  0.00  0.00    +0.000 C 
ATOM     12  N   UNL     1      50.965  11.168  13.365  0.00  0.00    +0.000 NA
ATOM     13  C   UNL     1      50.580  10.802  11.984  0.00  0.00    +0.000 C 
ATOM     14  C   UNL     1      49.871   9.431  11.861  0.00  0.00    +0.000 C 
ATOM     15  H   UNL     1      51.651  10.487  13.688  0.00  0.00    +0.000 HD
ENDBRANCH   8   9
ENDBRANCH   1   4
BRANCH   1  16
ATOM     16  C   UNL     1      44.170   5.510  10.940  0.00  0.00    +0.000 C 
BRANCH  16  17
ATOM     17  N   UNL     1      43.928   4.113  10.544  0.00  0.00    +0.000 N 
ATOM     18  H   UNL     1      42.950   3.930  10.329  0.00  0.00    +0.000 HD
BRANCH  17  19
ATOM     19  C   UNL     1      44.772   3.631   9.517  0.00  0.00    +0.000 A 
ATOM     20  C   UNL     1      45.472   4.485   8.655  0.00  0.00    +0.000 A 
ATOM     21  C   UNL     1      46.309   3.994   7.652  0.00  0.00    +0.000 A 
ATOM     22  C   UNL     1      46.510   2.624   7.517  0.00  0.00    +0.000 A 
ATOM     23  C   UNL     1      45.878   1.750   8.406  0.00  0.00    +0.000 A 
ATOM     24  C   UNL     1      45.030   2.256   9.408  0.00  0.00    +0.000 A 
BRANCH  22  25
ATOM     25  C   UNL     1      47.393   2.170   6.408  0.00  0.00    +0.000 C 
ATOM     26  N   UNL     1      47.455   2.950   5.289  0.00  0.00    +0.000 N 
ATOM     27  O   UNL     1      48.008   1.112   6.467  0.00  0.00    +0.000 OA
ATOM     28  H   UNL     1      46.773   3.665   5.093  0.00  0.00    +0.000 HD
ATOM     29  H   UNL     1      47.947   2.542   4.501  0.00  0.00    +0.000 HD
ENDBRANCH  22  25
ENDBRANCH  17  19
ENDBRANCH  16  17
ENDBRANCH   1  16
TORSDOF 6
ENDMDL
MODEL 5
REMARK VINA RESULT:    -6.160      3.442      6.439
REMARK INTER + INTRA:          -9.472
REMARK INTER:                  -7.850
REMARK INTRA:                  -1.622
REMARK UNBOUND:                -1.152
REMARK  Name = 
REMARK  7 active torsions:
REMARK  status: ('A' for Active; 'I' for Inactive)
REMARK    1  A    between atoms: C_1  and  C_2
REMARK    2  A    between atoms: C_3  and  C_4
REMARK    3  A    between atoms: C_4  and  C_5
REMARK    4  A    between atoms: C_5  and  N_6
REMARK    5  A    between atoms: N_6  and  C_7
REMARK    6  A    between atoms: C_10  and  C_11
REMARK    7  A    between atoms: C_19  and  N_20
REMARK                            x       y       z     vdW  Elec       q    Type
REMARK                         _______ _______ _______ _____ _____    ______ ____
ROOT
ATOM      1  C   UNL     1      48.259   9.379  12.708  0.00  0.00    +0.000 C 
ENDROOT
BRANCH   1   4
ATOM      2  C   UNL     1      45.264   9.539  12.537  0.00  0.00    +0.000 C 
ATOM      3  C   UNL     1      46.110  10.454  11.684  0.00  0.00    +0.000 A 
ATOM      4  C   UNL     1      47.535  10.357  11.787  0.00  0.00    +0.000 A 
ATOM      5  C   UNL     1      48.346  11.112  10.925  0.00  0.00    +0.000 A 
ATOM      6  C   UNL     1      47.782  11.984  10.013  0.00  0.00    +0.000 A 
ATOM      7  C   UNL     1      46.397  12.115   9.951  0.00  0.00    +0.000 A 
ATOM      8  C   UNL     1      45.512  11.359  10.752  0.00  0.00    +0.000 A 
BRANCH   8   9
ATOM      9  N   UNL     1      44.146  11.481  10.530  0.00  0.00    +0.000 N 
ATOM     10  C   UNL     1      43.304  12.599  10.980  0.00  0.00    +0.000 C 
ATOM     11  C   UNL     1      42.026  12.029  11.648  0.00  0.00    +0.000 C 
ATOM     12  N   UNL     1      41.241  11.160  10.741  0.00  0.00    +0.000 NA
ATOM     13  C   UNL     1      42.121  10.085  10.232  0.00  0.00    +0.000 C 
ATOM     14  C   UNL     1      43.437  10.589   9.589  0.00  0.00    +0.000 C 
ATOM     15  H   UNL     1      40.946  11.725   9.945  0.00  0.00    +0.000 HD
ENDBRANCH   8   9
ENDBRANCH   1   4
BRANCH   1  16
ATOM     16  C   UNL     1      48.761   8.177  11.898  0.00  0.00    +0.000 C 
BRANCH  16  17
ATOM     17  N   UNL     1      48.437   6.882  12.518  0.00  0.00    +0.000 N 
ATOM     18  H   UNL     1      48.661   6.855  13.511  0.00  0.00    +0.000 HD
BRANCH  17  19
ATOM     19  C   UNL     1      47.120   6.424  12.282  0.00  0.00    +0.000 A 
ATOM     20  C   UNL     1      46.264   6.026  13.318  0.00  0.00    +0.000 A 
ATOM     21  C   UNL     1      44.963   5.586  13.070  0.00  0.00    +0.000 A 
ATOM     22  C   UNL     1      44.462   5.581  11.773  0.00  0.00    +0.000 A 
ATOM     23  C   UNL     1      45.269   6.036  10.726  0.00  0.00    +0.000 A 
ATOM     24  C   UNL     1      46.582   6.470  10.987  0.00  0.00    +0.000 A 
BRANCH  22  25
ATOM     25  C   UNL     1      43.077   5.071  11.578  0.00  0.00    +0.000 C 
ATOM     26  N   UNL     1      42.048   5.950  11.761  0.00  0.00    +0.000 N 
ATOM     27  O   UNL     1      42.855   3.897  11.310  0.00  0.00    +0.000 OA
ATOM     28  H   UNL     1      42.170   6.829  12.237  0.00  0.00    +0.000 HD
ATOM     29  H   UNL     1      41.120   5.539  11.764  0.00  0.00    +0.000 HD
ENDBRANCH  22  25
ENDBRANCH  17  19
ENDBRANCH  16  17
ENDBRANCH   1  16
TORSDOF 6
ENDMDL
MODEL 6
REMARK VINA RESULT:    -6.118      3.551      7.145
REMARK INTER + INTRA:          -9.416
REMARK INTER:                  -8.162
REMARK INTRA:                  -1.254
REMARK UNBOUND:                -1.152
REMARK  Name = 
REMARK  7 active torsions:
REMARK  status: ('A' for Active; 'I' for Inactive)
REMARK    1  A    between atoms: C_1  and  C_2
REMARK    2  A    between atoms: C_3  and  C_4
REMARK    3  A    between atoms: C_4  and  C_5
REMARK    4  A    between atoms: C_5  and  N_6
REMARK    5  A    between atoms: N_6  and  C_7
REMARK    6  A    between atoms: C_10  and  C_11
REMARK    7  A    between atoms: C_19  and  N_20
REMARK                            x       y       z     vdW  Elec       q    Type
REMARK                         _______ _______ _______ _____ _____    ______ ____
ROOT
ATOM      1  C   UNL     1      48.619   8.150  12.335  0.00  0.00    +0.000 C 
ENDROOT
BRANCH   1   4
ATOM      2  C   UNL     1      46.317   6.641  11.131  0.00  0.00    +0.000 C 
ATOM      3  C   UNL     1      46.875   6.209  12.467  0.00  0.00    +0.000 A 
ATOM      4  C   UNL     1      47.973   6.945  13.016  0.00  0.00    +0.000 A 
ATOM      5  C   UNL     1      48.438   6.640  14.305  0.00  0.00    +0.000 A 
ATOM      6  C   UNL     1      47.878   5.603  15.027  0.00  0.00    +0.000 A 
ATOM      7  C   UNL     1      46.844   4.855  14.469  0.00  0.00    +0.000 A 
ATOM      8  C   UNL     1      46.291   5.128  13.198  0.00  0.00    +0.000 A 
BRANCH   8   9
ATOM      9  N   UNL     1      45.186   4.395  12.783  0.00  0.00    +0.000 N 
ATOM     10  C   UNL     1      45.229   3.089  12.111  0.00  0.00    +0.000 C 
ATOM     11  C   UNL     1      44.285   3.123  10.882  0.00  0.00    +0.000 C 
ATOM     12  N   UNL     1      42.884   3.441  11.240  0.00  0.00    +0.000 NA
ATOM     13  C   UNL     1      42.863   4.719  11.987  0.00  0.00    +0.000 C 
ATOM     14  C   UNL     1      43.818   4.763  13.205  0.00  0.00    +0.000 C 
ATOM     15  H   UNL     1      42.548   2.709  11.865  0.00  0.00    +0.000 HD
ENDBRANCH   8   9
ENDBRANCH   1   4
BRANCH   1  16
ATOM     16  C   UNL     1      48.302   9.425  13.126  0.00  0.00    +0.000 C 
BRANCH  16  17
ATOM     17  N   UNL     1      47.884  10.550  12.272  0.00  0.00    +0.000 N 
ATOM     18  H   UNL     1      48.532  10.722  11.506  0.00  0.00    +0.000 HD
BRANCH  17  19
ATOM     19  C   UNL     1      46.552  10.478  11.804  0.00  0.00    +0.000 A 
ATOM     20  C   UNL     1      45.569   9.710  12.441  0.00  0.00    +0.000 A 
ATOM     21  C   UNL     1      44.256   9.657  11.972  0.00  0.00    +0.000 A 
ATOM     22  C   UNL     1      43.875  10.419  10.873  0.00  0.00    +0.000 A 
ATOM     23  C   UNL     1      44.817  11.247  10.256  0.00  0.00    +0.000 A 
ATOM     24  C   UNL     1      46.140  11.287  10.733  0.00  0.00    +0.000 A 
BRANCH  22  25
ATOM     25  C   UNL     1      42.466  10.292  10.409  0.00  0.00    +0.000 C 
ATOM     26  N   UNL     1      41.679   9.363  11.026  0.00  0.00    +0.000 N 
ATOM     27  O   UNL     1      42.034  10.958   9.476  0.00  0.00    +0.000 OA
ATOM     28  H   UNL     1      42.062   8.625  11.594  0.00  0.00    +0.000 HD
ATOM     29  H   UNL     1      40.775   9.201  10.592  0.00  0.00    +0.000 HD
ENDBRANCH  22  25
ENDBRANCH  17  19
ENDBRANCH  16  17
ENDBRANCH   1  16
TORSDOF 6
ENDMDL
MODEL 7
REMARK VINA RESULT:    -6.066      3.574      5.223
REMARK INTER + INTRA:          -9.346
REMARK INTER:                  -8.353
REMARK INTRA:                  -0.993
REMARK UNBOUND:                -1.152
REMARK  Name = 
REMARK  7 active torsions:
REMARK  status: ('A' for Active; 'I' for Inactive)
REMARK    1  A    between atoms: C_1  and  C_2
REMARK    2  A    between atoms: C_3  and  C_4
REMARK    3  A    between atoms: C_4  and  C_5
REMARK    4  A    between atoms: C_5  and  N_6
REMARK    5  A    between atoms: N_6  and  C_7
REMARK    6  A    between atoms: C_10  and  C_11
REMARK    7  A    between atoms: C_19  and  N_20
REMARK                            x       y       z     vdW  Elec       q    Type
REMARK                         _______ _______ _______ _____ _____    ______ ____
ROOT
ATOM      1  C   UNL     1      47.754   7.415  13.101  0.00  0.00    +0.000 C 
ENDROOT
BRANCH   1   4
ATOM      2  C   UNL     1      49.371   7.765  15.609  0.00  0.00    +0.000 C 
ATOM      3  C   UNL     1      48.540   6.517  15.424  0.00  0.00    +0.000 A 
ATOM      4  C   UNL     1      47.778   6.377  14.221  0.00  0.00    +0.000 A 
ATOM      5  C   UNL     1      47.090   5.180  13.971  0.00  0.00    +0.000 A 
ATOM      6  C   UNL     1      47.099   4.156  14.898  0.00  0.00    +0.000 A 
ATOM      7  C   UNL     1      47.798   4.315  16.092  0.00  0.00    +0.000 A 
ATOM      8  C   UNL     1      48.553   5.470  16.399  0.00  0.00    +0.000 A 
BRANCH   8   9
ATOM      9  N   UNL     1      49.307   5.481  17.565  0.00  0.00    +0.000 N 
ATOM     10  C   UNL     1      50.764   5.302  17.643  0.00  0.00    +0.000 C 
ATOM     11  C   UNL     1      51.086   4.271  18.754  0.00  0.00    +0.000 C 
ATOM     12  N   UNL     1      50.573   4.676  20.083  0.00  0.00    +0.000 NA
ATOM     13  C   UNL     1      49.119   4.930  19.973  0.00  0.00    +0.000 C 
ATOM     14  C   UNL     1      48.728   5.922  18.851  0.00  0.00    +0.000 C 
ATOM     15  H   UNL     1      51.024   5.554  20.338  0.00  0.00    +0.000 HD
ENDBRANCH   8   9
ENDBRANCH   1   4
BRANCH   1  16
ATOM     16  C   UNL     1      46.444   8.209  13.155  0.00  0.00    +0.000 C 
BRANCH  16  17
ATOM     17  N   UNL     1      45.628   8.070  11.938  0.00  0.00    +0.000 N 
ATOM     18  H   UNL     1      46.080   8.467  11.116  0.00  0.00    +0.000 HD
BRANCH  17  19
ATOM     19  C   UNL     1      45.166   6.759  11.678  0.00  0.00    +0.000 A 
ATOM     20  C   UNL     1      45.677   5.972  10.638  0.00  0.00    +0.000 A 
ATOM     21  C   UNL     1      45.218   4.676  10.401  0.00  0.00    +0.000 A 
ATOM     22  C   UNL     1      44.263   4.108  11.238  0.00  0.00    +0.000 A 
ATOM     23  C   UNL     1      43.783   4.844  12.325  0.00  0.00    +0.000 A 
ATOM     24  C   UNL     1      44.249   6.153  12.550  0.00  0.00    +0.000 A 
BRANCH  22  25
ATOM     25  C   UNL     1      43.798   2.733  10.909  0.00  0.00    +0.000 C 
ATOM     26  N   UNL     1      44.385   2.104   9.849  0.00  0.00    +0.000 N 
ATOM     27  O   UNL     1      42.889   2.196  11.530  0.00  0.00    +0.000 OA
ATOM     28  H   UNL     1      44.927   2.601   9.161  0.00  0.00    +0.000 HD
ATOM     29  H   UNL     1      43.947   1.233   9.563  0.00  0.00    +0.000 HD
ENDBRANCH  22  25
ENDBRANCH  17  19
ENDBRANCH  16  17
ENDBRANCH   1  16
TORSDOF 6
ENDMDL
MODEL 8
REMARK VINA RESULT:    -5.834      3.726      5.711
REMARK INTER + INTRA:          -9.032
REMARK INTER:                  -8.040
REMARK INTRA:                  -0.992
REMARK UNBOUND:                -1.152
REMARK  Name = 
REMARK  7 active torsions:
REMARK  status: ('A' for Active; 'I' for Inactive)
REMARK    1  A    between atoms: C_1  and  C_2
REMARK    2  A    between atoms: C_3  and  C_4
REMARK    3  A    between atoms: C_4  and  C_5
REMARK    4  A    between atoms: C_5  and  N_6
REMARK    5  A    between atoms: N_6  and  C_7
REMARK    6  A    between atoms: C_10  and  C_11
REMARK    7  A    between atoms: C_19  and  N_20
REMARK                            x       y       z     vdW  Elec       q    Type
REMARK                         _______ _______ _______ _____ _____    ______ ____
ROOT
ATOM      1  C   UNL     1      48.465   6.711  13.164  0.00  0.00    +0.000 C 
ENDROOT
BRANCH   1   4
ATOM      2  C   UNL     1      47.589   4.921  15.412  0.00  0.00    +0.000 C 
ATOM      3  C   UNL     1      48.475   6.109  15.706  0.00  0.00    +0.000 A 
ATOM      4  C   UNL     1      48.879   6.943  14.615  0.00  0.00    +0.000 A 
ATOM      5  C   UNL     1      49.605   8.117  14.872  0.00  0.00    +0.000 A 
ATOM      6  C   UNL     1      49.977   8.446  16.161  0.00  0.00    +0.000 A 
ATOM      7  C   UNL     1      49.628   7.605  17.214  0.00  0.00    +0.000 A 
ATOM      8  C   UNL     1      48.860   6.431  17.045  0.00  0.00    +0.000 A 
BRANCH   8   9
ATOM      9  N   UNL     1      48.467   5.724  18.175  0.00  0.00    +0.000 N 
ATOM     10  C   UNL     1      47.161   5.832  18.840  0.00  0.00    +0.000 C 
ATOM     11  C   UNL     1      47.384   5.985  20.366  0.00  0.00    +0.000 C 
ATOM     12  N   UNL     1      48.140   4.856  20.955  0.00  0.00    +0.000 NA
ATOM     13  C   UNL     1      49.418   4.707  20.224  0.00  0.00    +0.000 C 
ATOM     14  C   UNL     1      49.265   4.591  18.688  0.00  0.00    +0.000 C 
ATOM     15  H   UNL     1      47.596   4.006  20.808  0.00  0.00    +0.000 HD
ENDBRANCH   8   9
ENDBRANCH   1   4
BRANCH   1  16
ATOM     16  C   UNL     1      47.562   7.856  12.691  0.00  0.00    +0.000 C 
BRANCH  16  17
ATOM     17  N   UNL     1      46.139   7.640  12.999  0.00  0.00    +0.000 N 
ATOM     18  H   UNL     1      45.558   8.438  12.748  0.00  0.00    +0.000 HD
BRANCH  17  19
ATOM     19  C   UNL     1      45.596   6.438  12.490  0.00  0.00    +0.000 A 
ATOM     20  C   UNL     1      44.912   5.519  13.296  0.00  0.00    +0.000 A 
ATOM     21  C   UNL     1      44.373   4.341  12.776  0.00  0.00    +0.000 A 
ATOM     22  C   UNL     1      44.461   4.074  11.414  0.00  0.00    +0.000 A 
ATOM     23  C   UNL     1      45.079   5.004  10.573  0.00  0.00    +0.000 A 
ATOM     24  C   UNL     1      45.625   6.185  11.110  0.00  0.00    +0.000 A 
BRANCH  22  25
ATOM     25  C   UNL     1      43.890   2.786  10.933  0.00  0.00    +0.000 C 
ATOM     26  N   UNL     1      44.489   2.190   9.861  0.00  0.00    +0.000 N 
ATOM     27  O   UNL     1      42.891   2.294  11.444  0.00  0.00    +0.000 OA
ATOM     28  H   UNL     1      45.126   2.684   9.257  0.00  0.00    +0.000 HD
ATOM     29  H   UNL     1      43.993   1.395   9.470  0.00  0.00    +0.000 HD
ENDBRANCH  22  25
ENDBRANCH  17  19
ENDBRANCH  16  17
ENDBRANCH   1  16
TORSDOF 6
ENDMDL
MODEL 9
REMARK VINA RESULT:    -5.429      5.197      8.528
REMARK INTER + INTRA:          -8.485
REMARK INTER:                  -7.555
REMARK INTRA:                  -0.930
REMARK UNBOUND:                -1.152
REMARK  Name = 
REMARK  7 active torsions:
REMARK  status: ('A' for Active; 'I' for Inactive)
REMARK    1  A    between atoms: C_1  and  C_2
REMARK    2  A    between atoms: C_3  and  C_4
REMARK    3  A    between atoms: C_4  and  C_5
REMARK    4  A    between atoms: C_5  and  N_6
REMARK    5  A    between atoms: N_6  and  C_7
REMARK    6  A    between atoms: C_10  and  C_11
REMARK    7  A    between atoms: C_19  and  N_20
REMARK                            x       y       z     vdW  Elec       q    Type
REMARK                         _______ _______ _______ _____ _____    ______ ____
ROOT
ATOM      1  C   UNL     1      44.458   9.914  12.020  0.00  0.00    +0.000 C 
ENDROOT
BRANCH   1   4
ATOM      2  C   UNL     1      43.365   7.199  11.338  0.00  0.00    +0.000 C 
ATOM      3  C   UNL     1      44.842   7.362  11.610  0.00  0.00    +0.000 A 
ATOM      4  C   UNL     1      45.335   8.667  11.930  0.00  0.00    +0.000 A 
ATOM      5  C   UNL     1      46.680   8.829  12.300  0.00  0.00    +0.000 A 
ATOM      6  C   UNL     1      47.542   7.749  12.308  0.00  0.00    +0.000 A 
ATOM      7  C   UNL     1      47.071   6.489  11.945  0.00  0.00    +0.000 A 
ATOM      8  C   UNL     1      45.723   6.236  11.605  0.00  0.00    +0.000 A 
BRANCH   8   9
ATOM      9  N   UNL     1      45.332   4.924  11.371  0.00  0.00    +0.000 N 
ATOM     10  C   UNL     1      45.320   4.256  10.062  0.00  0.00    +0.000 C 
ATOM     11  C   UNL     1      43.963   3.528   9.880  0.00  0.00    +0.000 C 
ATOM     12  N   UNL     1      43.699   2.528  10.941  0.00  0.00    +0.000 NA
ATOM     13  C   UNL     1      43.794   3.196  12.258  0.00  0.00    +0.000 C 
ATOM     14  C   UNL     1      45.111   3.977  12.485  0.00  0.00    +0.000 C 
ATOM     15  H   UNL     1      44.434   1.824  10.895  0.00  0.00    +0.000 HD
ENDBRANCH   8   9
ENDBRANCH   1   4
BRANCH   1  16
ATOM     16  C   UNL     1      44.675  10.792  10.782  0.00  0.00    +0.000 C 
BRANCH  16  17
ATOM     17  N   UNL     1      43.451  10.993   9.989  0.00  0.00    +0.000 N 
ATOM     18  H   UNL     1      43.327  10.281   9.272  0.00  0.00    +0.000 HD
BRANCH  17  19
ATOM     19  C   UNL     1      42.270  11.157  10.750  0.00  0.00    +0.000 A 
ATOM     20  C   UNL     1      42.016  12.307  11.509  0.00  0.00    +0.000 A 
ATOM     21  C   UNL     1      40.841  12.458  12.246  0.00  0.00    +0.000 A 
ATOM     22  C   UNL     1      39.857  11.476  12.203  0.00  0.00    +0.000 A 
ATOM     23  C   UNL     1      40.053  10.348  11.402  0.00  0.00    +0.000 A 
ATOM     24  C   UNL     1      41.244  10.203  10.668  0.00  0.00    +0.000 A 
BRANCH  22  25
ATOM     25  C   UNL     1      38.643  11.690  13.037  0.00  0.00    +0.000 C 
ATOM     26  N   UNL     1      37.435  11.371  12.488  0.00  0.00    +0.000 N 
ATOM     27  O   UNL     1      38.711  12.177  14.159  0.00  0.00    +0.000 OA
ATOM     28  H   UNL     1      37.314  11.230  11.498  0.00  0.00    +0.000 HD
ATOM     29  H   UNL     1      36.623  11.662  13.024  0.00  0.00    +0.000 HD
ENDBRANCH  22  25
ENDBRANCH  17  19
ENDBRANCH  16  17
ENDBRANCH   1  16
TORSDOF 6
ENDMDL
