MODEL 1
REMARK VINA RESULT:    -7.859      0.000      0.000
REMARK INTER + INTRA:         -11.152
REMARK INTER:                 -10.156
REMARK INTRA:                  -0.996
REMARK UNBOUND:                -0.996
REMARK  Name = 
REMARK  7 active torsions:
REMARK  status: ('A' for Active; 'I' for Inactive)
REMARK    1  A    between atoms: C_1  and  C_2
REMARK    2  A    between atoms: C_2  and  C_3
REMARK    3  A    between atoms: C_2  and  N_16
REMARK    4  A    between atoms: C_3  and  C_4
REMARK    5  A    between atoms: C_8  and  C_9
REMARK    6  A    between atoms: N_16  and  C_17
REMARK    7  A    between atoms: C_21  and  C_22
REMARK                            x       y       z     vdW  Elec       q    Type
REMARK                         _______ _______ _______ _____ _____    ______ ____
ROOT
ATOM      1  C   UNL     1      47.688   8.335  11.578  0.00  0.00    +0.000 C 
ATOM      2  C   UNL     1      47.276   7.178  12.498  0.00  0.00    +0.000 C 
ENDROOT
BRANCH   2   3
ATOM      3  N   UNL     1      48.163   7.108  13.671  0.00  0.00    +0.000 N 
ATOM      4  C   UNL     1      49.302   7.994  13.850  0.00  0.00    +0.000 C 
ATOM      5  C   UNL     1      48.036   6.116  14.645  0.00  0.00    +0.000 A 
ATOM      6  C   UNL     1      47.341   4.925  14.415  0.00  0.00    +0.000 A 
ATOM      7  C   UNL     1      47.194   3.978  15.429  0.00  0.00    +0.000 A 
ATOM      8  C   UNL     1      47.731   4.221  16.689  0.00  0.00    +0.000 A 
ATOM      9  C   UNL     1      48.432   5.402  16.845  0.00  0.00    +0.000 A 
ATOM     10  N   UNL     1      48.598   6.324  15.857  0.00  0.00    +0.000 NA
BRANCH   8  11
ATOM     11  C   UNL     1      47.518   3.222  17.764  0.00  0.00    +0.000 C 
ATOM     12  N   UNL     1      48.393   3.163  18.810  0.00  0.00    +0.000 N 
ATOM     13  O   UNL     1      46.560   2.455  17.730  0.00  0.00    +0.000 OA
ATOM     14  H   UNL     1      49.197   3.760  18.945  0.00  0.00    +0.000 HD
ATOM     15  H   UNL     1      48.186   2.485  19.530  0.00  0.00    +0.000 HD
ENDBRANCH   8  11
ENDBRANCH   2   3
BRANCH   2  16
ATOM     16  C   UNL     1      45.776   7.247  12.890  0.00  0.00    +0.000 C 
BRANCH  16  17
ATOM     17  C   UNL     1      44.913   6.218  12.185  0.00  0.00    +0.000 A 
ATOM     18  C   UNL     1      43.546   6.115  12.458  0.00  0.00    +0.000 A 
ATOM     19  C   UNL     1      42.806   5.067  11.923  0.00  0.00    +0.000 A 
ATOM     20  C   UNL     1      43.405   4.173  11.036  0.00  0.00    +0.000 A 
ATOM     21  C   UNL     1      44.729   4.351  10.598  0.00  0.00    +0.000 A 
ATOM     22  C   UNL     1      45.486   5.349  11.239  0.00  0.00    +0.000 A 
BRANCH  21  23
ATOM     23  C   UNL     1      45.240   3.640   9.401  0.00  0.00    +0.000 A 
ATOM     24  C   UNL     1      45.827   4.383   8.355  0.00  0.00    +0.000 A 
ATOM     25  C   UNL     1      46.479   3.763   7.287  0.00  0.00    +0.000 A 
ATOM     26  C   UNL     1      46.561   2.380   7.235  0.00  0.00    +0.000 A 
ATOM     27  C   UNL     1      45.957   1.619   8.233  0.00  0.00    +0.000 A 
ATOM     28  C   UNL     1      45.296   2.241   9.302  0.00  0.00    +0.000 A 
ENDBRANCH  21  23
ENDBRANCH  16  17
ENDBRANCH   2  16
TORSDOF 5
ENDMDL
MODEL 2
REMARK VINA RESULT:    -6.835      3.646      4.535
REMARK INTER + INTRA:          -9.828
REMARK INTER:                  -9.958
REMARK INTRA:                   0.129
REMARK UNBOUND:                -0.996
REMARK  Name = 
REMARK  7 active torsions:
REMARK  status: ('A' for Active; 'I' for Inactive)
REMARK    1  A    between atoms: C_1  and  C_2
REMARK    2  A    between atoms: C_2  and  C_3
REMARK    3  A    between atoms: C_2  and  N_16
REMARK    4  A    between atoms: C_3  and  C_4
REMARK    5  A    between atoms: C_8  and  C_9
REMARK    6  A    between atoms: N_16  and  C_17
REMARK    7  A    between atoms: C_21  and  C_22
REMARK                            x       y       z     vdW  Elec       q    Type
REMARK                         _______ _______ _______ _____ _____    ______ ____
ROOT
ATOM      1  C   UNL     1      46.023   5.882  12.889  0.00  0.00    +0.000 C 
ATOM      2  C   UNL     1      45.036   7.004  12.539  0.00  0.00    +0.000 C 
ENDROOT
BRANCH   2   3
ATOM      3  N   UNL     1      45.733   8.297  12.445  0.00  0.00    +0.000 N 
ATOM      4  C   UNL     1      45.036   9.573  12.502  0.00  0.00    +0.000 C 
ATOM      5  C   UNL     1      47.102   8.391  12.189  0.00  0.00    +0.000 A 
ATOM      6  C   UNL     1      47.835   7.335  11.639  0.00  0.00    +0.000 A 
ATOM      7  C   UNL     1      49.211   7.449  11.442  0.00  0.00    +0.000 A 
ATOM      8  C   UNL     1      49.870   8.618  11.808  0.00  0.00    +0.000 A 
ATOM      9  C   UNL     1      49.087   9.636  12.318  0.00  0.00    +0.000 A 
ATOM     10  N   UNL     1      47.740   9.543  12.495  0.00  0.00    +0.000 NA
BRANCH   8  11
ATOM     11  C   UNL     1      51.341   8.695  11.635  0.00  0.00    +0.000 C 
ATOM     12  N   UNL     1      52.158   8.081  12.541  0.00  0.00    +0.000 N 
ATOM     13  O   UNL     1      51.832   9.294  10.683  0.00  0.00    +0.000 OA
ATOM     14  H   UNL     1      51.856   7.545  13.343  0.00  0.00    +0.000 HD
ATOM     15  H   UNL     1      53.150   8.138  12.361  0.00  0.00    +0.000 HD
ENDBRANCH   8  11
ENDBRANCH   2   3
BRANCH   2  16
ATOM     16  C   UNL     1      44.208   6.681  11.267  0.00  0.00    +0.000 C 
BRANCH  16  17
ATOM     17  C   UNL     1      44.153   5.202  10.934  0.00  0.00    +0.000 A 
ATOM     18  C   UNL     1      43.266   4.348  11.594  0.00  0.00    +0.000 A 
ATOM     19  C   UNL     1      43.339   2.974  11.391  0.00  0.00    +0.000 A 
ATOM     20  C   UNL     1      44.234   2.456  10.455  0.00  0.00    +0.000 A 
ATOM     21  C   UNL     1      45.014   3.298   9.643  0.00  0.00    +0.000 A 
ATOM     22  C   UNL     1      45.003   4.671   9.947  0.00  0.00    +0.000 A 
BRANCH  21  23
ATOM     23  C   UNL     1      45.675   2.781   8.420  0.00  0.00    +0.000 A 
ATOM     24  C   UNL     1      45.944   3.666   7.355  0.00  0.00    +0.000 A 
ATOM     25  C   UNL     1      46.715   3.282   6.255  0.00  0.00    +0.000 A 
ATOM     26  C   UNL     1      47.237   1.999   6.190  0.00  0.00    +0.000 A 
ATOM     27  C   UNL     1      46.955   1.091   7.207  0.00  0.00    +0.000 A 
ATOM     28  C   UNL     1      46.175   1.474   8.308  0.00  0.00    +0.000 A 
ENDBRANCH  21  23
ENDBRANCH  16  17
ENDBRANCH   2  16
TORSDOF 5
ENDMDL
MODEL 3
REMARK VINA RESULT:    -6.754      3.670      6.739
REMARK INTER + INTRA:          -9.724
REMARK INTER:                  -8.255
REMARK INTRA:                  -1.468
REMARK UNBOUND:                -0.996
REMARK  Name = 
REMARK  7 active torsions:
REMARK  status: ('A' for Active; 'I' for Inactive)
REMARK    1  A    between atoms: C_1  and  C_2
REMARK    2  A    between atoms: C_2  and  C_3
REMARK    3  A    between atoms: C_2  and  N_16
REMARK    4  A    between atoms: C_3  and  C_4
REMARK    5  A    between atoms: C_8  and  C_9
REMARK    6  A    between atoms: N_16  and  C_17
REMARK    7  A    between atoms: C_21  and  C_22
REMARK                            x       y       z     vdW  Elec       q    Type
REMARK                         _______ _______ _______ _____ _____    ______ ____
ROOT
ATOM      1  C   UNL     1      50.261   7.662  11.449  0.00  0.00    +0.000 C 
ATOM      2  C   UNL     1      48.846   8.158  11.780  0.00  0.00    +0.000 C 
ENDROOT
BRANCH   2   3
ATOM      3  N   UNL     1      48.181   7.239  12.718  0.00  0.00    +0.000 N 
ATOM      4  C   UNL     1      48.755   6.873  14.003  0.00  0.00    +0.000 C 
ATOM      5  C   UNL     1      46.999   6.569  12.395  0.00  0.00    +0.000 A 
ATOM      6  C   UNL     1      46.563   6.413  11.076  0.00  0.00    +0.000 A 
ATOM      7  C   UNL     1      45.352   5.780  10.796  0.00  0.00    +0.000 A 
ATOM      8  C   UNL     1      44.557   5.310  11.836  0.00  0.00    +0.000 A 
ATOM      9  C   UNL     1      45.057   5.467  13.115  0.00  0.00    +0.000 A 
ATOM     10  N   UNL     1      46.247   6.065  13.399  0.00  0.00    +0.000 NA
BRANCH   8  11
ATOM     11  C   UNL     1      43.251   4.686  11.515  0.00  0.00    +0.000 C 
ATOM     12  N   UNL     1      42.096   5.336  11.843  0.00  0.00    +0.000 N 
ATOM     13  O   UNL     1      43.196   3.599  10.948  0.00  0.00    +0.000 OA
ATOM     14  H   UNL     1      42.032   6.241  12.288  0.00  0.00    +0.000 HD
ATOM     15  H   UNL     1      41.235   4.882  11.575  0.00  0.00    +0.000 HD
ENDBRANCH   8  11
ENDBRANCH   2   3
BRANCH   2  16
ATOM     16  C   UNL     1      48.844   9.626  12.284  0.00  0.00    +0.000 C 
BRANCH  16  17
ATOM     17  C   UNL     1      47.964  10.551  11.465  0.00  0.00    +0.000 A 
ATOM     18  C   UNL     1      48.519  11.457  10.557  0.00  0.00    +0.000 A 
ATOM     19  C   UNL     1      47.713  12.403   9.934  0.00  0.00    +0.000 A 
ATOM     20  C   UNL     1      46.334  12.386  10.142  0.00  0.00    +0.000 A 
ATOM     21  C   UNL     1      45.719  11.378  10.906  0.00  0.00    +0.000 A 
ATOM     22  C   UNL     1      46.566  10.505  11.613  0.00  0.00    +0.000 A 
BRANCH  21  23
ATOM     23  C   UNL     1      44.257  11.143  10.826  0.00  0.00    +0.000 A 
ATOM     24  C   UNL     1      43.781   9.845  10.550  0.00  0.00    +0.000 A 
ATOM     25  C   UNL     1      42.424   9.524  10.633  0.00  0.00    +0.000 A 
ATOM     26  C   UNL     1      41.504  10.498  10.993  0.00  0.00    +0.000 A 
ATOM     27  C   UNL     1      41.940  11.798  11.234  0.00  0.00    +0.000 A 
ATOM     28  C   UNL     1      43.301  12.122  11.143  0.00  0.00    +0.000 A 
ENDBRANCH  21  23
ENDBRANCH  16  17
ENDBRANCH   2  16
TORSDOF 5
ENDMDL
MODEL 4
REMARK VINA RESULT:    -6.659      1.339      2.419
REMARK INTER + INTRA:          -9.602
REMARK INTER:                  -8.480
REMARK INTRA:                  -1.122
REMARK UNBOUND:                -0.996
REMARK  Name = 
REMARK  7 active torsions:
REMARK  status: ('A' for Active; 'I' for Inactive)
REMARK    1  A    between atoms: C_1  and  C_2
REMARK    2  A    between atoms: C_2  and  C_3
REMARK    3  A    between atoms: C_2  and  N_16
REMARK    4  A    between atoms: C_3  and  C_4
REMARK    5  A    between atoms: C_8  and  C_9
REMARK    6  A    between atoms: N_16  and  C_17
REMARK    7  A    between atoms: C_21  and  C_22
REMARK                            x       y       z     vdW  Elec       q    Type
REMARK                         _______ _______ _______ _____ _____    ______ ____
ROOT
ATOM      1  C   UNL     1      49.694   9.042  12.313  0.00  0.00    +0.000 C 
ATOM      2  C   UNL     1      48.795   8.136  13.165  0.00  0.00    +0.000 C 
ENDROOT
BRANCH   2   3
ATOM      3  N   UNL     1      49.523   7.649  14.349  0.00  0.00    +0.000 N 
ATOM      4  C   UNL     1      50.843   8.135  14.716  0.00  0.00    +0.000 C 
ATOM      5  C   UNL     1      49.042   6.608  15.145  0.00  0.00    +0.000 A 
ATOM      6  C   UNL     1      48.067   5.712  14.698  0.00  0.00    +0.000 A 
ATOM      7  C   UNL     1      47.576   4.714  15.540  0.00  0.00    +0.000 A 
ATOM      8  C   UNL     1      48.048   4.612  16.845  0.00  0.00    +0.000 A 
ATOM      9  C   UNL     1      49.033   5.507  17.217  0.00  0.00    +0.000 A 
ATOM     10  N   UNL     1      49.533   6.472  16.397  0.00  0.00    +0.000 NA
BRANCH   8  11
ATOM     11  C   UNL     1      47.474   3.575  17.735  0.00  0.00    +0.000 C 
ATOM     12  N   UNL     1      48.045   3.344  18.954  0.00  0.00    +0.000 N 
ATOM     13  O   UNL     1      46.487   2.929  17.395  0.00  0.00    +0.000 OA
ATOM     14  H   UNL     1      48.841   3.834  19.337  0.00  0.00    +0.000 HD
ATOM     15  H   UNL     1      47.597   2.649  19.534  0.00  0.00    +0.000 HD
ENDBRANCH   8  11
ENDBRANCH   2   3
BRANCH   2  16
ATOM     16  C   UNL     1      47.452   8.822  13.533  0.00  0.00    +0.000 C 
BRANCH  16  17
ATOM     17  C   UNL     1      46.315   8.481  12.591  0.00  0.00    +0.000 A 
ATOM     18  C   UNL     1      45.472   9.476  12.089  0.00  0.00    +0.000 A 
ATOM     19  C   UNL     1      44.342   9.129  11.357  0.00  0.00    +0.000 A 
ATOM     20  C   UNL     1      44.101   7.792  11.040  0.00  0.00    +0.000 A 
ATOM     21  C   UNL     1      45.022   6.783  11.372  0.00  0.00    +0.000 A 
ATOM     22  C   UNL     1      46.095   7.145  12.208  0.00  0.00    +0.000 A 
BRANCH  21  23
ATOM     23  C   UNL     1      44.957   5.448  10.730  0.00  0.00    +0.000 A 
ATOM     24  C   UNL     1      44.211   4.422  11.346  0.00  0.00    +0.000 A 
ATOM     25  C   UNL     1      43.969   3.203  10.708  0.00  0.00    +0.000 A 
ATOM     26  C   UNL     1      44.472   2.976   9.435  0.00  0.00    +0.000 A 
ATOM     27  C   UNL     1      45.246   3.955   8.819  0.00  0.00    +0.000 A 
ATOM     28  C   UNL     1      45.494   5.177   9.462  0.00  0.00    +0.000 A 
ENDBRANCH  21  23
ENDBRANCH  16  17
ENDBRANCH   2  16
TORSDOF 5
ENDMDL
MODEL 5
REMARK VINA RESULT:    -6.537      3.311      6.750
REMARK INTER + INTRA:          -9.444
REMARK INTER:                  -8.255
REMARK INTRA:                  -1.189
REMARK UNBOUND:                -0.996
REMARK  Name = 
REMARK  7 active torsions:
REMARK  status: ('A' for Active; 'I' for Inactive)
REMARK    1  A    between atoms: C_1  and  C_2
REMARK    2  A    between atoms: C_2  and  C_3
REMARK    3  A    between atoms: C_2  and  N_16
REMARK    4  A    between atoms: C_3  and  C_4
REMARK    5  A    between atoms: C_8  and  C_9
REMARK    6  A    between atoms: N_16  and  C_17
REMARK    7  A    between atoms: C_21  and  C_22
REMARK                            x       y       z     vdW  Elec       q    Type
REMARK                         _______ _______ _______ _____ _____    ______ ____
ROOT
ATOM      1  C   UNL     1      48.141  10.107  12.265  0.00  0.00    +0.000 C 
ATOM      2  C   UNL     1      48.009   9.128  13.440  0.00  0.00    +0.000 C 
ENDROOT
BRANCH   2   3
ATOM      3  N   UNL     1      48.134   7.737  12.972  0.00  0.00    +0.000 N 
ATOM      4  C   UNL     1      49.376   7.195  12.443  0.00  0.00    +0.000 C 
ATOM      5  C   UNL     1      47.043   6.870  12.906  0.00  0.00    +0.000 A 
ATOM      6  C   UNL     1      45.722   7.327  12.907  0.00  0.00    +0.000 A 
ATOM      7  C   UNL     1      44.656   6.427  12.889  0.00  0.00    +0.000 A 
ATOM      8  C   UNL     1      44.903   5.058  12.884  0.00  0.00    +0.000 A 
ATOM      9  C   UNL     1      46.230   4.670  12.853  0.00  0.00    +0.000 A 
ATOM     10  N   UNL     1      47.277   5.540  12.850  0.00  0.00    +0.000 NA
BRANCH   8  11
ATOM     11  C   UNL     1      43.754   4.122  12.916  0.00  0.00    +0.000 C 
ATOM     12  N   UNL     1      43.952   2.804  12.619  0.00  0.00    +0.000 N 
ATOM     13  O   UNL     1      42.630   4.515  13.215  0.00  0.00    +0.000 OA
ATOM     14  H   UNL     1      44.836   2.376  12.384  0.00  0.00    +0.000 HD
ATOM     15  H   UNL     1      43.142   2.204  12.685  0.00  0.00    +0.000 HD
ENDBRANCH   8  11
ENDBRANCH   2   3
BRANCH   2  16
ATOM     16  C   UNL     1      48.994   9.459  14.592  0.00  0.00    +0.000 C 
BRANCH  16  17
ATOM     17  C   UNL     1      48.635   8.801  15.910  0.00  0.00    +0.000 A 
ATOM     18  C   UNL     1      48.033   9.529  16.940  0.00  0.00    +0.000 A 
ATOM     19  C   UNL     1      47.858   8.952  18.192  0.00  0.00    +0.000 A 
ATOM     20  C   UNL     1      48.193   7.612  18.395  0.00  0.00    +0.000 A 
ATOM     21  C   UNL     1      48.631   6.799  17.335  0.00  0.00    +0.000 A 
ATOM     22  C   UNL     1      48.907   7.435  16.111  0.00  0.00    +0.000 A 
BRANCH  21  23
ATOM     23  C   UNL     1      48.633   5.321  17.457  0.00  0.00    +0.000 A 
ATOM     24  C   UNL     1      47.406   4.625  17.433  0.00  0.00    +0.000 A 
ATOM     25  C   UNL     1      47.352   3.231  17.369  0.00  0.00    +0.000 A 
ATOM     26  C   UNL     1      48.526   2.493  17.330  0.00  0.00    +0.000 A 
ATOM     27  C   UNL     1      49.751   3.150  17.393  0.00  0.00    +0.000 A 
ATOM     28  C   UNL     1      49.806   4.550  17.465  0.00  0.00    +0.000 A 
ENDBRANCH  21  23
ENDBRANCH  16  17
ENDBRANCH   2  16
TORSDOF 5
ENDMDL
MODEL 6
REMARK VINA RESULT:    -6.418      2.743      4.536
REMARK INTER + INTRA:          -9.289
REMARK INTER:                  -8.490
REMARK INTRA:                  -0.799
REMARK UNBOUND:                -0.996
REMARK  Name = 
REMARK  7 active torsions:
REMARK  status: ('A' for Active; 'I' for Inactive)
REMARK    1  A    between atoms: C_1  and  C_2
REMARK    2  A    between atoms: C_2  and  C_3
REMARK    3  A    between atoms: C_2  and  N_16
REMARK    4  A    between atoms: C_3  and  C_4
REMARK    5  A    between atoms: C_8  and  C_9
REMARK    6  A    between atoms: N_16  and  C_17
REMARK    7  A    between atoms: C_21  and  C_22
REMARK                            x       y       z     vdW  Elec       q    Type
REMARK                         _______ _______ _______ _____ _____    ______ ____
ROOT
ATOM      1  C   UNL     1      48.472   8.106  16.967  0.00  0.00    +0.000 C 
ATOM      2  C   UNL     1      49.423   7.013  16.459  0.00  0.00    +0.000 C 
ENDROOT
BRANCH   2   3
ATOM      3  N   UNL     1      48.961   5.683  16.887  0.00  0.00    +0.000 N 
ATOM      4  C   UNL     1      47.564   5.386  17.162  0.00  0.00    +0.000 C 
ATOM      5  C   UNL     1      49.844   4.637  17.161  0.00  0.00    +0.000 A 
ATOM      6  C   UNL     1      51.201   4.852  17.420  0.00  0.00    +0.000 A 
ATOM      7  C   UNL     1      52.063   3.778  17.642  0.00  0.00    +0.000 A 
ATOM      8  C   UNL     1      51.577   2.475  17.594  0.00  0.00    +0.000 A 
ATOM      9  C   UNL     1      50.221   2.330  17.364  0.00  0.00    +0.000 A 
ATOM     10  N   UNL     1      49.368   3.372  17.166  0.00  0.00    +0.000 NA
BRANCH   8  11
ATOM     11  C   UNL     1      52.523   1.350  17.784  0.00  0.00    +0.000 C 
ATOM     12  N   UNL     1      52.052   0.141  18.211  0.00  0.00    +0.000 N 
ATOM     13  O   UNL     1      53.720   1.487  17.551  0.00  0.00    +0.000 OA
ATOM     14  H   UNL     1      51.087  -0.083  18.408  0.00  0.00    +0.000 HD
ATOM     15  H   UNL     1      52.733  -0.600  18.296  0.00  0.00    +0.000 HD
ENDBRANCH   8  11
ENDBRANCH   2   3
BRANCH   2  16
ATOM     16  C   UNL     1      49.648   7.100  14.925  0.00  0.00    +0.000 C 
BRANCH  16  17
ATOM     17  C   UNL     1      48.377   7.340  14.135  0.00  0.00    +0.000 A 
ATOM     18  C   UNL     1      47.897   8.635  13.918  0.00  0.00    +0.000 A 
ATOM     19  C   UNL     1      46.652   8.828  13.331  0.00  0.00    +0.000 A 
ATOM     20  C   UNL     1      45.922   7.733  12.869  0.00  0.00    +0.000 A 
ATOM     21  C   UNL     1      46.452   6.431  12.907  0.00  0.00    +0.000 A 
ATOM     22  C   UNL     1      47.660   6.251  13.606  0.00  0.00    +0.000 A 
BRANCH  21  23
ATOM     23  C   UNL     1      45.855   5.339  12.100  0.00  0.00    +0.000 A 
ATOM     24  C   UNL     1      45.628   4.083  12.701  0.00  0.00    +0.000 A 
ATOM     25  C   UNL     1      44.914   3.074  12.050  0.00  0.00    +0.000 A 
ATOM     26  C   UNL     1      44.409   3.294  10.777  0.00  0.00    +0.000 A 
ATOM     27  C   UNL     1      44.652   4.510  10.143  0.00  0.00    +0.000 A 
ATOM     28  C   UNL     1      45.375   5.521  10.794  0.00  0.00    +0.000 A 
ENDBRANCH  21  23
ENDBRANCH  16  17
ENDBRANCH   2  16
TORSDOF 5
ENDMDL
MODEL 7
REMARK VINA RESULT:    -6.362      4.225      6.624
REMARK INTER + INTRA:          -9.218
REMARK INTER:                  -7.850
REMARK INTRA:                  -1.368
REMARK UNBOUND:                -0.996
REMARK  Name = 
REMARK  7 active torsions:
REMARK  status: ('A' for Active; 'I' for Inactive)
REMARK    1  A    between atoms: C_1  and  C_2
REMARK    2  A    between atoms: C_2  and  C_3
REMARK    3  A    between atoms: C_2  and  N_16
REMARK    4  A    between atoms: C_3  and  C_4
REMARK    5  A    between atoms: C_8  and  C_9
REMARK    6  A    between atoms: N_16  and  C_17
REMARK    7  A    between atoms: C_21  and  C_22
REMARK                            x       y       z     vdW  Elec       q    Type
REMARK                         _______ _______ _______ _____ _____    ______ ____
ROOT
ATOM      1  C   UNL     1      50.020  10.887  12.865  0.00  0.00    +0.000 C 
ATOM      2  C   UNL     1      48.686  10.256  12.442  0.00  0.00    +0.000 C 
ENDROOT
BRANCH   2   3
ATOM      3  N   UNL     1      47.913  11.189  11.606  0.00  0.00    +0.000 N 
ATOM      4  C   UNL     1      48.478  12.418  11.071  0.00  0.00    +0.000 C 
ATOM      5  C   UNL     1      46.551  11.014  11.354  0.00  0.00    +0.000 A 
ATOM      6  C   UNL     1      45.742  10.194  12.146  0.00  0.00    +0.000 A 
ATOM      7  C   UNL     1      44.396  10.005  11.834  0.00  0.00    +0.000 A 
ATOM      8  C   UNL     1      43.849  10.625  10.715  0.00  0.00    +0.000 A 
ATOM      9  C   UNL     1      44.692  11.447   9.990  0.00  0.00    +0.000 A 
ATOM     10  N   UNL     1      46.002  11.654  10.297  0.00  0.00    +0.000 NA
BRANCH   8  11
ATOM     11  C   UNL     1      42.429  10.369  10.376  0.00  0.00    +0.000 C 
ATOM     12  N   UNL     1      41.751   9.378  11.027  0.00  0.00    +0.000 N 
ATOM     13  O   UNL     1      41.853  11.042   9.527  0.00  0.00    +0.000 OA
ATOM     14  H   UNL     1      42.124   8.784  11.754  0.00  0.00    +0.000 HD
ATOM     15  H   UNL     1      40.778   9.264  10.780  0.00  0.00    +0.000 HD
ENDBRANCH   8  11
ENDBRANCH   2   3
BRANCH   2  16
ATOM     16  C   UNL     1      48.881   8.873  11.766  0.00  0.00    +0.000 C 
BRANCH  16  17
ATOM     17  C   UNL     1      48.266   7.723  12.541  0.00  0.00    +0.000 A 
ATOM     18  C   UNL     1      48.691   7.418  13.837  0.00  0.00    +0.000 A 
ATOM     19  C   UNL     1      48.232   6.269  14.469  0.00  0.00    +0.000 A 
ATOM     20  C   UNL     1      47.272   5.469  13.849  0.00  0.00    +0.000 A 
ATOM     21  C   UNL     1      46.689   5.841  12.625  0.00  0.00    +0.000 A 
ATOM     22  C   UNL     1      47.251   6.944  11.956  0.00  0.00    +0.000 A 
BRANCH  21  23
ATOM     23  C   UNL     1      45.433   5.207  12.153  0.00  0.00    +0.000 A 
ATOM     24  C   UNL     1      45.178   5.130  10.768  0.00  0.00    +0.000 A 
ATOM     25  C   UNL     1      44.105   4.397  10.256  0.00  0.00    +0.000 A 
ATOM     26  C   UNL     1      43.255   3.721  11.119  0.00  0.00    +0.000 A 
ATOM     27  C   UNL     1      43.459   3.811  12.493  0.00  0.00    +0.000 A 
ATOM     28  C   UNL     1      44.532   4.553  13.007  0.00  0.00    +0.000 A 
ENDBRANCH  21  23
ENDBRANCH  16  17
ENDBRANCH   2  16
TORSDOF 5
ENDMDL
MODEL 8
REMARK VINA RESULT:    -6.173      3.334      6.961
REMARK INTER + INTRA:          -8.973
REMARK INTER:                  -8.113
REMARK INTRA:                  -0.860
REMARK UNBOUND:                -0.996
REMARK  Name = 
REMARK  7 active torsions:
REMARK  status: ('A' for Active; 'I' for Inactive)
REMARK    1  A    between atoms: C_1  and  C_2
REMARK    2  A    between atoms: C_2  and  C_3
REMARK    3  A    between atoms: C_2  and  N_16
REMARK    4  A    between atoms: C_3  and  C_4
REMARK    5  A    between atoms: C_8  and  C_9
REMARK    6  A    between atoms: N_16  and  C_17
REMARK    7  A    between atoms: C_21  and  C_22
REMARK                            x       y       z     vdW  Elec       q    Type
REMARK                         _______ _______ _______ _____ _____    ______ ____
ROOT
ATOM      1  C   UNL     1      46.808  10.435  12.167  0.00  0.00    +0.000 C 
ATOM      2  C   UNL     1      46.533   8.973  12.545  0.00  0.00    +0.000 C 
ENDROOT
BRANCH   2   3
ATOM      3  N   UNL     1      45.329   8.477  11.859  0.00  0.00    +0.000 N 
ATOM      4  C   UNL     1      44.414   9.353  11.144  0.00  0.00    +0.000 C 
ATOM      5  C   UNL     1      44.921   7.144  11.933  0.00  0.00    +0.000 A 
ATOM      6  C   UNL     1      45.375   6.277  12.932  0.00  0.00    +0.000 A 
ATOM      7  C   UNL     1      44.984   4.938  12.946  0.00  0.00    +0.000 A 
ATOM      8  C   UNL     1      44.144   4.450  11.950  0.00  0.00    +0.000 A 
ATOM      9  C   UNL     1      43.706   5.363  11.009  0.00  0.00    +0.000 A 
ATOM     10  N   UNL     1      44.066   6.676  10.997  0.00  0.00    +0.000 NA
BRANCH   8  11
ATOM     11  C   UNL     1      43.783   3.012  11.958  0.00  0.00    +0.000 C 
ATOM     12  N   UNL     1      43.944   2.272  10.822  0.00  0.00    +0.000 N 
ATOM     13  O   UNL     1      43.353   2.477  12.975  0.00  0.00    +0.000 OA
ATOM     14  H   UNL     1      44.311   2.608   9.943  0.00  0.00    +0.000 HD
ATOM     15  H   UNL     1      43.712   1.291  10.890  0.00  0.00    +0.000 HD
ENDBRANCH   8  11
ENDBRANCH   2   3
BRANCH   2  16
ATOM     16  C   UNL     1      47.769   8.064  12.309  0.00  0.00    +0.000 C 
BRANCH  16  17
ATOM     17  C   UNL     1      48.607   7.839  13.552  0.00  0.00    +0.000 A 
ATOM     18  C   UNL     1      49.617   8.734  13.913  0.00  0.00    +0.000 A 
ATOM     19  C   UNL     1      50.477   8.431  14.962  0.00  0.00    +0.000 A 
ATOM     20  C   UNL     1      50.272   7.277  15.718  0.00  0.00    +0.000 A 
ATOM     21  C   UNL     1      49.160   6.445  15.500  0.00  0.00    +0.000 A 
ATOM     22  C   UNL     1      48.373   6.713  14.364  0.00  0.00    +0.000 A 
BRANCH  21  23
ATOM     23  C   UNL     1      48.740   5.447  16.514  0.00  0.00    +0.000 A 
ATOM     24  C   UNL     1      47.637   4.611  16.243  0.00  0.00    +0.000 A 
ATOM     25  C   UNL     1      47.302   3.541  17.077  0.00  0.00    +0.000 A 
ATOM     26  C   UNL     1      48.062   3.280  18.207  0.00  0.00    +0.000 A 
ATOM     27  C   UNL     1      49.133   4.113  18.521  0.00  0.00    +0.000 A 
ATOM     28  C   UNL     1      49.465   5.191  17.688  0.00  0.00    +0.000 A 
ENDBRANCH  21  23
ENDBRANCH  16  17
ENDBRANCH   2  16
TORSDOF 5
ENDMDL
MODEL 9
REMARK VINA RESULT:    -5.880      2.492      3.793
REMARK INTER + INTRA:          -8.594
REMARK INTER:                  -7.191
REMARK INTRA:                  -1.403
REMARK UNBOUND:                -0.996
REMARK  Name = 
REMARK  7 active torsions:
REMARK  status: ('A' for Active; 'I' for Inactive)
REMARK    1  A    between atoms: C_1  and  C_2
REMARK    2  A    between atoms: C_2  and  C_3
REMARK    3  A    between atoms: C_2  and  N_16
REMARK    4  A    between atoms: C_3  and  C_4
REMARK    5  A    between atoms: C_8  and  C_9
REMARK    6  A    between atoms: N_16  and  C_17
REMARK    7  A    between atoms: C_21  and  C_22
REMARK                            x       y       z     vdW  Elec       q    Type
REMARK                         _______ _______ _______ _____ _____    ______ ____
ROOT
ATOM      1  C   UNL     1      52.013   8.541  12.341  0.00  0.00    +0.000 C 
ATOM      2  C   UNL     1      50.532   8.357  12.700  0.00  0.00    +0.000 C 
ENDROOT
BRANCH   2   3
ATOM      3  N   UNL     1      50.225   9.007  13.985  0.00  0.00    +0.000 N 
ATOM      4  C   UNL     1      50.460  10.422  14.226  0.00  0.00    +0.000 C 
ATOM      5  C   UNL     1      49.785   8.290  15.098  0.00  0.00    +0.000 A 
ATOM      6  C   UNL     1      49.957   6.907  15.214  0.00  0.00    +0.000 A 
ATOM      7  C   UNL     1      49.460   6.218  16.321  0.00  0.00    +0.000 A 
ATOM      8  C   UNL     1      48.774   6.905  17.317  0.00  0.00    +0.000 A 
ATOM      9  C   UNL     1      48.664   8.274  17.160  0.00  0.00    +0.000 A 
ATOM     10  N   UNL     1      49.162   8.960  16.094  0.00  0.00    +0.000 NA
BRANCH   8  11
ATOM     11  C   UNL     1      48.213   6.142  18.457  0.00  0.00    +0.000 C 
ATOM     12  N   UNL     1      46.882   6.246  18.746  0.00  0.00    +0.000 N 
ATOM     13  O   UNL     1      48.926   5.412  19.138  0.00  0.00    +0.000 OA
ATOM     14  H   UNL     1      46.207   6.798  18.236  0.00  0.00    +0.000 HD
ATOM     15  H   UNL     1      46.545   5.682  19.513  0.00  0.00    +0.000 HD
ENDBRANCH   8  11
ENDBRANCH   2   3
BRANCH   2  16
ATOM     16  C   UNL     1      49.590   8.824  11.557  0.00  0.00    +0.000 C 
BRANCH  16  17
ATOM     17  C   UNL     1      48.118   8.627  11.861  0.00  0.00    +0.000 A 
ATOM     18  C   UNL     1      47.274   9.720  12.075  0.00  0.00    +0.000 A 
ATOM     19  C   UNL     1      45.968   9.519  12.508  0.00  0.00    +0.000 A 
ATOM     20  C   UNL     1      45.469   8.223  12.636  0.00  0.00    +0.000 A 
ATOM     21  C   UNL     1      46.231   7.103  12.256  0.00  0.00    +0.000 A 
ATOM     22  C   UNL     1      47.581   7.328  11.932  0.00  0.00    +0.000 A 
BRANCH  21  23
ATOM     23  C   UNL     1      45.593   5.782  12.042  0.00  0.00    +0.000 A 
ATOM     24  C   UNL     1      44.719   5.607  10.948  0.00  0.00    +0.000 A 
ATOM     25  C   UNL     1      44.226   4.349  10.594  0.00  0.00    +0.000 A 
ATOM     26  C   UNL     1      44.593   3.230  11.327  0.00  0.00    +0.000 A 
ATOM     27  C   UNL     1      45.422   3.377  12.436  0.00  0.00    +0.000 A 
ATOM     28  C   UNL     1      45.911   4.641  12.796  0.00  0.00    +0.000 A 
ENDBRANCH  21  23
ENDBRANCH  16  17
ENDBRANCH   2  16
TORSDOF 5
ENDMDL
