MODEL 1
REMARK VINA RESULT:    -8.088      0.000      0.000
REMARK INTER + INTRA:         -12.039
REMARK INTER:                 -10.924
REMARK INTRA:                  -1.114
REMARK UNBOUND:                -1.114
REMARK  Name = 
REMARK  6 active torsions:
REMARK  status: ('A' for Active; 'I' for Inactive)
REMARK    1  A    between atoms: C_2  and  C_19
REMARK    2  A    between atoms: N_3  and  C_4
REMARK    3  A    between atoms: C_4  and  C_5
REMARK    4  A    between atoms: C_8  and  C_9
REMARK    5  A    between atoms: C_9  and  N_10
REMARK    6  A    between atoms: N_10  and  C_11
REMARK                            x       y       z     vdW  Elec       q    Type
REMARK                         _______ _______ _______ _____ _____    ______ ____
ROOT
ATOM      1  C   UNL     1      47.013   7.160  13.085  0.00  0.00    +0.000 C 
ENDROOT
BRANCH   1   2
ATOM      2  C   UNL     1      46.306   6.084  12.302  0.00  0.00    +0.000 A 
ATOM      3  C   UNL     1      46.000   4.853  12.900  0.00  0.00    +0.000 A 
ATOM      4  C   UNL     1      45.316   3.862  12.188  0.00  0.00    +0.000 A 
ATOM      5  C   UNL     1      44.946   4.067  10.853  0.00  0.00    +0.000 A 
ATOM      6  C   UNL     1      45.255   5.297  10.252  0.00  0.00    +0.000 A 
ATOM      7  C   UNL     1      45.939   6.289  10.966  0.00  0.00    +0.000 A 
BRANCH   5   8
ATOM      8  C   UNL     1      44.251   2.977  10.068  0.00  0.00    +0.000 C 
BRANCH   8   9
ATOM      9  N   UNL     1      44.444   3.154   8.636  0.00  0.00    +0.000 N 
ATOM     10  H   UNL     1      44.117   4.044   8.272  0.00  0.00    +0.000 HD
BRANCH   9  11
ATOM     11  C   UNL     1      45.570   2.632   7.995  0.00  0.00    +0.000 A 
ATOM     12  C   UNL     1      46.473   3.406   7.263  0.00  0.00    +0.000 A 
ATOM     13  C   UNL     1      47.621   2.817   6.747  0.00  0.00    +0.000 A 
ATOM     14  N   UNL     1      47.945   1.521   6.919  0.00  0.00    +0.000 NA
ATOM     15  C   UNL     1      47.081   0.789   7.649  0.00  0.00    +0.000 A 
ATOM     16  C   UNL     1      45.909   1.291   8.199  0.00  0.00    +0.000 A 
ENDBRANCH   9  11
ENDBRANCH   8   9
ENDBRANCH   5   8
ENDBRANCH   1   2
BRANCH   1  19
ATOM     17  O   UNL     1      49.592   6.912  14.035  0.00  0.00    +0.000 OA
ATOM     18  C   UNL     1      48.668   6.715  14.821  0.00  0.00    +0.000 C 
ATOM     19  N   UNL     1      47.354   6.735  14.420  0.00  0.00    +0.000 N 
ATOM     20  H   UNL     1      46.623   6.789  15.123  0.00  0.00    +0.000 HD
BRANCH  18  21
ATOM     21  C   UNL     1      48.924   6.405  16.231  0.00  0.00    +0.000 A 
ATOM     22  C   UNL     1      49.461   7.374  17.067  0.00  0.00    +0.000 A 
ATOM     23  S   UNL     1      49.708   6.834  18.667  0.00  0.00    +0.000 S 
ATOM     24  C   UNL     1      49.051   5.308  18.310  0.00  0.00    +0.000 A 
ATOM     25  N   UNL     1      48.932   4.353  19.274  0.00  0.00    +0.000 NA
ATOM     26  C   UNL     1      48.371   3.260  18.875  0.00  0.00    +0.000 A 
ATOM     27  N   UNL     1      47.932   3.028  17.598  0.00  0.00    +0.000 N 
ATOM     28  C   UNL     1      48.075   3.941  16.581  0.00  0.00    +0.000 A 
ATOM     29  O   UNL     1      47.736   3.675  15.432  0.00  0.00    +0.000 OA
ATOM     30  C   UNL     1      48.677   5.199  16.984  0.00  0.00    +0.000 A 
ATOM     31  H   UNL     1      47.513   2.145  17.347  0.00  0.00    +0.000 HD
ENDBRANCH  18  21
ENDBRANCH   1  19
TORSDOF 6
ENDMDL
MODEL 2
REMARK VINA RESULT:    -7.948      0.943      1.523
REMARK INTER + INTRA:         -11.851
REMARK INTER:                 -10.759
REMARK INTRA:                  -1.091
REMARK UNBOUND:                -1.114
REMARK  Name = 
REMARK  6 active torsions:
REMARK  status: ('A' for Active; 'I' for Inactive)
REMARK    1  A    between atoms: C_2  and  C_19
REMARK    2  A    between atoms: N_3  and  C_4
REMARK    3  A    between atoms: C_4  and  C_5
REMARK    4  A    between atoms: C_8  and  C_9
REMARK    5  A    between atoms: C_9  and  N_10
REMARK    6  A    between atoms: N_10  and  C_11
REMARK                            x       y       z     vdW  Elec       q    Type
REMARK                         _______ _______ _______ _____ _____    ______ ____
ROOT
ATOM      1  C   UNL     1      46.272   7.463  12.852  0.00  0.00    +0.000 C 
ENDROOT
BRANCH   1   2
ATOM      2  C   UNL     1      45.781   6.391  11.914  0.00  0.00    +0.000 A 
ATOM      3  C   UNL     1      46.187   6.379  10.572  0.00  0.00    +0.000 A 
ATOM      4  C   UNL     1      45.760   5.369   9.704  0.00  0.00    +0.000 A 
ATOM      5  C   UNL     1      44.894   4.362  10.150  0.00  0.00    +0.000 A 
ATOM      6  C   UNL     1      44.485   4.375  11.492  0.00  0.00    +0.000 A 
ATOM      7  C   UNL     1      44.914   5.386  12.360  0.00  0.00    +0.000 A 
BRANCH   5   8
ATOM      8  C   UNL     1      44.393   3.298   9.199  0.00  0.00    +0.000 C 
BRANCH   8   9
ATOM      9  N   UNL     1      44.872   3.534   7.845  0.00  0.00    +0.000 N 
ATOM     10  H   UNL     1      44.806   4.499   7.534  0.00  0.00    +0.000 HD
BRANCH   9  11
ATOM     11  C   UNL     1      45.963   2.824   7.336  0.00  0.00    +0.000 A 
ATOM     12  C   UNL     1      46.427   1.624   7.881  0.00  0.00    +0.000 A 
ATOM     13  C   UNL     1      47.452   0.934   7.245  0.00  0.00    +0.000 A 
ATOM     14  N   UNL     1      48.037   1.339   6.102  0.00  0.00    +0.000 NA
ATOM     15  C   UNL     1      47.564   2.483   5.570  0.00  0.00    +0.000 A 
ATOM     16  C   UNL     1      46.547   3.240   6.137  0.00  0.00    +0.000 A 
ENDBRANCH   9  11
ENDBRANCH   8   9
ENDBRANCH   5   8
ENDBRANCH   1   2
BRANCH   1  19
ATOM     17  O   UNL     1      48.840   6.471  13.060  0.00  0.00    +0.000 OA
ATOM     18  C   UNL     1      48.156   6.517  14.081  0.00  0.00    +0.000 C 
ATOM     19  N   UNL     1      46.842   6.918  14.060  0.00  0.00    +0.000 N 
ATOM     20  H   UNL     1      46.383   7.154  14.935  0.00  0.00    +0.000 HD
BRANCH  18  21
ATOM     21  C   UNL     1      48.701   6.104  15.378  0.00  0.00    +0.000 A 
ATOM     22  C   UNL     1      49.710   6.847  15.975  0.00  0.00    +0.000 A 
ATOM     23  S   UNL     1      50.232   6.212  17.469  0.00  0.00    +0.000 S 
ATOM     24  C   UNL     1      49.088   4.957  17.397  0.00  0.00    +0.000 A 
ATOM     25  N   UNL     1      48.976   4.051  18.408  0.00  0.00    +0.000 NA
ATOM     26  C   UNL     1      48.033   3.184  18.244  0.00  0.00    +0.000 A 
ATOM     27  N   UNL     1      47.202   3.129  17.156  0.00  0.00    +0.000 N 
ATOM     28  C   UNL     1      47.309   3.990  16.090  0.00  0.00    +0.000 A 
ATOM     29  O   UNL     1      46.597   3.869  15.099  0.00  0.00    +0.000 OA
ATOM     30  C   UNL     1      48.339   5.003  16.237  0.00  0.00    +0.000 A 
ATOM     31  H   UNL     1      46.492   2.416  17.083  0.00  0.00    +0.000 HD
ENDBRANCH  18  21
ENDBRANCH   1  19
TORSDOF 6
ENDMDL
MODEL 3
REMARK VINA RESULT:    -7.908      1.226      1.646
REMARK INTER + INTRA:         -11.796
REMARK INTER:                 -10.816
REMARK INTRA:                  -0.980
REMARK UNBOUND:                -1.114
REMARK  Name = 
REMARK  6 active torsions:
REMARK  status: ('A' for Active; 'I' for Inactive)
REMARK    1  A    between atoms: C_2  and  C_19
REMARK    2  A    between atoms: N_3  and  C_4
REMARK    3  A    between atoms: C_4  and  C_5
REMARK    4  A    between atoms: C_8  and  C_9
REMARK    5  A    between atoms: C_9  and  N_10
REMARK    6  A    between atoms: N_10  and  C_11
REMARK                            x       y       z     vdW  Elec       q    Type
REMARK                         _______ _______ _______ _____ _____    ______ ____
ROOT
ATOM      1  C   UNL     1      48.252   6.757  13.431  0.00  0.00    +0.000 C 
ENDROOT
BRANCH   1   2
ATOM      2  C   UNL     1      47.098   6.148  12.677  0.00  0.00    +0.000 A 
ATOM      3  C   UNL     1      46.601   6.762  11.520  0.00  0.00    +0.000 A 
ATOM      4  C   UNL     1      45.551   6.185  10.797  0.00  0.00    +0.000 A 
ATOM      5  C   UNL     1      44.955   4.994  11.231  0.00  0.00    +0.000 A 
ATOM      6  C   UNL     1      45.450   4.380  12.391  0.00  0.00    +0.000 A 
ATOM      7  C   UNL     1      46.502   4.957  13.113  0.00  0.00    +0.000 A 
BRANCH   5   8
ATOM      8  C   UNL     1      43.788   4.396  10.478  0.00  0.00    +0.000 C 
BRANCH   8   9
ATOM      9  N   UNL     1      44.029   4.402   9.043  0.00  0.00    +0.000 N 
ATOM     10  H   UNL     1      43.979   5.319   8.609  0.00  0.00    +0.000 HD
BRANCH   9  11
ATOM     11  C   UNL     1      44.952   3.526   8.467  0.00  0.00    +0.000 A 
ATOM     12  C   UNL     1      45.981   3.936   7.617  0.00  0.00    +0.000 A 
ATOM     13  C   UNL     1      46.916   3.007   7.175  0.00  0.00    +0.000 A 
ATOM     14  N   UNL     1      46.912   1.708   7.527  0.00  0.00    +0.000 NA
ATOM     15  C   UNL     1      45.931   1.328   8.369  0.00  0.00    +0.000 A 
ATOM     16  C   UNL     1      44.953   2.184   8.859  0.00  0.00    +0.000 A 
ENDBRANCH   9  11
ENDBRANCH   8   9
ENDBRANCH   5   8
ENDBRANCH   1   2
BRANCH   1  19
ATOM     17  O   UNL     1      50.313   6.779  15.268  0.00  0.00    +0.000 OA
ATOM     18  C   UNL     1      49.160   6.782  15.696  0.00  0.00    +0.000 C 
ATOM     19  N   UNL     1      48.072   6.689  14.861  0.00  0.00    +0.000 N 
ATOM     20  H   UNL     1      47.151   6.914  15.222  0.00  0.00    +0.000 HD
BRANCH  18  21
ATOM     21  C   UNL     1      48.885   6.843  17.134  0.00  0.00    +0.000 A 
ATOM     22  C   UNL     1      48.517   8.046  17.719  0.00  0.00    +0.000 A 
ATOM     23  S   UNL     1      48.253   7.935  19.401  0.00  0.00    +0.000 S 
ATOM     24  C   UNL     1      48.565   6.264  19.394  0.00  0.00    +0.000 A 
ATOM     25  N   UNL     1      48.473   5.529  20.537  0.00  0.00    +0.000 NA
ATOM     26  C   UNL     1      48.687   4.266  20.376  0.00  0.00    +0.000 A 
ATOM     27  N   UNL     1      49.000   3.672  19.181  0.00  0.00    +0.000 N 
ATOM     28  C   UNL     1      49.152   4.379  18.012  0.00  0.00    +0.000 A 
ATOM     29  O   UNL     1      49.502   3.827  16.974  0.00  0.00    +0.000 OA
ATOM     30  C   UNL     1      48.895   5.802  18.134  0.00  0.00    +0.000 A 
ATOM     31  H   UNL     1      49.169   2.679  19.126  0.00  0.00    +0.000 HD
ENDBRANCH  18  21
ENDBRANCH   1  19
TORSDOF 6
ENDMDL
MODEL 4
REMARK VINA RESULT:    -7.629      1.828      2.711
REMARK INTER + INTRA:         -11.419
REMARK INTER:                 -10.450
REMARK INTRA:                  -0.969
REMARK UNBOUND:                -1.114
REMARK  Name = 
REMARK  6 active torsions:
REMARK  status: ('A' for Active; 'I' for Inactive)
REMARK    1  A    between atoms: C_2  and  C_19
REMARK    2  A    between atoms: N_3  and  C_4
REMARK    3  A    between atoms: C_4  and  C_5
REMARK    4  A    between atoms: C_8  and  C_9
REMARK    5  A    between atoms: C_9  and  N_10
REMARK    6  A    between atoms: N_10  and  C_11
REMARK                            x       y       z     vdW  Elec       q    Type
REMARK                         _______ _______ _______ _____ _____    ______ ____
ROOT
ATOM      1  C   UNL     1      47.910   6.693  13.694  0.00  0.00    +0.000 C 
ENDROOT
BRANCH   1   2
ATOM      2  C   UNL     1      46.870   6.058  12.808  0.00  0.00    +0.000 A 
ATOM      3  C   UNL     1      46.449   6.697  11.634  0.00  0.00    +0.000 A 
ATOM      4  C   UNL     1      45.506   6.097  10.791  0.00  0.00    +0.000 A 
ATOM      5  C   UNL     1      44.943   4.857  11.117  0.00  0.00    +0.000 A 
ATOM      6  C   UNL     1      45.362   4.218  12.294  0.00  0.00    +0.000 A 
ATOM      7  C   UNL     1      46.306   4.818  13.137  0.00  0.00    +0.000 A 
BRANCH   5   8
ATOM      8  C   UNL     1      43.889   4.232  10.232  0.00  0.00    +0.000 C 
BRANCH   8   9
ATOM      9  N   UNL     1      44.307   4.228   8.838  0.00  0.00    +0.000 N 
ATOM     10  H   UNL     1      44.278   5.136   8.384  0.00  0.00    +0.000 HD
BRANCH   9  11
ATOM     11  C   UNL     1      45.327   3.380   8.398  0.00  0.00    +0.000 A 
ATOM     12  C   UNL     1      45.384   2.018   8.696  0.00  0.00    +0.000 A 
ATOM     13  C   UNL     1      46.379   1.232   8.128  0.00  0.00    +0.000 A 
ATOM     14  N   UNL     1      47.311   1.697   7.274  0.00  0.00    +0.000 NA
ATOM     15  C   UNL     1      47.231   3.008   6.971  0.00  0.00    +0.000 A 
ATOM     16  C   UNL     1      46.274   3.869   7.493  0.00  0.00    +0.000 A 
ENDBRANCH   9  11
ENDBRANCH   8   9
ENDBRANCH   5   8
ENDBRANCH   1   2
BRANCH   1  19
ATOM     17  O   UNL     1      50.042   6.593  15.445  0.00  0.00    +0.000 OA
ATOM     18  C   UNL     1      48.930   6.294  15.875  0.00  0.00    +0.000 C 
ATOM     19  N   UNL     1      47.825   6.236  15.059  0.00  0.00    +0.000 N 
ATOM     20  H   UNL     1      46.901   6.205  15.479  0.00  0.00    +0.000 HD
BRANCH  18  21
ATOM     21  C   UNL     1      48.730   5.941  17.284  0.00  0.00    +0.000 A 
ATOM     22  C   UNL     1      49.002   4.653  17.721  0.00  0.00    +0.000 A 
ATOM     23  S   UNL     1      48.698   4.417  19.384  0.00  0.00    +0.000 S 
ATOM     24  C   UNL     1      48.249   6.044  19.586  0.00  0.00    +0.000 A 
ATOM     25  N   UNL     1      47.898   6.527  20.810  0.00  0.00    +0.000 NA
ATOM     26  C   UNL     1      47.629   7.790  20.828  0.00  0.00    +0.000 A 
ATOM     27  N   UNL     1      47.663   8.611  19.731  0.00  0.00    +0.000 N 
ATOM     28  C   UNL     1      47.964   8.160  18.468  0.00  0.00    +0.000 A 
ATOM     29  O   UNL     1      47.917   8.907  17.496  0.00  0.00    +0.000 OA
ATOM     30  C   UNL     1      48.301   6.750  18.399  0.00  0.00    +0.000 A 
ATOM     31  H   UNL     1      47.428   9.589  19.810  0.00  0.00    +0.000 HD
ENDBRANCH  18  21
ENDBRANCH   1  19
TORSDOF 6
ENDMDL
MODEL 5
REMARK VINA RESULT:    -7.402      1.874      3.547
REMARK INTER + INTRA:         -11.113
REMARK INTER:                  -9.941
REMARK INTRA:                  -1.173
REMARK UNBOUND:                -1.114
REMARK  Name = 
REMARK  6 active torsions:
REMARK  status: ('A' for Active; 'I' for Inactive)
REMARK    1  A    between atoms: C_2  and  C_19
REMARK    2  A    between atoms: N_3  and  C_4
REMARK    3  A    between atoms: C_4  and  C_5
REMARK    4  A    between atoms: C_8  and  C_9
REMARK    5  A    between atoms: C_9  and  N_10
REMARK    6  A    between atoms: N_10  and  C_11
REMARK                            x       y       z     vdW  Elec       q    Type
REMARK                         _______ _______ _______ _____ _____    ______ ____
ROOT
ATOM      1  C   UNL     1      46.793   4.492  14.483  0.00  0.00    +0.000 C 
ENDROOT
BRANCH   1   2
ATOM      2  C   UNL     1      46.151   4.474  13.120  0.00  0.00    +0.000 A 
ATOM      3  C   UNL     1      45.458   3.340  12.675  0.00  0.00    +0.000 A 
ATOM      4  C   UNL     1      44.834   3.328  11.422  0.00  0.00    +0.000 A 
ATOM      5  C   UNL     1      44.911   4.440  10.575  0.00  0.00    +0.000 A 
ATOM      6  C   UNL     1      45.608   5.575  11.019  0.00  0.00    +0.000 A 
ATOM      7  C   UNL     1      46.232   5.586  12.272  0.00  0.00    +0.000 A 
BRANCH   5   8
ATOM      8  C   UNL     1      44.278   4.410   9.202  0.00  0.00    +0.000 C 
BRANCH   8   9
ATOM      9  N   UNL     1      44.371   3.084   8.609  0.00  0.00    +0.000 N 
ATOM     10  H   UNL     1      43.548   2.794   8.091  0.00  0.00    +0.000 HD
BRANCH   9  11
ATOM     11  C   UNL     1      45.584   2.607   8.105  0.00  0.00    +0.000 A 
ATOM     12  C   UNL     1      45.991   1.275   8.201  0.00  0.00    +0.000 A 
ATOM     13  C   UNL     1      47.166   0.870   7.578  0.00  0.00    +0.000 A 
ATOM     14  N   UNL     1      47.956   1.687   6.856  0.00  0.00    +0.000 NA
ATOM     15  C   UNL     1      47.541   2.965   6.748  0.00  0.00    +0.000 A 
ATOM     16  C   UNL     1      46.384   3.458   7.338  0.00  0.00    +0.000 A 
ENDBRANCH   9  11
ENDBRANCH   8   9
ENDBRANCH   5   8
ENDBRANCH   1   2
BRANCH   1  19
ATOM     17  O   UNL     1      48.745   4.903  16.391  0.00  0.00    +0.000 OA
ATOM     18  C   UNL     1      48.380   5.869  15.724  0.00  0.00    +0.000 C 
ATOM     19  N   UNL     1      47.358   5.778  14.809  0.00  0.00    +0.000 N 
ATOM     20  H   UNL     1      47.235   6.522  14.129  0.00  0.00    +0.000 HD
BRANCH  18  21
ATOM     21  C   UNL     1      48.994   7.188  15.899  0.00  0.00    +0.000 A 
ATOM     22  C   UNL     1      49.019   7.779  17.155  0.00  0.00    +0.000 A 
ATOM     23  S   UNL     1      49.757   9.318  17.170  0.00  0.00    +0.000 S 
ATOM     24  C   UNL     1      50.119   9.219  15.512  0.00  0.00    +0.000 A 
ATOM     25  N   UNL     1      50.796  10.219  14.882  0.00  0.00    +0.000 NA
ATOM     26  C   UNL     1      51.047   9.991  13.636  0.00  0.00    +0.000 A 
ATOM     27  N   UNL     1      50.670   8.861  12.958  0.00  0.00    +0.000 N 
ATOM     28  C   UNL     1      49.944   7.848  13.538  0.00  0.00    +0.000 A 
ATOM     29  O   UNL     1      49.562   6.883  12.885  0.00  0.00    +0.000 OA
ATOM     30  C   UNL     1      49.659   8.045  14.948  0.00  0.00    +0.000 A 
ATOM     31  H   UNL     1      50.886   8.749  11.979  0.00  0.00    +0.000 HD
ENDBRANCH  18  21
ENDBRANCH   1  19
TORSDOF 6
ENDMDL
MODEL 6
REMARK VINA RESULT:    -7.188      4.356      8.877
REMARK INTER + INTRA:         -10.823
REMARK INTER:                  -9.960
REMARK INTRA:                  -0.863
REMARK UNBOUND:                -1.114
REMARK  Name = 
REMARK  6 active torsions:
REMARK  status: ('A' for Active; 'I' for Inactive)
REMARK    1  A    between atoms: C_2  and  C_19
REMARK    2  A    between atoms: N_3  and  C_4
REMARK    3  A    between atoms: C_4  and  C_5
REMARK    4  A    between atoms: C_8  and  C_9
REMARK    5  A    between atoms: C_9  and  N_10
REMARK    6  A    between atoms: N_10  and  C_11
REMARK                            x       y       z     vdW  Elec       q    Type
REMARK                         _______ _______ _______ _____ _____    ______ ____
ROOT
ATOM      1  C   UNL     1      47.120   3.411  16.816  0.00  0.00    +0.000 C 
ENDROOT
BRANCH   1   2
ATOM      2  C   UNL     1      48.588   3.349  17.149  0.00  0.00    +0.000 A 
ATOM      3  C   UNL     1      49.306   2.156  16.983  0.00  0.00    +0.000 A 
ATOM      4  C   UNL     1      50.676   2.100  17.260  0.00  0.00    +0.000 A 
ATOM      5  C   UNL     1      51.355   3.229  17.737  0.00  0.00    +0.000 A 
ATOM      6  C   UNL     1      50.637   4.423  17.906  0.00  0.00    +0.000 A 
ATOM      7  C   UNL     1      49.266   4.478  17.627  0.00  0.00    +0.000 A 
BRANCH   5   8
ATOM      8  C   UNL     1      52.825   3.156  18.083  0.00  0.00    +0.000 C 
BRANCH   8   9
ATOM      9  N   UNL     1      53.151   1.895  18.733  0.00  0.00    +0.000 N 
ATOM     10  H   UNL     1      52.434   1.544  19.360  0.00  0.00    +0.000 HD
BRANCH   9  11
ATOM     11  C   UNL     1      53.881   0.910  18.062  0.00  0.00    +0.000 A 
ATOM     12  C   UNL     1      53.848  -0.444  18.402  0.00  0.00    +0.000 A 
ATOM     13  C   UNL     1      54.526  -1.366  17.613  0.00  0.00    +0.000 A 
ATOM     14  N   UNL     1      55.219  -1.043  16.505  0.00  0.00    +0.000 NA
ATOM     15  C   UNL     1      55.222   0.262  16.170  0.00  0.00    +0.000 A 
ATOM     16  C   UNL     1      54.578   1.252  16.900  0.00  0.00    +0.000 A 
ENDBRANCH   9  11
ENDBRANCH   8   9
ENDBRANCH   5   8
ENDBRANCH   1   2
BRANCH   1  19
ATOM     17  O   UNL     1      47.264   3.086  14.078  0.00  0.00    +0.000 OA
ATOM     18  C   UNL     1      46.847   4.159  14.509  0.00  0.00    +0.000 C 
ATOM     19  N   UNL     1      46.817   4.442  15.854  0.00  0.00    +0.000 N 
ATOM     20  H   UNL     1      46.270   5.232  16.181  0.00  0.00    +0.000 HD
BRANCH  18  21
ATOM     21  C   UNL     1      46.394   5.217  13.601  0.00  0.00    +0.000 A 
ATOM     22  C   UNL     1      47.256   6.247  13.253  0.00  0.00    +0.000 A 
ATOM     23  S   UNL     1      46.558   7.396  12.202  0.00  0.00    +0.000 S 
ATOM     24  C   UNL     1      45.100   6.524  12.132  0.00  0.00    +0.000 A 
ATOM     25  N   UNL     1      44.064   6.952  11.358  0.00  0.00    +0.000 NA
ATOM     26  C   UNL     1      43.038   6.168  11.360  0.00  0.00    +0.000 A 
ATOM     27  N   UNL     1      42.947   5.003  12.076  0.00  0.00    +0.000 N 
ATOM     28  C   UNL     1      43.946   4.556  12.907  0.00  0.00    +0.000 A 
ATOM     29  O   UNL     1      43.804   3.546  13.589  0.00  0.00    +0.000 OA
ATOM     30  C   UNL     1      45.134   5.390  12.920  0.00  0.00    +0.000 A 
ATOM     31  H   UNL     1      42.110   4.440  12.044  0.00  0.00    +0.000 HD
ENDBRANCH  18  21
ENDBRANCH   1  19
TORSDOF 6
ENDMDL
MODEL 7
REMARK VINA RESULT:    -7.167      3.424      5.427
REMARK INTER + INTRA:         -10.795
REMARK INTER:                 -10.052
REMARK INTRA:                  -0.743
REMARK UNBOUND:                -1.114
REMARK  Name = 
REMARK  6 active torsions:
REMARK  status: ('A' for Active; 'I' for Inactive)
REMARK    1  A    between atoms: C_2  and  C_19
REMARK    2  A    between atoms: N_3  and  C_4
REMARK    3  A    between atoms: C_4  and  C_5
REMARK    4  A    between atoms: C_8  and  C_9
REMARK    5  A    between atoms: C_9  and  N_10
REMARK    6  A    between atoms: N_10  and  C_11
REMARK                            x       y       z     vdW  Elec       q    Type
REMARK                         _______ _______ _______ _____ _____    ______ ____
ROOT
ATOM      1  C   UNL     1      47.578   6.360  13.790  0.00  0.00    +0.000 C 
ENDROOT
BRANCH   1   2
ATOM      2  C   UNL     1      46.646   5.532  12.943  0.00  0.00    +0.000 A 
ATOM      3  C   UNL     1      46.385   4.195  13.271  0.00  0.00    +0.000 A 
ATOM      4  C   UNL     1      45.497   3.430  12.506  0.00  0.00    +0.000 A 
ATOM      5  C   UNL     1      44.870   3.978  11.380  0.00  0.00    +0.000 A 
ATOM      6  C   UNL     1      45.133   5.316  11.049  0.00  0.00    +0.000 A 
ATOM      7  C   UNL     1      46.021   6.080  11.816  0.00  0.00    +0.000 A 
BRANCH   5   8
ATOM      8  C   UNL     1      43.948   3.138  10.525  0.00  0.00    +0.000 C 
BRANCH   8   9
ATOM      9  N   UNL     1      44.110   3.449   9.113  0.00  0.00    +0.000 N 
ATOM     10  H   UNL     1      43.823   4.386   8.849  0.00  0.00    +0.000 HD
BRANCH   9  11
ATOM     11  C   UNL     1      45.187   2.935   8.385  0.00  0.00    +0.000 A 
ATOM     12  C   UNL     1      46.055   3.724   7.627  0.00  0.00    +0.000 A 
ATOM     13  C   UNL     1      47.161   3.139   7.021  0.00  0.00    +0.000 A 
ATOM     14  N   UNL     1      47.475   1.834   7.127  0.00  0.00    +0.000 NA
ATOM     15  C   UNL     1      46.647   1.087   7.882  0.00  0.00    +0.000 A 
ATOM     16  C   UNL     1      45.518   1.584   8.521  0.00  0.00    +0.000 A 
ENDBRANCH   9  11
ENDBRANCH   8   9
ENDBRANCH   5   8
ENDBRANCH   1   2
BRANCH   1  19
ATOM     17  O   UNL     1      49.160   7.432  11.798  0.00  0.00    +0.000 OA
ATOM     18  C   UNL     1      48.351   8.174  12.353  0.00  0.00    +0.000 C 
ATOM     19  N   UNL     1      47.580   7.750  13.409  0.00  0.00    +0.000 N 
ATOM     20  H   UNL     1      46.780   8.308  13.693  0.00  0.00    +0.000 HD
BRANCH  18  21
ATOM     21  C   UNL     1      48.196   9.571  11.940  0.00  0.00    +0.000 A 
ATOM     22  C   UNL     1      49.292  10.282  11.472  0.00  0.00    +0.000 A 
ATOM     23  S   UNL     1      48.931  11.896  11.053  0.00  0.00    +0.000 S 
ATOM     24  C   UNL     1      47.287  11.681  11.426  0.00  0.00    +0.000 A 
ATOM     25  N   UNL     1      46.391  12.693  11.253  0.00  0.00    +0.000 NA
ATOM     26  C   UNL     1      45.170  12.376  11.528  0.00  0.00    +0.000 A 
ATOM     27  N   UNL     1      44.764  11.146  11.975  0.00  0.00    +0.000 N 
ATOM     28  C   UNL     1      45.637  10.111  12.212  0.00  0.00    +0.000 A 
ATOM     29  O   UNL     1      45.250   9.045  12.680  0.00  0.00    +0.000 OA
ATOM     30  C   UNL     1      47.021  10.408  11.892  0.00  0.00    +0.000 A 
ATOM     31  H   UNL     1      43.794  10.966  12.186  0.00  0.00    +0.000 HD
ENDBRANCH  18  21
ENDBRANCH   1  19
TORSDOF 6
ENDMDL
MODEL 8
REMARK VINA RESULT:    -6.873      4.020      5.804
REMARK INTER + INTRA:         -10.398
REMARK INTER:                  -9.678
REMARK INTRA:                  -0.720
REMARK UNBOUND:                -1.114
REMARK  Name = 
REMARK  6 active torsions:
REMARK  status: ('A' for Active; 'I' for Inactive)
REMARK    1  A    between atoms: C_2  and  C_19
REMARK    2  A    between atoms: N_3  and  C_4
REMARK    3  A    between atoms: C_4  and  C_5
REMARK    4  A    between atoms: C_8  and  C_9
REMARK    5  A    between atoms: C_9  and  N_10
REMARK    6  A    between atoms: N_10  and  C_11
REMARK                            x       y       z     vdW  Elec       q    Type
REMARK                         _______ _______ _______ _____ _____    ______ ____
ROOT
ATOM      1  C   UNL     1      46.458   4.196  14.257  0.00  0.00    +0.000 C 
ENDROOT
BRANCH   1   2
ATOM      2  C   UNL     1      45.971   5.373  13.452  0.00  0.00    +0.000 A 
ATOM      3  C   UNL     1      44.668   5.393  12.936  0.00  0.00    +0.000 A 
ATOM      4  C   UNL     1      44.200   6.497  12.214  0.00  0.00    +0.000 A 
ATOM      5  C   UNL     1      45.033   7.595  11.969  0.00  0.00    +0.000 A 
ATOM      6  C   UNL     1      46.339   7.575  12.483  0.00  0.00    +0.000 A 
ATOM      7  C   UNL     1      46.806   6.471  13.205  0.00  0.00    +0.000 A 
BRANCH   5   8
ATOM      8  C   UNL     1      44.544   8.767  11.148  0.00  0.00    +0.000 C 
BRANCH   8   9
ATOM      9  N   UNL     1      43.097   8.732  10.992  0.00  0.00    +0.000 N 
ATOM     10  H   UNL     1      42.600   8.269  11.746  0.00  0.00    +0.000 HD
BRANCH   9  11
ATOM     11  C   UNL     1      42.413   9.800  10.403  0.00  0.00    +0.000 A 
ATOM     12  C   UNL     1      41.132  10.203  10.785  0.00  0.00    +0.000 A 
ATOM     13  C   UNL     1      40.573  11.341  10.216  0.00  0.00    +0.000 A 
ATOM     14  N   UNL     1      41.199  12.115   9.309  0.00  0.00    +0.000 NA
ATOM     15  C   UNL     1      42.445  11.732   8.967  0.00  0.00    +0.000 A 
ATOM     16  C   UNL     1      43.081  10.610   9.480  0.00  0.00    +0.000 A 
ENDBRANCH   9  11
ENDBRANCH   8   9
ENDBRANCH   5   8
ENDBRANCH   1   2
BRANCH   1  19
ATOM     17  O   UNL     1      46.606   3.394  16.894  0.00  0.00    +0.000 OA
ATOM     18  C   UNL     1      47.547   4.038  16.435  0.00  0.00    +0.000 C 
ATOM     19  N   UNL     1      47.526   4.550  15.159  0.00  0.00    +0.000 N 
ATOM     20  H   UNL     1      48.392   4.877  14.743  0.00  0.00    +0.000 HD
BRANCH  18  21
ATOM     21  C   UNL     1      48.732   4.332  17.245  0.00  0.00    +0.000 A 
ATOM     22  C   UNL     1      48.780   5.488  18.011  0.00  0.00    +0.000 A 
ATOM     23  S   UNL     1      50.239   5.675  18.875  0.00  0.00    +0.000 S 
ATOM     24  C   UNL     1      50.832   4.190  18.300  0.00  0.00    +0.000 A 
ATOM     25  N   UNL     1      52.049   3.721  18.693  0.00  0.00    +0.000 NA
ATOM     26  C   UNL     1      52.352   2.559  18.219  0.00  0.00    +0.000 A 
ATOM     27  N   UNL     1      51.556   1.828  17.375  0.00  0.00    +0.000 N 
ATOM     28  C   UNL     1      50.343   2.280  16.912  0.00  0.00    +0.000 A 
ATOM     29  O   UNL     1      49.688   1.633  16.102  0.00  0.00    +0.000 OA
ATOM     30  C   UNL     1      49.945   3.573  17.438  0.00  0.00    +0.000 A 
ATOM     31  H   UNL     1      51.857   0.930  17.028  0.00  0.00    +0.000 HD
ENDBRANCH  18  21
ENDBRANCH   1  19
TORSDOF 6
ENDMDL
MODEL 9
REMARK VINA RESULT:    -6.854      3.960      9.807
REMARK INTER + INTRA:         -10.372
REMARK INTER:                  -9.423
REMARK INTRA:                  -0.949
REMARK UNBOUND:                -1.114
REMARK  Name = 
REMARK  6 active torsions:
REMARK  status: ('A' for Active; 'I' for Inactive)
REMARK    1  A    between atoms: C_2  and  C_19
REMARK    2  A    between atoms: N_3  and  C_4
REMARK    3  A    between atoms: C_4  and  C_5
REMARK    4  A    between atoms: C_8  and  C_9
REMARK    5  A    between atoms: C_9  and  N_10
REMARK    6  A    between atoms: N_10  and  C_11
REMARK                            x       y       z     vdW  Elec       q    Type
REMARK                         _______ _______ _______ _____ _____    ______ ____
ROOT
ATOM      1  C   UNL     1      47.120   3.463  16.741  0.00  0.00    +0.000 C 
ENDROOT
BRANCH   1   2
ATOM      2  C   UNL     1      48.592   3.443  17.066  0.00  0.00    +0.000 A 
ATOM      3  C   UNL     1      49.250   4.616  17.457  0.00  0.00    +0.000 A 
ATOM      4  C   UNL     1      50.609   4.597  17.790  0.00  0.00    +0.000 A 
ATOM      5  C   UNL     1      51.348   3.410  17.712  0.00  0.00    +0.000 A 
ATOM      6  C   UNL     1      50.690   2.235  17.318  0.00  0.00    +0.000 A 
ATOM      7  C   UNL     1      49.330   2.255  16.986  0.00  0.00    +0.000 A 
BRANCH   5   8
ATOM      8  C   UNL     1      52.827   3.399  18.025  0.00  0.00    +0.000 C 
BRANCH   8   9
ATOM      9  N   UNL     1      53.063   3.233  19.451  0.00  0.00    +0.000 N 
ATOM     10  H   UNL     1      53.673   2.458  19.692  0.00  0.00    +0.000 HD
BRANCH   9  11
ATOM     11  C   UNL     1      53.154   4.341  20.297  0.00  0.00    +0.000 A 
ATOM     12  C   UNL     1      54.104   5.354  20.146  0.00  0.00    +0.000 A 
ATOM     13  C   UNL     1      54.053   6.471  20.971  0.00  0.00    +0.000 A 
ATOM     14  N   UNL     1      53.120   6.662  21.923  0.00  0.00    +0.000 NA
ATOM     15  C   UNL     1      52.192   5.692  22.043  0.00  0.00    +0.000 A 
ATOM     16  C   UNL     1      52.167   4.541  21.266  0.00  0.00    +0.000 A 
ENDBRANCH   9  11
ENDBRANCH   8   9
ENDBRANCH   5   8
ENDBRANCH   1   2
BRANCH   1  19
ATOM     17  O   UNL     1      47.231   3.137  14.002  0.00  0.00    +0.000 OA
ATOM     18  C   UNL     1      46.798   4.202  14.438  0.00  0.00    +0.000 C 
ATOM     19  N   UNL     1      46.782   4.486  15.783  0.00  0.00    +0.000 N 
ATOM     20  H   UNL     1      46.224   5.266  16.117  0.00  0.00    +0.000 HD
BRANCH  18  21
ATOM     21  C   UNL     1      46.311   5.249  13.536  0.00  0.00    +0.000 A 
ATOM     22  C   UNL     1      47.136   6.314  13.199  0.00  0.00    +0.000 A 
ATOM     23  S   UNL     1      46.400   7.444  12.154  0.00  0.00    +0.000 S 
ATOM     24  C   UNL     1      44.976   6.519  12.070  0.00  0.00    +0.000 A 
ATOM     25  N   UNL     1      43.929   6.914  11.294  0.00  0.00    +0.000 NA
ATOM     26  C   UNL     1      42.933   6.092  11.285  0.00  0.00    +0.000 A 
ATOM     27  N   UNL     1      42.881   4.919  11.992  0.00  0.00    +0.000 N 
ATOM     28  C   UNL     1      43.892   4.503  12.825  0.00  0.00    +0.000 A 
ATOM     29  O   UNL     1      43.785   3.484  13.498  0.00  0.00    +0.000 OA
ATOM     30  C   UNL     1      45.048   5.381  12.850  0.00  0.00    +0.000 A 
ATOM     31  H   UNL     1      42.066   4.326  11.951  0.00  0.00    +0.000 HD
ENDBRANCH  18  21
ENDBRANCH   1  19
TORSDOF 6
ENDMDL
