MODEL 1
REMARK VINA RESULT:    -8.076      0.000      0.000
REMARK INTER + INTRA:         -12.387
REMARK INTER:                 -11.381
REMARK INTRA:                  -1.006
REMARK UNBOUND:                -1.006
REMARK  Name = 
REMARK  9 active torsions:
REMARK  status: ('A' for Active; 'I' for Inactive)
REMARK    1  A    between atoms: C_1  and  O_2
REMARK    2  A    between atoms: O_2  and  C_3
REMARK    3  A    between atoms: C_5  and  C_6
REMARK    4  A    between atoms: C_6  and  C_7
REMARK    5  A    between atoms: C_7  and  N_8
REMARK    6  A    between atoms: C_12  and  C_13
REMARK    7  A    between atoms: C_19  and  C_20
REMARK    8  A    between atoms: C_25  and  O_26
REMARK    9  A    between atoms: O_26  and  C_27
REMARK                            x       y       z     vdW  Elec       q    Type
REMARK                         _______ _______ _______ _____ _____    ______ ____
ROOT
ATOM      1  C   UNL     1      46.315   4.775  14.028  0.00  0.00    +0.000 A 
ATOM      2  C   UNL     1      45.122   4.634  13.321  0.00  0.00    +0.000 A 
ATOM      3  C   UNL     1      44.835   5.490  12.252  0.00  0.00    +0.000 A 
ATOM      4  C   UNL     1      45.800   6.437  11.863  0.00  0.00    +0.000 A 
ATOM      5  C   UNL     1      47.007   6.633  12.573  0.00  0.00    +0.000 A 
ATOM      6  C   UNL     1      47.225   5.775  13.663  0.00  0.00    +0.000 A 
ENDROOT
BRANCH   5   7
ATOM      7  C   UNL     1      47.934   7.767  12.247  0.00  0.00    +0.000 A 
ATOM      8  C   UNL     1      49.248   7.458  11.817  0.00  0.00    +0.000 A 
ATOM      9  C   UNL     1      50.164   8.435  11.423  0.00  0.00    +0.000 A 
ATOM     10  C   UNL     1      49.796   9.767  11.442  0.00  0.00    +0.000 A 
ATOM     11  C   UNL     1      48.522  10.122  11.872  0.00  0.00    +0.000 A 
ATOM     12  C   UNL     1      47.583   9.144  12.262  0.00  0.00    +0.000 A 
BRANCH  12  13
ATOM     13  O   UNL     1      46.330   9.505  12.700  0.00  0.00    +0.000 OA
ATOM     14  C   UNL     1      45.540  10.269  11.791  0.00  0.00    +0.000 C 
ENDBRANCH  12  13
ENDBRANCH   5   7
BRANCH   1  16
ATOM     15  C   UNL     1      47.674   4.611  15.973  0.00  0.00    +0.000 C 
ATOM     16  O   UNL     1      46.701   4.036  15.114  0.00  0.00    +0.000 OA
ENDBRANCH   1  16
BRANCH   3  17
ATOM     17  C   UNL     1      43.498   5.425  11.545  0.00  0.00    +0.000 C 
BRANCH  17  18
ATOM     18  C   UNL     1      43.604   4.844  10.136  0.00  0.00    +0.000 C 
BRANCH  18  19
ATOM     19  N   UNL     1      43.874   3.397  10.180  0.00  0.00    +0.000 N 
ATOM     20  C   UNL     1      44.831   3.004   9.220  0.00  0.00    +0.000 A 
ATOM     21  C   UNL     1      45.223   1.662   9.103  0.00  0.00    +0.000 A 
ATOM     22  N   UNL     1      46.141   1.206   8.201  0.00  0.00    +0.000 NA
ATOM     23  C   UNL     1      46.675   2.175   7.409  0.00  0.00    +0.000 A 
ATOM     24  C   UNL     1      46.315   3.506   7.522  0.00  0.00    +0.000 A 
ATOM     25  N   UNL     1      45.397   3.935   8.425  0.00  0.00    +0.000 NA
ATOM     26  H   UNL     1      43.030   2.845  10.043  0.00  0.00    +0.000 HD
BRANCH  23  27
ATOM     27  C   UNL     1      47.678   1.785   6.383  0.00  0.00    +0.000 C 
ATOM     28  N   UNL     1      48.806   2.554   6.310  0.00  0.00    +0.000 N 
ATOM     29  O   UNL     1      47.513   0.825   5.636  0.00  0.00    +0.000 OA
ATOM     30  H   UNL     1      48.926   3.342   6.933  0.00  0.00    +0.000 HD
ATOM     31  H   UNL     1      49.516   2.320   5.631  0.00  0.00    +0.000 HD
ENDBRANCH  23  27
ENDBRANCH  18  19
ENDBRANCH  17  18
ENDBRANCH   3  17
TORSDOF 7
ENDMDL
MODEL 2
REMARK VINA RESULT:    -7.528      1.211      1.909
REMARK INTER + INTRA:         -11.615
REMARK INTER:                 -10.794
REMARK INTRA:                  -0.820
REMARK UNBOUND:                -1.006
REMARK  Name = 
REMARK  9 active torsions:
REMARK  status: ('A' for Active; 'I' for Inactive)
REMARK    1  A    between atoms: C_1  and  O_2
REMARK    2  A    between atoms: O_2  and  C_3
REMARK    3  A    between atoms: C_5  and  C_6
REMARK    4  A    between atoms: C_6  and  C_7
REMARK    5  A    between atoms: C_7  and  N_8
REMARK    6  A    between atoms: C_12  and  C_13
REMARK    7  A    between atoms: C_19  and  C_20
REMARK    8  A    between atoms: C_25  and  O_26
REMARK    9  A    between atoms: O_26  and  C_27
REMARK                            x       y       z     vdW  Elec       q    Type
REMARK                         _______ _______ _______ _____ _____    ______ ____
ROOT
ATOM      1  C   UNL     1      46.985   5.147  14.035  0.00  0.00    +0.000 A 
ATOM      2  C   UNL     1      45.682   4.816  13.667  0.00  0.00    +0.000 A 
ATOM      3  C   UNL     1      44.967   5.647  12.797  0.00  0.00    +0.000 A 
ATOM      4  C   UNL     1      45.611   6.772  12.250  0.00  0.00    +0.000 A 
ATOM      5  C   UNL     1      46.918   7.159  12.622  0.00  0.00    +0.000 A 
ATOM      6  C   UNL     1      47.575   6.314  13.531  0.00  0.00    +0.000 A 
ENDROOT
BRANCH   5   7
ATOM      7  C   UNL     1      47.513   8.458  12.162  0.00  0.00    +0.000 A 
ATOM      8  C   UNL     1      46.656   9.578  12.024  0.00  0.00    +0.000 A 
ATOM      9  C   UNL     1      47.120  10.846  11.671  0.00  0.00    +0.000 A 
ATOM     10  C   UNL     1      48.469  11.044  11.444  0.00  0.00    +0.000 A 
ATOM     11  C   UNL     1      49.348   9.971  11.552  0.00  0.00    +0.000 A 
ATOM     12  C   UNL     1      48.894   8.688  11.919  0.00  0.00    +0.000 A 
BRANCH  12  13
ATOM     13  O   UNL     1      49.769   7.629  12.008  0.00  0.00    +0.000 OA
ATOM     14  C   UNL     1      50.805   7.584  11.029  0.00  0.00    +0.000 C 
ENDBRANCH  12  13
ENDBRANCH   5   7
BRANCH   1  16
ATOM     15  C   UNL     1      47.265   4.221  16.209  0.00  0.00    +0.000 C 
ATOM     16  O   UNL     1      47.779   4.450  14.905  0.00  0.00    +0.000 OA
ENDBRANCH   1  16
BRANCH   3  17
ATOM     17  C   UNL     1      43.515   5.364  12.475  0.00  0.00    +0.000 C 
BRANCH  17  18
ATOM     18  C   UNL     1      43.301   4.969  11.015  0.00  0.00    +0.000 C 
BRANCH  18  19
ATOM     19  N   UNL     1      43.580   3.537  10.808  0.00  0.00    +0.000 N 
ATOM     20  C   UNL     1      44.469   3.317   9.735  0.00  0.00    +0.000 A 
ATOM     21  C   UNL     1      44.858   2.017   9.378  0.00  0.00    +0.000 A 
ATOM     22  N   UNL     1      45.713   1.724   8.354  0.00  0.00    +0.000 NA
ATOM     23  C   UNL     1      46.187   2.815   7.694  0.00  0.00    +0.000 A 
ATOM     24  C   UNL     1      45.830   4.106   8.042  0.00  0.00    +0.000 A 
ATOM     25  N   UNL     1      44.975   4.371   9.063  0.00  0.00    +0.000 NA
ATOM     26  H   UNL     1      42.730   3.001  10.643  0.00  0.00    +0.000 HD
BRANCH  23  27
ATOM     27  C   UNL     1      47.117   2.609   6.552  0.00  0.00    +0.000 C 
ATOM     28  N   UNL     1      48.259   1.905   6.816  0.00  0.00    +0.000 N 
ATOM     29  O   UNL     1      46.882   3.041   5.428  0.00  0.00    +0.000 OA
ATOM     30  H   UNL     1      48.438   1.556   7.749  0.00  0.00    +0.000 HD
ATOM     31  H   UNL     1      48.915   1.737   6.067  0.00  0.00    +0.000 HD
ENDBRANCH  23  27
ENDBRANCH  18  19
ENDBRANCH  17  18
ENDBRANCH   3  17
TORSDOF 7
ENDMDL
MODEL 3
REMARK VINA RESULT:    -7.394      1.474      3.933
REMARK INTER + INTRA:         -11.426
REMARK INTER:                 -10.449
REMARK INTRA:                  -0.977
REMARK UNBOUND:                -1.006
REMARK  Name = 
REMARK  9 active torsions:
REMARK  status: ('A' for Active; 'I' for Inactive)
REMARK    1  A    between atoms: C_1  and  O_2
REMARK    2  A    between atoms: O_2  and  C_3
REMARK    3  A    between atoms: C_5  and  C_6
REMARK    4  A    between atoms: C_6  and  C_7
REMARK    5  A    between atoms: C_7  and  N_8
REMARK    6  A    between atoms: C_12  and  C_13
REMARK    7  A    between atoms: C_19  and  C_20
REMARK    8  A    between atoms: C_25  and  O_26
REMARK    9  A    between atoms: O_26  and  C_27
REMARK                            x       y       z     vdW  Elec       q    Type
REMARK                         _______ _______ _______ _____ _____    ______ ____
ROOT
ATOM      1  C   UNL     1      47.472   6.786  11.879  0.00  0.00    +0.000 A 
ATOM      2  C   UNL     1      46.146   6.569  11.506  0.00  0.00    +0.000 A 
ATOM      3  C   UNL     1      45.298   5.826  12.335  0.00  0.00    +0.000 A 
ATOM      4  C   UNL     1      45.786   5.371  13.574  0.00  0.00    +0.000 A 
ATOM      5  C   UNL     1      47.131   5.543  13.974  0.00  0.00    +0.000 A 
ATOM      6  C   UNL     1      47.950   6.259  13.086  0.00  0.00    +0.000 A 
ENDROOT
BRANCH   5   7
ATOM      7  C   UNL     1      47.669   4.894  15.215  0.00  0.00    +0.000 A 
ATOM      8  C   UNL     1      47.486   3.499  15.378  0.00  0.00    +0.000 A 
ATOM      9  C   UNL     1      48.008   2.789  16.460  0.00  0.00    +0.000 A 
ATOM     10  C   UNL     1      48.741   3.452  17.426  0.00  0.00    +0.000 A 
ATOM     11  C   UNL     1      48.936   4.825  17.318  0.00  0.00    +0.000 A 
ATOM     12  C   UNL     1      48.423   5.553  16.224  0.00  0.00    +0.000 A 
BRANCH  12  13
ATOM     13  O   UNL     1      48.606   6.913  16.134  0.00  0.00    +0.000 OA
ATOM     14  C   UNL     1      49.951   7.358  15.966  0.00  0.00    +0.000 C 
ENDBRANCH  12  13
ENDBRANCH   5   7
BRANCH   1  16
ATOM     15  C   UNL     1      49.574   7.897  11.839  0.00  0.00    +0.000 C 
ATOM     16  O   UNL     1      48.415   7.455  11.148  0.00  0.00    +0.000 OA
ENDBRANCH   1  16
BRANCH   3  17
ATOM     17  C   UNL     1      43.890   5.485  11.895  0.00  0.00    +0.000 C 
BRANCH  17  18
ATOM     18  C   UNL     1      43.826   4.997  10.448  0.00  0.00    +0.000 C 
BRANCH  18  19
ATOM     19  N   UNL     1      43.959   3.532  10.379  0.00  0.00    +0.000 N 
ATOM     20  C   UNL     1      44.886   3.126   9.396  0.00  0.00    +0.000 A 
ATOM     21  C   UNL     1      45.153   1.767   9.175  0.00  0.00    +0.000 A 
ATOM     22  N   UNL     1      46.034   1.299   8.243  0.00  0.00    +0.000 NA
ATOM     23  C   UNL     1      46.667   2.272   7.534  0.00  0.00    +0.000 A 
ATOM     24  C   UNL     1      46.432   3.618   7.750  0.00  0.00    +0.000 A 
ATOM     25  N   UNL     1      45.547   4.060   8.680  0.00  0.00    +0.000 NA
ATOM     26  H   UNL     1      43.068   3.074  10.195  0.00  0.00    +0.000 HD
BRANCH  23  27
ATOM     27  C   UNL     1      47.642   1.871   6.484  0.00  0.00    +0.000 C 
ATOM     28  N   UNL     1      48.739   2.672   6.333  0.00  0.00    +0.000 N 
ATOM     29  O   UNL     1      47.481   0.874   5.787  0.00  0.00    +0.000 OA
ATOM     30  H   UNL     1      48.856   3.491   6.917  0.00  0.00    +0.000 HD
ATOM     31  H   UNL     1      49.429   2.433   5.636  0.00  0.00    +0.000 HD
ENDBRANCH  23  27
ENDBRANCH  18  19
ENDBRANCH  17  18
ENDBRANCH   3  17
TORSDOF 7
ENDMDL
MODEL 4
REMARK VINA RESULT:    -6.690      2.439      4.165
REMARK INTER + INTRA:         -10.433
REMARK INTER:                  -9.573
REMARK INTRA:                  -0.861
REMARK UNBOUND:                -1.006
REMARK  Name = 
REMARK  9 active torsions:
REMARK  status: ('A' for Active; 'I' for Inactive)
REMARK    1  A    between atoms: C_1  and  O_2
REMARK    2  A    between atoms: O_2  and  C_3
REMARK    3  A    between atoms: C_5  and  C_6
REMARK    4  A    between atoms: C_6  and  C_7
REMARK    5  A    between atoms: C_7  and  N_8
REMARK    6  A    between atoms: C_12  and  C_13
REMARK    7  A    between atoms: C_19  and  C_20
REMARK    8  A    between atoms: C_25  and  O_26
REMARK    9  A    between atoms: O_26  and  C_27
REMARK                            x       y       z     vdW  Elec       q    Type
REMARK                         _______ _______ _______ _____ _____    ______ ____
ROOT
ATOM      1  C   UNL     1      46.099   8.725  12.584  0.00  0.00    +0.000 A 
ATOM      2  C   UNL     1      45.657   7.403  12.590  0.00  0.00    +0.000 A 
ATOM      3  C   UNL     1      44.530   7.037  11.846  0.00  0.00    +0.000 A 
ATOM      4  C   UNL     1      43.903   8.006  11.041  0.00  0.00    +0.000 A 
ATOM      5  C   UNL     1      44.300   9.363  11.032  0.00  0.00    +0.000 A 
ATOM      6  C   UNL     1      45.411   9.685  11.829  0.00  0.00    +0.000 A 
ENDROOT
BRANCH   5   7
ATOM      7  C   UNL     1      43.505  10.408  10.305  0.00  0.00    +0.000 A 
ATOM      8  C   UNL     1      43.817  10.666   8.947  0.00  0.00    +0.000 A 
ATOM      9  C   UNL     1      43.094  11.566   8.164  0.00  0.00    +0.000 A 
ATOM     10  C   UNL     1      42.022  12.245   8.712  0.00  0.00    +0.000 A 
ATOM     11  C   UNL     1      41.687  12.038  10.046  0.00  0.00    +0.000 A 
ATOM     12  C   UNL     1      42.402  11.123  10.845  0.00  0.00    +0.000 A 
BRANCH  12  13
ATOM     13  O   UNL     1      42.074  10.936  12.168  0.00  0.00    +0.000 OA
ATOM     14  C   UNL     1      40.952  11.675  12.649  0.00  0.00    +0.000 C 
ENDBRANCH  12  13
ENDBRANCH   5   7
BRANCH   1  16
ATOM     15  C   UNL     1      48.261   8.359  13.505  0.00  0.00    +0.000 C 
ATOM     16  O   UNL     1      47.156   9.225  13.294  0.00  0.00    +0.000 OA
ENDBRANCH   1  16
BRANCH   3  17
ATOM     17  C   UNL     1      43.970   5.633  11.930  0.00  0.00    +0.000 C 
BRANCH  17  18
ATOM     18  C   UNL     1      43.599   5.064  10.561  0.00  0.00    +0.000 C 
BRANCH  18  19
ATOM     19  N   UNL     1      43.958   3.639  10.466  0.00  0.00    +0.000 N 
ATOM     20  C   UNL     1      44.819   3.377   9.378  0.00  0.00    +0.000 A 
ATOM     21  C   UNL     1      45.275   2.076   9.118  0.00  0.00    +0.000 A 
ATOM     22  N   UNL     1      46.107   1.745   8.087  0.00  0.00    +0.000 NA
ATOM     23  C   UNL     1      46.486   2.800   7.316  0.00  0.00    +0.000 A 
ATOM     24  C   UNL     1      46.063   4.093   7.567  0.00  0.00    +0.000 A 
ATOM     25  N   UNL     1      45.232   4.396   8.597  0.00  0.00    +0.000 NA
ATOM     26  H   UNL     1      43.139   3.041  10.384  0.00  0.00    +0.000 HD
BRANCH  23  27
ATOM     27  C   UNL     1      47.384   2.549   6.157  0.00  0.00    +0.000 C 
ATOM     28  N   UNL     1      48.722   2.469   6.429  0.00  0.00    +0.000 N 
ATOM     29  O   UNL     1      46.959   2.417   5.014  0.00  0.00    +0.000 OA
ATOM     30  H   UNL     1      49.056   2.580   7.377  0.00  0.00    +0.000 HD
ATOM     31  H   UNL     1      49.366   2.293   5.672  0.00  0.00    +0.000 HD
ENDBRANCH  23  27
ENDBRANCH  18  19
ENDBRANCH  17  18
ENDBRANCH   3  17
TORSDOF 7
ENDMDL
MODEL 5
REMARK VINA RESULT:    -6.666      3.927      7.915
REMARK INTER + INTRA:         -10.400
REMARK INTER:                  -9.502
REMARK INTRA:                  -0.898
REMARK UNBOUND:                -1.006
REMARK  Name = 
REMARK  9 active torsions:
REMARK  status: ('A' for Active; 'I' for Inactive)
REMARK    1  A    between atoms: C_1  and  O_2
REMARK    2  A    between atoms: O_2  and  C_3
REMARK    3  A    between atoms: C_5  and  C_6
REMARK    4  A    between atoms: C_6  and  C_7
REMARK    5  A    between atoms: C_7  and  N_8
REMARK    6  A    between atoms: C_12  and  C_13
REMARK    7  A    between atoms: C_19  and  C_20
REMARK    8  A    between atoms: C_25  and  O_26
REMARK    9  A    between atoms: O_26  and  C_27
REMARK                            x       y       z     vdW  Elec       q    Type
REMARK                         _______ _______ _______ _____ _____    ______ ____
ROOT
ATOM      1  C   UNL     1      45.981   9.100  12.067  0.00  0.00    +0.000 A 
ATOM      2  C   UNL     1      47.335   9.056  12.396  0.00  0.00    +0.000 A 
ATOM      3  C   UNL     1      47.999   7.827  12.471  0.00  0.00    +0.000 A 
ATOM      4  C   UNL     1      47.297   6.654  12.138  0.00  0.00    +0.000 A 
ATOM      5  C   UNL     1      45.917   6.652  11.832  0.00  0.00    +0.000 A 
ATOM      6  C   UNL     1      45.289   7.908  11.812  0.00  0.00    +0.000 A 
ENDROOT
BRANCH   5   7
ATOM      7  C   UNL     1      45.154   5.371  11.657  0.00  0.00    +0.000 A 
ATOM      8  C   UNL     1      44.460   4.846  12.774  0.00  0.00    +0.000 A 
ATOM      9  C   UNL     1      43.665   3.701  12.699  0.00  0.00    +0.000 A 
ATOM     10  C   UNL     1      43.532   3.036  11.495  0.00  0.00    +0.000 A 
ATOM     11  C   UNL     1      44.207   3.504  10.373  0.00  0.00    +0.000 A 
ATOM     12  C   UNL     1      45.005   4.666  10.432  0.00  0.00    +0.000 A 
BRANCH  12  13
ATOM     13  O   UNL     1      45.682   5.113   9.321  0.00  0.00    +0.000 OA
ATOM     14  C   UNL     1      45.728   4.221   8.210  0.00  0.00    +0.000 C 
ENDBRANCH  12  13
ENDBRANCH   5   7
BRANCH   1  16
ATOM     15  C   UNL     1      44.018  10.143  11.221  0.00  0.00    +0.000 C 
ATOM     16  O   UNL     1      45.203  10.223  11.999  0.00  0.00    +0.000 OA
ENDBRANCH   1  16
BRANCH   3  17
ATOM     17  C   UNL     1      49.439   7.752  12.935  0.00  0.00    +0.000 C 
BRANCH  17  18
ATOM     18  C   UNL     1      49.647   8.379  14.314  0.00  0.00    +0.000 C 
BRANCH  18  19
ATOM     19  N   UNL     1      50.549   7.555  15.137  0.00  0.00    +0.000 N 
ATOM     20  C   UNL     1      49.860   6.533  15.824  0.00  0.00    +0.000 A 
ATOM     21  C   UNL     1      50.546   5.641  16.662  0.00  0.00    +0.000 A 
ATOM     22  N   UNL     1      49.950   4.629  17.358  0.00  0.00    +0.000 NA
ATOM     23  C   UNL     1      48.607   4.533  17.163  0.00  0.00    +0.000 A 
ATOM     24  C   UNL     1      47.915   5.390  16.326  0.00  0.00    +0.000 A 
ATOM     25  N   UNL     1      48.530   6.392  15.647  0.00  0.00    +0.000 NA
ATOM     26  H   UNL     1      51.065   8.113  15.815  0.00  0.00    +0.000 HD
BRANCH  23  27
ATOM     27  C   UNL     1      47.856   3.470  17.884  0.00  0.00    +0.000 C 
ATOM     28  N   UNL     1      48.399   3.029  19.058  0.00  0.00    +0.000 N 
ATOM     29  O   UNL     1      46.801   3.008  17.458  0.00  0.00    +0.000 OA
ATOM     30  H   UNL     1      49.269   3.421  19.395  0.00  0.00    +0.000 HD
ATOM     31  H   UNL     1      47.918   2.313  19.582  0.00  0.00    +0.000 HD
ENDBRANCH  23  27
ENDBRANCH  18  19
ENDBRANCH  17  18
ENDBRANCH   3  17
TORSDOF 7
ENDMDL
MODEL 6
REMARK VINA RESULT:    -6.562      1.799      3.092
REMARK INTER + INTRA:         -10.254
REMARK INTER:                  -9.279
REMARK INTRA:                  -0.975
REMARK UNBOUND:                -1.006
REMARK  Name = 
REMARK  9 active torsions:
REMARK  status: ('A' for Active; 'I' for Inactive)
REMARK    1  A    between atoms: C_1  and  O_2
REMARK    2  A    between atoms: O_2  and  C_3
REMARK    3  A    between atoms: C_5  and  C_6
REMARK    4  A    between atoms: C_6  and  C_7
REMARK    5  A    between atoms: C_7  and  N_8
REMARK    6  A    between atoms: C_12  and  C_13
REMARK    7  A    between atoms: C_19  and  C_20
REMARK    8  A    between atoms: C_25  and  O_26
REMARK    9  A    between atoms: O_26  and  C_27
REMARK                            x       y       z     vdW  Elec       q    Type
REMARK                         _______ _______ _______ _____ _____    ______ ____
ROOT
ATOM      1  C   UNL     1      44.694   9.091  11.364  0.00  0.00    +0.000 A 
ATOM      2  C   UNL     1      44.042   7.869  11.522  0.00  0.00    +0.000 A 
ATOM      3  C   UNL     1      44.749   6.751  11.977  0.00  0.00    +0.000 A 
ATOM      4  C   UNL     1      46.100   6.903  12.340  0.00  0.00    +0.000 A 
ATOM      5  C   UNL     1      46.805   8.115  12.165  0.00  0.00    +0.000 A 
ATOM      6  C   UNL     1      46.059   9.195  11.665  0.00  0.00    +0.000 A 
ENDROOT
BRANCH   5   7
ATOM      7  C   UNL     1      48.287   8.201  12.391  0.00  0.00    +0.000 A 
ATOM      8  C   UNL     1      49.150   7.738  11.367  0.00  0.00    +0.000 A 
ATOM      9  C   UNL     1      50.540   7.837  11.448  0.00  0.00    +0.000 A 
ATOM     10  C   UNL     1      51.122   8.410  12.563  0.00  0.00    +0.000 A 
ATOM     11  C   UNL     1      50.317   8.865  13.602  0.00  0.00    +0.000 A 
ATOM     12  C   UNL     1      48.911   8.780  13.528  0.00  0.00    +0.000 A 
BRANCH  12  13
ATOM     13  O   UNL     1      48.123   9.219  14.567  0.00  0.00    +0.000 OA
ATOM     14  C   UNL     1      48.431   8.692  15.856  0.00  0.00    +0.000 C 
ENDBRANCH  12  13
ENDBRANCH   5   7
BRANCH   1  16
ATOM     15  C   UNL     1      45.003  11.360  10.718  0.00  0.00    +0.000 C 
ATOM     16  O   UNL     1      44.137  10.248  10.891  0.00  0.00    +0.000 OA
ENDBRANCH   1  16
BRANCH   3  17
ATOM     17  C   UNL     1      44.085   5.392  12.047  0.00  0.00    +0.000 C 
BRANCH  17  18
ATOM     18  C   UNL     1      43.625   4.890  10.679  0.00  0.00    +0.000 C 
BRANCH  18  19
ATOM     19  N   UNL     1      43.980   3.472  10.490  0.00  0.00    +0.000 N 
ATOM     20  C   UNL     1      44.840   3.281   9.388  0.00  0.00    +0.000 A 
ATOM     21  C   UNL     1      45.292   1.998   9.042  0.00  0.00    +0.000 A 
ATOM     22  N   UNL     1      46.123   1.734   7.992  0.00  0.00    +0.000 NA
ATOM     23  C   UNL     1      46.508   2.836   7.293  0.00  0.00    +0.000 A 
ATOM     24  C   UNL     1      46.089   4.111   7.629  0.00  0.00    +0.000 A 
ATOM     25  N   UNL     1      45.258   4.348   8.677  0.00  0.00    +0.000 NA
ATOM     26  H   UNL     1      43.158   2.884  10.367  0.00  0.00    +0.000 HD
BRANCH  23  27
ATOM     27  C   UNL     1      47.406   2.659   6.121  0.00  0.00    +0.000 C 
ATOM     28  N   UNL     1      48.720   2.399   6.393  0.00  0.00    +0.000 N 
ATOM     29  O   UNL     1      47.000   2.739   4.965  0.00  0.00    +0.000 OA
ATOM     30  H   UNL     1      49.038   2.337   7.352  0.00  0.00    +0.000 HD
ATOM     31  H   UNL     1      49.363   2.266   5.627  0.00  0.00    +0.000 HD
ENDBRANCH  23  27
ENDBRANCH  18  19
ENDBRANCH  17  18
ENDBRANCH   3  17
TORSDOF 7
ENDMDL
MODEL 7
REMARK VINA RESULT:    -6.388      4.901      8.413
REMARK INTER + INTRA:         -10.008
REMARK INTER:                  -9.222
REMARK INTRA:                  -0.786
REMARK UNBOUND:                -1.006
REMARK  Name = 
REMARK  9 active torsions:
REMARK  status: ('A' for Active; 'I' for Inactive)
REMARK    1  A    between atoms: C_1  and  O_2
REMARK    2  A    between atoms: O_2  and  C_3
REMARK    3  A    between atoms: C_5  and  C_6
REMARK    4  A    between atoms: C_6  and  C_7
REMARK    5  A    between atoms: C_7  and  N_8
REMARK    6  A    between atoms: C_12  and  C_13
REMARK    7  A    between atoms: C_19  and  C_20
REMARK    8  A    between atoms: C_25  and  O_26
REMARK    9  A    between atoms: O_26  and  C_27
REMARK                            x       y       z     vdW  Elec       q    Type
REMARK                         _______ _______ _______ _____ _____    ______ ____
ROOT
ATOM      1  C   UNL     1      47.395   7.437  12.955  0.00  0.00    +0.000 A 
ATOM      2  C   UNL     1      46.787   8.681  12.790  0.00  0.00    +0.000 A 
ATOM      3  C   UNL     1      45.666   8.808  11.962  0.00  0.00    +0.000 A 
ATOM      4  C   UNL     1      45.126   7.654  11.366  0.00  0.00    +0.000 A 
ATOM      5  C   UNL     1      45.732   6.381  11.482  0.00  0.00    +0.000 A 
ATOM      6  C   UNL     1      46.879   6.317  12.290  0.00  0.00    +0.000 A 
ENDROOT
BRANCH   5   7
ATOM      7  C   UNL     1      45.240   5.204  10.692  0.00  0.00    +0.000 A 
ATOM      8  C   UNL     1      45.604   5.112   9.326  0.00  0.00    +0.000 A 
ATOM      9  C   UNL     1      45.258   4.025   8.523  0.00  0.00    +0.000 A 
ATOM     10  C   UNL     1      44.533   2.978   9.061  0.00  0.00    +0.000 A 
ATOM     11  C   UNL     1      44.140   3.029  10.394  0.00  0.00    +0.000 A 
ATOM     12  C   UNL     1      44.491   4.117  11.219  0.00  0.00    +0.000 A 
BRANCH  12  13
ATOM     13  O   UNL     1      44.084   4.167  12.532  0.00  0.00    +0.000 OA
ATOM     14  C   UNL     1      42.906   4.925  12.798  0.00  0.00    +0.000 C 
ENDBRANCH  12  13
ENDBRANCH   5   7
BRANCH   1  16
ATOM     15  C   UNL     1      49.009   8.235  14.509  0.00  0.00    +0.000 C 
ATOM     16  O   UNL     1      48.515   7.180  13.698  0.00  0.00    +0.000 OA
ENDBRANCH   1  16
BRANCH   3  17
ATOM     17  C   UNL     1      45.061  10.168  11.682  0.00  0.00    +0.000 C 
BRANCH  17  18
ATOM     18  C   UNL     1      43.566  10.096  11.377  0.00  0.00    +0.000 C 
BRANCH  18  19
ATOM     19  N   UNL     1      42.803  11.004  12.252  0.00  0.00    +0.000 N 
ATOM     20  C   UNL     1      41.431  11.030  11.926  0.00  0.00    +0.000 A 
ATOM     21  C   UNL     1      40.536  11.837  12.645  0.00  0.00    +0.000 A 
ATOM     22  N   UNL     1      39.197  11.916  12.390  0.00  0.00    +0.000 NA
ATOM     23  C   UNL     1      38.776  11.121  11.368  0.00  0.00    +0.000 A 
ATOM     24  C   UNL     1      39.639  10.305  10.659  0.00  0.00    +0.000 A 
ATOM     25  N   UNL     1      40.968  10.247  10.930  0.00  0.00    +0.000 NA
ATOM     26  H   UNL     1      43.163  11.956  12.223  0.00  0.00    +0.000 HD
BRANCH  23  27
ATOM     27  C   UNL     1      37.335  11.139  10.999  0.00  0.00    +0.000 C 
ATOM     28  N   UNL     1      36.960  10.318   9.972  0.00  0.00    +0.000 N 
ATOM     29  O   UNL     1      36.517  11.846  11.579  0.00  0.00    +0.000 OA
ATOM     30  H   UNL     1      37.647   9.741   9.504  0.00  0.00    +0.000 HD
ATOM     31  H   UNL     1      35.990  10.294   9.693  0.00  0.00    +0.000 HD
ENDBRANCH  23  27
ENDBRANCH  18  19
ENDBRANCH  17  18
ENDBRANCH   3  17
TORSDOF 7
ENDMDL
MODEL 8
REMARK VINA RESULT:    -6.103      4.293      8.265
REMARK INTER + INTRA:          -9.606
REMARK INTER:                  -8.674
REMARK INTRA:                  -0.932
REMARK UNBOUND:                -1.006
REMARK  Name = 
REMARK  9 active torsions:
REMARK  status: ('A' for Active; 'I' for Inactive)
REMARK    1  A    between atoms: C_1  and  O_2
REMARK    2  A    between atoms: O_2  and  C_3
REMARK    3  A    between atoms: C_5  and  C_6
REMARK    4  A    between atoms: C_6  and  C_7
REMARK    5  A    between atoms: C_7  and  N_8
REMARK    6  A    between atoms: C_12  and  C_13
REMARK    7  A    between atoms: C_19  and  C_20
REMARK    8  A    between atoms: C_25  and  O_26
REMARK    9  A    between atoms: O_26  and  C_27
REMARK                            x       y       z     vdW  Elec       q    Type
REMARK                         _______ _______ _______ _____ _____    ______ ____
ROOT
ATOM      1  C   UNL     1      45.683   8.701  12.146  0.00  0.00    +0.000 A 
ATOM      2  C   UNL     1      47.047   8.806  12.412  0.00  0.00    +0.000 A 
ATOM      3  C   UNL     1      47.909   7.756  12.077  0.00  0.00    +0.000 A 
ATOM      4  C   UNL     1      47.387   6.635  11.406  0.00  0.00    +0.000 A 
ATOM      5  C   UNL     1      46.006   6.477  11.147  0.00  0.00    +0.000 A 
ATOM      6  C   UNL     1      45.179   7.541  11.542  0.00  0.00    +0.000 A 
ENDROOT
BRANCH   5   7
ATOM      7  C   UNL     1      45.453   5.196  10.593  0.00  0.00    +0.000 A 
ATOM      8  C   UNL     1      45.381   5.048   9.187  0.00  0.00    +0.000 A 
ATOM      9  C   UNL     1      44.949   3.873   8.571  0.00  0.00    +0.000 A 
ATOM     10  C   UNL     1      44.574   2.791   9.345  0.00  0.00    +0.000 A 
ATOM     11  C   UNL     1      44.614   2.892  10.732  0.00  0.00    +0.000 A 
ATOM     12  C   UNL     1      45.058   4.071  11.366  0.00  0.00    +0.000 A 
BRANCH  12  13
ATOM     13  O   UNL     1      45.078   4.168  12.739  0.00  0.00    +0.000 OA
ATOM     14  C   UNL     1      46.258   3.695  13.386  0.00  0.00    +0.000 C 
ENDBRANCH  12  13
ENDBRANCH   5   7
BRANCH   1  16
ATOM     15  C   UNL     1      44.724  10.832  11.701  0.00  0.00    +0.000 C 
ATOM     16  O   UNL     1      44.727   9.630  12.457  0.00  0.00    +0.000 OA
ENDBRANCH   1  16
BRANCH   3  17
ATOM     17  C   UNL     1      49.374   7.805  12.459  0.00  0.00    +0.000 C 
BRANCH  17  18
ATOM     18  C   UNL     1      49.603   8.430  13.835  0.00  0.00    +0.000 C 
BRANCH  18  19
ATOM     19  N   UNL     1      50.802   7.865  14.479  0.00  0.00    +0.000 N 
ATOM     20  C   UNL     1      50.478   7.040  15.576  0.00  0.00    +0.000 A 
ATOM     21  C   UNL     1      51.484   6.408  16.323  0.00  0.00    +0.000 A 
ATOM     22  N   UNL     1      51.249   5.597  17.396  0.00  0.00    +0.000 NA
ATOM     23  C   UNL     1      49.932   5.427  17.690  0.00  0.00    +0.000 A 
ATOM     24  C   UNL     1      48.924   6.026  16.955  0.00  0.00    +0.000 A 
ATOM     25  N   UNL     1      49.183   6.831  15.893  0.00  0.00    +0.000 NA
ATOM     26  H   UNL     1      51.445   8.589  14.794  0.00  0.00    +0.000 HD
BRANCH  23  27
ATOM     27  C   UNL     1      49.564   4.570  18.849  0.00  0.00    +0.000 C 
ATOM     28  N   UNL     1      50.590   4.165  19.657  0.00  0.00    +0.000 N 
ATOM     29  O   UNL     1      48.405   4.239  19.079  0.00  0.00    +0.000 OA
ATOM     30  H   UNL     1      51.540   4.447  19.453  0.00  0.00    +0.000 HD
ATOM     31  H   UNL     1      50.384   3.588  20.459  0.00  0.00    +0.000 HD
ENDBRANCH  23  27
ENDBRANCH  18  19
ENDBRANCH  17  18
ENDBRANCH   3  17
TORSDOF 7
ENDMDL
MODEL 9
REMARK VINA RESULT:    -6.102      4.145      7.342
REMARK INTER + INTRA:          -9.605
REMARK INTER:                  -8.488
REMARK INTRA:                  -1.118
REMARK UNBOUND:                -1.006
REMARK  Name = 
REMARK  9 active torsions:
REMARK  status: ('A' for Active; 'I' for Inactive)
REMARK    1  A    between atoms: C_1  and  O_2
REMARK    2  A    between atoms: O_2  and  C_3
REMARK    3  A    between atoms: C_5  and  C_6
REMARK    4  A    between atoms: C_6  and  C_7
REMARK    5  A    between atoms: C_7  and  N_8
REMARK    6  A    between atoms: C_12  and  C_13
REMARK    7  A    between atoms: C_19  and  C_20
REMARK    8  A    between atoms: C_25  and  O_26
REMARK    9  A    between atoms: O_26  and  C_27
REMARK                            x       y       z     vdW  Elec       q    Type
REMARK                         _______ _______ _______ _____ _____    ______ ____
ROOT
ATOM      1  C   UNL     1      48.602   7.262  18.548  0.00  0.00    +0.000 A 
ATOM      2  C   UNL     1      48.658   8.047  17.398  0.00  0.00    +0.000 A 
ATOM      3  C   UNL     1      49.313   7.572  16.257  0.00  0.00    +0.000 A 
ATOM      4  C   UNL     1      49.844   6.269  16.270  0.00  0.00    +0.000 A 
ATOM      5  C   UNL     1      49.836   5.454  17.425  0.00  0.00    +0.000 A 
ATOM      6  C   UNL     1      49.203   5.996  18.556  0.00  0.00    +0.000 A 
ENDROOT
BRANCH   5   7
ATOM      7  C   UNL     1      50.565   4.143  17.465  0.00  0.00    +0.000 A 
ATOM      8  C   UNL     1      51.883   4.123  17.984  0.00  0.00    +0.000 A 
ATOM      9  C   UNL     1      52.620   2.947  18.130  0.00  0.00    +0.000 A 
ATOM     10  C   UNL     1      52.061   1.737  17.762  0.00  0.00    +0.000 A 
ATOM     11  C   UNL     1      50.776   1.708  17.233  0.00  0.00    +0.000 A 
ATOM     12  C   UNL     1      50.016   2.887  17.090  0.00  0.00    +0.000 A 
BRANCH  12  13
ATOM     13  O   UNL     1      48.751   2.850  16.551  0.00  0.00    +0.000 OA
ATOM     14  C   UNL     1      47.671   2.792  17.481  0.00  0.00    +0.000 C 
ENDBRANCH  12  13
ENDBRANCH   5   7
BRANCH   1  16
ATOM     15  C   UNL     1      47.379   8.877  19.795  0.00  0.00    +0.000 C 
ATOM     16  O   UNL     1      48.033   7.618  19.741  0.00  0.00    +0.000 OA
ENDBRANCH   1  16
BRANCH   3  17
ATOM     17  C   UNL     1      49.481   8.454  15.037  0.00  0.00    +0.000 C 
BRANCH  17  18
ATOM     18  C   UNL     1      49.381   7.674  13.727  0.00  0.00    +0.000 C 
BRANCH  18  19
ATOM     19  N   UNL     1      48.189   8.077  12.962  0.00  0.00    +0.000 N 
ATOM     20  C   UNL     1      47.194   7.077  12.960  0.00  0.00    +0.000 A 
ATOM     21  C   UNL     1      45.980   7.271  12.283  0.00  0.00    +0.000 A 
ATOM     22  N   UNL     1      44.972   6.351  12.235  0.00  0.00    +0.000 NA
ATOM     23  C   UNL     1      45.228   5.206  12.923  0.00  0.00    +0.000 A 
ATOM     24  C   UNL     1      46.410   5.003  13.612  0.00  0.00    +0.000 A 
ATOM     25  N   UNL     1      47.400   5.932  13.642  0.00  0.00    +0.000 NA
ATOM     26  H   UNL     1      48.414   8.315  11.998  0.00  0.00    +0.000 HD
BRANCH  23  27
ATOM     27  C   UNL     1      44.199   4.131  12.928  0.00  0.00    +0.000 C 
ATOM     28  N   UNL     1      44.613   2.891  12.530  0.00  0.00    +0.000 N 
ATOM     29  O   UNL     1      43.039   4.335  13.271  0.00  0.00    +0.000 OA
ATOM     30  H   UNL     1      45.574   2.740  12.250  0.00  0.00    +0.000 HD
ATOM     31  H   UNL     1      43.948   2.131  12.524  0.00  0.00    +0.000 HD
ENDBRANCH  23  27
ENDBRANCH  18  19
ENDBRANCH  17  18
ENDBRANCH   3  17
TORSDOF 7
ENDMDL
