MODEL 1
REMARK VINA RESULT:    -7.757      0.000      0.000
REMARK INTER + INTRA:         -13.924
REMARK INTER:                 -12.065
REMARK INTRA:                  -1.859
REMARK UNBOUND:                -1.859
REMARK  Name = 
REMARK  10 active torsions:
REMARK  status: ('A' for Active; 'I' for Inactive)
REMARK    1  A    between atoms: C_2  and  C_23
REMARK    2  A    between atoms: N_3  and  C_4
REMARK    3  A    between atoms: C_4  and  C_5
REMARK    4  A    between atoms: C_8  and  C_9
REMARK    5  A    between atoms: C_9  and  N_10
REMARK    6  A    between atoms: N_10  and  C_11
REMARK    7  A    between atoms: N_10  and  C_14
REMARK    8  A    between atoms: C_11  and  C_12
REMARK    9  A    between atoms: C_12  and  O_13
REMARK   10  A    between atoms: C_14  and  C_15
REMARK                            x       y       z     vdW  Elec       q    Type
REMARK                         _______ _______ _______ _____ _____    ______ ____
ROOT
ATOM      1  C   UNL     1      46.386   7.496  12.435  0.00  0.00    +0.000 A 
ATOM      2  C   UNL     1      46.979   6.596  11.540  0.00  0.00    +0.000 A 
ATOM      3  C   UNL     1      46.189   5.786  10.723  0.00  0.00    +0.000 A 
ATOM      4  C   UNL     1      44.792   5.862  10.792  0.00  0.00    +0.000 A 
ATOM      5  C   UNL     1      44.204   6.844  11.600  0.00  0.00    +0.000 A 
ATOM      6  C   UNL     1      44.995   7.659  12.412  0.00  0.00    +0.000 A 
ENDROOT
BRANCH   1   7
ATOM      7  C   UNL     1      47.229   8.251  13.425  0.00  0.00    +0.000 C 
BRANCH   7  10
ATOM      8  O   UNL     1      49.621   6.944  13.844  0.00  0.00    +0.000 OA
ATOM      9  C   UNL     1      48.780   6.914  14.738  0.00  0.00    +0.000 C 
ATOM     10  N   UNL     1      47.533   7.465  14.588  0.00  0.00    +0.000 N 
ATOM     11  H   UNL     1      46.951   7.617  15.407  0.00  0.00    +0.000 HD
BRANCH   9  12
ATOM     12  C   UNL     1      49.048   6.244  16.015  0.00  0.00    +0.000 A 
ATOM     13  C   UNL     1      49.987   6.773  16.888  0.00  0.00    +0.000 A 
ATOM     14  S   UNL     1      50.177   5.859  18.317  0.00  0.00    +0.000 S 
ATOM     15  C   UNL     1      48.971   4.759  17.839  0.00  0.00    +0.000 A 
ATOM     16  N   UNL     1      48.604   3.726  18.644  0.00  0.00    +0.000 NA
ATOM     17  C   UNL     1      47.652   2.992  18.172  0.00  0.00    +0.000 A 
ATOM     18  N   UNL     1      47.036   3.193  16.964  0.00  0.00    +0.000 N 
ATOM     19  C   UNL     1      47.398   4.199  16.104  0.00  0.00    +0.000 A 
ATOM     20  O   UNL     1      46.870   4.312  15.001  0.00  0.00    +0.000 OA
ATOM     21  C   UNL     1      48.452   5.067  16.595  0.00  0.00    +0.000 A 
ATOM     22  H   UNL     1      46.308   2.573  16.643  0.00  0.00    +0.000 HD
ENDBRANCH   9  12
ENDBRANCH   7  10
ENDBRANCH   1   7
BRANCH   4  23
ATOM     23  C   UNL     1      43.932   4.866  10.042  0.00  0.00    +0.000 C 
BRANCH  23  24
ATOM     24  N   UNL     1      44.406   3.459  10.154  0.00  0.00    +0.000 NA
BRANCH  24  25
ATOM     25  C   UNL     1      43.630   2.725  11.185  0.00  0.00    +0.000 C 
BRANCH  25  26
ATOM     26  C   UNL     1      44.036   3.010  12.645  0.00  0.00    +0.000 C 
BRANCH  26  27
ATOM     27  O   UNL     1      45.437   2.810  12.826  0.00  0.00    +0.000 OA
ATOM     28  H   UNL     1      45.867   3.677  12.728  0.00  0.00    +0.000 HD
ENDBRANCH  26  27
ENDBRANCH  25  26
ENDBRANCH  24  25
BRANCH  24  29
ATOM     29  C   UNL     1      44.284   2.783   8.846  0.00  0.00    +0.000 C 
BRANCH  29  30
ATOM     30  C   UNL     1      45.595   2.535   8.146  0.00  0.00    +0.000 A 
ATOM     31  C   UNL     1      46.169   1.262   8.085  0.00  0.00    +0.000 A 
ATOM     32  C   UNL     1      47.359   1.075   7.388  0.00  0.00    +0.000 A 
ATOM     33  C   UNL     1      47.937   2.173   6.773  0.00  0.00    +0.000 A 
ATOM     34  N   UNL     1      47.418   3.420   6.815  0.00  0.00    +0.000 NA
ATOM     35  C   UNL     1      46.261   3.571   7.495  0.00  0.00    +0.000 A 
ENDBRANCH  29  30
ENDBRANCH  24  29
ENDBRANCH  23  24
ENDBRANCH   4  23
TORSDOF 10
ENDMDL
MODEL 2
REMARK VINA RESULT:    -7.750      0.760      1.001
REMARK INTER + INTRA:         -13.914
REMARK INTER:                 -12.437
REMARK INTRA:                  -1.477
REMARK UNBOUND:                -1.859
REMARK  Name = 
REMARK  10 active torsions:
REMARK  status: ('A' for Active; 'I' for Inactive)
REMARK    1  A    between atoms: C_2  and  C_23
REMARK    2  A    between atoms: N_3  and  C_4
REMARK    3  A    between atoms: C_4  and  C_5
REMARK    4  A    between atoms: C_8  and  C_9
REMARK    5  A    between atoms: C_9  and  N_10
REMARK    6  A    between atoms: N_10  and  C_11
REMARK    7  A    between atoms: N_10  and  C_14
REMARK    8  A    between atoms: C_11  and  C_12
REMARK    9  A    between atoms: C_12  and  O_13
REMARK   10  A    between atoms: C_14  and  C_15
REMARK                            x       y       z     vdW  Elec       q    Type
REMARK                         _______ _______ _______ _____ _____    ______ ____
ROOT
ATOM      1  C   UNL     1      46.745   7.783  12.810  0.00  0.00    +0.000 A 
ATOM      2  C   UNL     1      47.180   6.655  12.103  0.00  0.00    +0.000 A 
ATOM      3  C   UNL     1      46.304   5.963  11.267  0.00  0.00    +0.000 A 
ATOM      4  C   UNL     1      44.976   6.388  11.127  0.00  0.00    +0.000 A 
ATOM      5  C   UNL     1      44.577   7.583  11.740  0.00  0.00    +0.000 A 
ATOM      6  C   UNL     1      45.456   8.278  12.572  0.00  0.00    +0.000 A 
ENDROOT
BRANCH   1   7
ATOM      7  C   UNL     1      47.638   8.432  13.832  0.00  0.00    +0.000 C 
BRANCH   7  10
ATOM      8  O   UNL     1      49.973   7.034  14.273  0.00  0.00    +0.000 OA
ATOM      9  C   UNL     1      49.098   6.986  15.132  0.00  0.00    +0.000 C 
ATOM     10  N   UNL     1      47.874   7.582  14.964  0.00  0.00    +0.000 N 
ATOM     11  H   UNL     1      47.266   7.711  15.767  0.00  0.00    +0.000 HD
BRANCH   9  12
ATOM     12  C   UNL     1      49.297   6.246  16.383  0.00  0.00    +0.000 A 
ATOM     13  C   UNL     1      50.212   6.707  17.319  0.00  0.00    +0.000 A 
ATOM     14  S   UNL     1      50.321   5.718  18.705  0.00  0.00    +0.000 S 
ATOM     15  C   UNL     1      49.109   4.674  18.124  0.00  0.00    +0.000 A 
ATOM     16  N   UNL     1      48.685   3.613  18.861  0.00  0.00    +0.000 NA
ATOM     17  C   UNL     1      47.736   2.929  18.314  0.00  0.00    +0.000 A 
ATOM     18  N   UNL     1      47.175   3.206  17.095  0.00  0.00    +0.000 N 
ATOM     19  C   UNL     1      47.596   4.244  16.302  0.00  0.00    +0.000 A 
ATOM     20  O   UNL     1      47.117   4.425  15.186  0.00  0.00    +0.000 OA
ATOM     21  C   UNL     1      48.650   5.058  16.878  0.00  0.00    +0.000 A 
ATOM     22  H   UNL     1      46.445   2.622  16.714  0.00  0.00    +0.000 HD
ENDBRANCH   9  12
ENDBRANCH   7  10
ENDBRANCH   1   7
BRANCH   4  23
ATOM     23  C   UNL     1      43.976   5.544  10.364  0.00  0.00    +0.000 C 
BRANCH  23  24
ATOM     24  N   UNL     1      44.449   4.159  10.085  0.00  0.00    +0.000 NA
BRANCH  24  25
ATOM     25  C   UNL     1      43.641   3.168  10.839  0.00  0.00    +0.000 C 
BRANCH  25  26
ATOM     26  C   UNL     1      43.956   3.068  12.345  0.00  0.00    +0.000 C 
BRANCH  26  27
ATOM     27  O   UNL     1      45.332   2.750  12.551  0.00  0.00    +0.000 OA
ATOM     28  H   UNL     1      45.701   2.496  11.687  0.00  0.00    +0.000 HD
ENDBRANCH  26  27
ENDBRANCH  25  26
ENDBRANCH  24  25
BRANCH  24  29
ATOM     29  C   UNL     1      44.370   3.886   8.635  0.00  0.00    +0.000 C 
BRANCH  29  30
ATOM     30  C   UNL     1      45.484   3.024   8.099  0.00  0.00    +0.000 A 
ATOM     31  C   UNL     1      46.489   3.545   7.279  0.00  0.00    +0.000 A 
ATOM     32  C   UNL     1      47.522   2.719   6.846  0.00  0.00    +0.000 A 
ATOM     33  C   UNL     1      47.514   1.394   7.249  0.00  0.00    +0.000 A 
ATOM     34  N   UNL     1      46.557   0.851   8.034  0.00  0.00    +0.000 NA
ATOM     35  C   UNL     1      45.569   1.677   8.443  0.00  0.00    +0.000 A 
ENDBRANCH  29  30
ENDBRANCH  24  29
ENDBRANCH  23  24
ENDBRANCH   4  23
TORSDOF 10
ENDMDL
MODEL 3
REMARK VINA RESULT:    -7.110      2.571      3.212
REMARK INTER + INTRA:         -12.918
REMARK INTER:                 -12.033
REMARK INTRA:                  -0.885
REMARK UNBOUND:                -1.859
REMARK  Name = 
REMARK  10 active torsions:
REMARK  status: ('A' for Active; 'I' for Inactive)
REMARK    1  A    between atoms: C_2  and  C_23
REMARK    2  A    between atoms: N_3  and  C_4
REMARK    3  A    between atoms: C_4  and  C_5
REMARK    4  A    between atoms: C_8  and  C_9
REMARK    5  A    between atoms: C_9  and  N_10
REMARK    6  A    between atoms: N_10  and  C_11
REMARK    7  A    between atoms: N_10  and  C_14
REMARK    8  A    between atoms: C_11  and  C_12
REMARK    9  A    between atoms: C_12  and  O_13
REMARK   10  A    between atoms: C_14  and  C_15
REMARK                            x       y       z     vdW  Elec       q    Type
REMARK                         _______ _______ _______ _____ _____    ______ ____
ROOT
ATOM      1  C   UNL     1      47.756   6.651  13.950  0.00  0.00    +0.000 A 
ATOM      2  C   UNL     1      47.158   7.718  13.266  0.00  0.00    +0.000 A 
ATOM      3  C   UNL     1      46.223   7.476  12.259  0.00  0.00    +0.000 A 
ATOM      4  C   UNL     1      45.875   6.163  11.917  0.00  0.00    +0.000 A 
ATOM      5  C   UNL     1      46.384   5.104  12.681  0.00  0.00    +0.000 A 
ATOM      6  C   UNL     1      47.315   5.347  13.693  0.00  0.00    +0.000 A 
ENDROOT
BRANCH   1   7
ATOM      7  C   UNL     1      48.878   6.902  14.920  0.00  0.00    +0.000 C 
BRANCH   7  10
ATOM      8  O   UNL     1      50.401   5.441  16.694  0.00  0.00    +0.000 OA
ATOM      9  C   UNL     1      49.358   5.944  17.103  0.00  0.00    +0.000 C 
ATOM     10  N   UNL     1      48.497   6.618  16.275  0.00  0.00    +0.000 N 
ATOM     11  H   UNL     1      47.770   7.201  16.677  0.00  0.00    +0.000 HD
BRANCH   9  12
ATOM     12  C   UNL     1      48.947   5.816  18.506  0.00  0.00    +0.000 A 
ATOM     13  C   UNL     1      49.180   4.631  19.187  0.00  0.00    +0.000 A 
ATOM     14  S   UNL     1      48.627   4.657  20.802  0.00  0.00    +0.000 S 
ATOM     15  C   UNL     1      48.110   6.271  20.657  0.00  0.00    +0.000 A 
ATOM     16  N   UNL     1      47.565   6.930  21.714  0.00  0.00    +0.000 NA
ATOM     17  C   UNL     1      47.251   8.159  21.473  0.00  0.00    +0.000 A 
ATOM     18  N   UNL     1      47.429   8.789  20.269  0.00  0.00    +0.000 N 
ATOM     19  C   UNL     1      47.942   8.153  19.167  0.00  0.00    +0.000 A 
ATOM     20  O   UNL     1      48.027   8.728  18.085  0.00  0.00    +0.000 OA
ATOM     21  C   UNL     1      48.329   6.773  19.388  0.00  0.00    +0.000 A 
ATOM     22  H   UNL     1      47.149   9.750  20.139  0.00  0.00    +0.000 HD
ENDBRANCH   9  12
ENDBRANCH   7  10
ENDBRANCH   1   7
BRANCH   4  23
ATOM     23  C   UNL     1      45.000   5.890  10.711  0.00  0.00    +0.000 C 
BRANCH  23  24
ATOM     24  N   UNL     1      44.659   4.452  10.530  0.00  0.00    +0.000 NA
BRANCH  24  25
ATOM     25  C   UNL     1      43.489   4.081  11.365  0.00  0.00    +0.000 C 
BRANCH  25  26
ATOM     26  C   UNL     1      42.536   5.241  11.718  0.00  0.00    +0.000 C 
BRANCH  26  27
ATOM     27  O   UNL     1      42.480   5.434  13.131  0.00  0.00    +0.000 OA
ATOM     28  H   UNL     1      43.385   5.630  13.431  0.00  0.00    +0.000 HD
ENDBRANCH  26  27
ENDBRANCH  25  26
ENDBRANCH  24  25
BRANCH  24  29
ATOM     29  C   UNL     1      44.378   4.178   9.106  0.00  0.00    +0.000 C 
BRANCH  29  30
ATOM     30  C   UNL     1      45.357   3.246   8.442  0.00  0.00    +0.000 A 
ATOM     31  C   UNL     1      46.287   3.700   7.502  0.00  0.00    +0.000 A 
ATOM     32  C   UNL     1      47.201   2.807   6.950  0.00  0.00    +0.000 A 
ATOM     33  C   UNL     1      47.152   1.485   7.357  0.00  0.00    +0.000 A 
ATOM     34  N   UNL     1      46.264   1.005   8.256  0.00  0.00    +0.000 NA
ATOM     35  C   UNL     1      45.392   1.895   8.778  0.00  0.00    +0.000 A 
ENDBRANCH  29  30
ENDBRANCH  24  29
ENDBRANCH  23  24
ENDBRANCH   4  23
TORSDOF 10
ENDMDL
MODEL 4
REMARK VINA RESULT:    -6.978      3.097      3.964
REMARK INTER + INTRA:         -12.713
REMARK INTER:                 -11.725
REMARK INTRA:                  -0.988
REMARK UNBOUND:                -1.859
REMARK  Name = 
REMARK  10 active torsions:
REMARK  status: ('A' for Active; 'I' for Inactive)
REMARK    1  A    between atoms: C_2  and  C_23
REMARK    2  A    between atoms: N_3  and  C_4
REMARK    3  A    between atoms: C_4  and  C_5
REMARK    4  A    between atoms: C_8  and  C_9
REMARK    5  A    between atoms: C_9  and  N_10
REMARK    6  A    between atoms: N_10  and  C_11
REMARK    7  A    between atoms: N_10  and  C_14
REMARK    8  A    between atoms: C_11  and  C_12
REMARK    9  A    between atoms: C_12  and  O_13
REMARK   10  A    between atoms: C_14  and  C_15
REMARK                            x       y       z     vdW  Elec       q    Type
REMARK                         _______ _______ _______ _____ _____    ______ ____
ROOT
ATOM      1  C   UNL     1      47.775   5.285  15.440  0.00  0.00    +0.000 A 
ATOM      2  C   UNL     1      47.084   4.164  14.962  0.00  0.00    +0.000 A 
ATOM      3  C   UNL     1      46.543   4.162  13.676  0.00  0.00    +0.000 A 
ATOM      4  C   UNL     1      46.681   5.284  12.848  0.00  0.00    +0.000 A 
ATOM      5  C   UNL     1      47.473   6.355  13.284  0.00  0.00    +0.000 A 
ATOM      6  C   UNL     1      48.019   6.354  14.569  0.00  0.00    +0.000 A 
ENDROOT
BRANCH   1   7
ATOM      7  C   UNL     1      48.217   5.351  16.876  0.00  0.00    +0.000 C 
BRANCH   7  10
ATOM      8  O   UNL     1      49.509   5.191  19.306  0.00  0.00    +0.000 OA
ATOM      9  C   UNL     1      50.094   4.774  18.311  0.00  0.00    +0.000 C 
ATOM     10  N   UNL     1      49.564   4.886  17.050  0.00  0.00    +0.000 N 
ATOM     11  H   UNL     1      49.962   4.344  16.290  0.00  0.00    +0.000 HD
BRANCH   9  12
ATOM     12  C   UNL     1      51.425   4.164  18.407  0.00  0.00    +0.000 A 
ATOM     13  C   UNL     1      52.460   4.858  19.016  0.00  0.00    +0.000 A 
ATOM     14  S   UNL     1      53.936   4.003  19.027  0.00  0.00    +0.000 S 
ATOM     15  C   UNL     1      53.226   2.657  18.268  0.00  0.00    +0.000 A 
ATOM     16  N   UNL     1      53.948   1.533  18.012  0.00  0.00    +0.000 NA
ATOM     17  C   UNL     1      53.274   0.577  17.466  0.00  0.00    +0.000 A 
ATOM     18  N   UNL     1      51.943   0.643  17.147  0.00  0.00    +0.000 N 
ATOM     19  C   UNL     1      51.185   1.768  17.353  0.00  0.00    +0.000 A 
ATOM     20  O   UNL     1      50.011   1.817  16.996  0.00  0.00    +0.000 OA
ATOM     21  C   UNL     1      51.890   2.868  17.983  0.00  0.00    +0.000 A 
ATOM     22  H   UNL     1      51.475  -0.135  16.705  0.00  0.00    +0.000 HD
ENDBRANCH   9  12
ENDBRANCH   7  10
ENDBRANCH   1   7
BRANCH   4  23
ATOM     23  C   UNL     1      45.949   5.357  11.525  0.00  0.00    +0.000 C 
BRANCH  23  24
ATOM     24  N   UNL     1      44.677   4.582  11.500  0.00  0.00    +0.000 NA
BRANCH  24  25
ATOM     25  C   UNL     1      43.663   5.209  12.385  0.00  0.00    +0.000 C 
BRANCH  25  26
ATOM     26  C   UNL     1      42.249   5.336  11.784  0.00  0.00    +0.000 C 
BRANCH  26  27
ATOM     27  O   UNL     1      41.848   6.704  11.727  0.00  0.00    +0.000 OA
ATOM     28  H   UNL     1      41.385   6.834  10.882  0.00  0.00    +0.000 HD
ENDBRANCH  26  27
ENDBRANCH  25  26
ENDBRANCH  24  25
BRANCH  24  29
ATOM     29  C   UNL     1      44.166   4.502  10.115  0.00  0.00    +0.000 C 
BRANCH  29  30
ATOM     30  C   UNL     1      45.011   3.672   9.184  0.00  0.00    +0.000 A 
ATOM     31  C   UNL     1      45.738   4.247   8.138  0.00  0.00    +0.000 A 
ATOM     32  C   UNL     1      46.539   3.443   7.333  0.00  0.00    +0.000 A 
ATOM     33  C   UNL     1      46.585   2.086   7.601  0.00  0.00    +0.000 A 
ATOM     34  N   UNL     1      45.892   1.491   8.597  0.00  0.00    +0.000 NA
ATOM     35  C   UNL     1      45.126   2.295   9.365  0.00  0.00    +0.000 A 
ENDBRANCH  29  30
ENDBRANCH  24  29
ENDBRANCH  23  24
ENDBRANCH   4  23
TORSDOF 10
ENDMDL
MODEL 5
REMARK VINA RESULT:    -6.933      2.051      2.575
REMARK INTER + INTRA:         -12.642
REMARK INTER:                 -11.378
REMARK INTRA:                  -1.264
REMARK UNBOUND:                -1.859
REMARK  Name = 
REMARK  10 active torsions:
REMARK  status: ('A' for Active; 'I' for Inactive)
REMARK    1  A    between atoms: C_2  and  C_23
REMARK    2  A    between atoms: N_3  and  C_4
REMARK    3  A    between atoms: C_4  and  C_5
REMARK    4  A    between atoms: C_8  and  C_9
REMARK    5  A    between atoms: C_9  and  N_10
REMARK    6  A    between atoms: N_10  and  C_11
REMARK    7  A    between atoms: N_10  and  C_14
REMARK    8  A    between atoms: C_11  and  C_12
REMARK    9  A    between atoms: C_12  and  O_13
REMARK   10  A    between atoms: C_14  and  C_15
REMARK                            x       y       z     vdW  Elec       q    Type
REMARK                         _______ _______ _______ _____ _____    ______ ____
ROOT
ATOM      1  C   UNL     1      47.816   7.490  13.442  0.00  0.00    +0.000 A 
ATOM      2  C   UNL     1      46.762   8.366  13.149  0.00  0.00    +0.000 A 
ATOM      3  C   UNL     1      45.670   7.932  12.396  0.00  0.00    +0.000 A 
ATOM      4  C   UNL     1      45.617   6.615  11.921  0.00  0.00    +0.000 A 
ATOM      5  C   UNL     1      46.612   5.710  12.316  0.00  0.00    +0.000 A 
ATOM      6  C   UNL     1      47.701   6.143  13.074  0.00  0.00    +0.000 A 
ENDROOT
BRANCH   1   7
ATOM      7  C   UNL     1      49.063   7.997  14.113  0.00  0.00    +0.000 C 
BRANCH   7  10
ATOM      8  O   UNL     1      49.948   6.142  15.951  0.00  0.00    +0.000 OA
ATOM      9  C   UNL     1      49.443   7.179  16.372  0.00  0.00    +0.000 C 
ATOM     10  N   UNL     1      48.902   8.122  15.534  0.00  0.00    +0.000 N 
ATOM     11  H   UNL     1      48.697   9.050  15.891  0.00  0.00    +0.000 HD
BRANCH   9  12
ATOM     12  C   UNL     1      49.351   7.455  17.809  0.00  0.00    +0.000 A 
ATOM     13  C   UNL     1      50.100   8.482  18.364  0.00  0.00    +0.000 A 
ATOM     14  S   UNL     1      49.877   8.651  20.048  0.00  0.00    +0.000 S 
ATOM     15  C   UNL     1      48.731   7.395  20.078  0.00  0.00    +0.000 A 
ATOM     16  N   UNL     1      48.104   7.045  21.233  0.00  0.00    +0.000 NA
ATOM     17  C   UNL     1      47.232   6.101  21.104  0.00  0.00    +0.000 A 
ATOM     18  N   UNL     1      46.933   5.471  19.924  0.00  0.00    +0.000 N 
ATOM     19  C   UNL     1      47.566   5.766  18.743  0.00  0.00    +0.000 A 
ATOM     20  O   UNL     1      47.320   5.138  17.717  0.00  0.00    +0.000 OA
ATOM     21  C   UNL     1      48.543   6.835  18.828  0.00  0.00    +0.000 A 
ATOM     22  H   UNL     1      46.251   4.728  19.891  0.00  0.00    +0.000 HD
ENDBRANCH   9  12
ENDBRANCH   7  10
ENDBRANCH   1   7
BRANCH   4  23
ATOM     23  C   UNL     1      44.528   6.189  10.959  0.00  0.00    +0.000 C 
BRANCH  23  24
ATOM     24  N   UNL     1      44.356   4.713  10.863  0.00  0.00    +0.000 NA
BRANCH  24  25
ATOM     25  C   UNL     1      43.328   4.241  11.825  0.00  0.00    +0.000 C 
BRANCH  25  26
ATOM     26  C   UNL     1      43.590   2.854  12.444  0.00  0.00    +0.000 C 
BRANCH  26  27
ATOM     27  O   UNL     1      42.915   1.837  11.705  0.00  0.00    +0.000 OA
ATOM     28  H   UNL     1      43.224   0.980  12.046  0.00  0.00    +0.000 HD
ENDBRANCH  26  27
ENDBRANCH  25  26
ENDBRANCH  24  25
BRANCH  24  29
ATOM     29  C   UNL     1      43.975   4.342   9.484  0.00  0.00    +0.000 C 
BRANCH  29  30
ATOM     30  C   UNL     1      44.983   3.482   8.766  0.00  0.00    +0.000 A 
ATOM     31  C   UNL     1      45.891   4.021   7.850  0.00  0.00    +0.000 A 
ATOM     32  C   UNL     1      46.832   3.193   7.246  0.00  0.00    +0.000 A 
ATOM     33  C   UNL     1      46.832   1.849   7.579  0.00  0.00    +0.000 A 
ATOM     34  N   UNL     1      45.966   1.289   8.452  0.00  0.00    +0.000 NA
ATOM     35  C   UNL     1      45.066   2.117   9.026  0.00  0.00    +0.000 A 
ENDBRANCH  29  30
ENDBRANCH  24  29
ENDBRANCH  23  24
ENDBRANCH   4  23
TORSDOF 10
ENDMDL
MODEL 6
REMARK VINA RESULT:    -6.599      3.527      4.915
REMARK INTER + INTRA:         -12.123
REMARK INTER:                 -10.809
REMARK INTRA:                  -1.313
REMARK UNBOUND:                -1.859
REMARK  Name = 
REMARK  10 active torsions:
REMARK  status: ('A' for Active; 'I' for Inactive)
REMARK    1  A    between atoms: C_2  and  C_23
REMARK    2  A    between atoms: N_3  and  C_4
REMARK    3  A    between atoms: C_4  and  C_5
REMARK    4  A    between atoms: C_8  and  C_9
REMARK    5  A    between atoms: C_9  and  N_10
REMARK    6  A    between atoms: N_10  and  C_11
REMARK    7  A    between atoms: N_10  and  C_14
REMARK    8  A    between atoms: C_11  and  C_12
REMARK    9  A    between atoms: C_12  and  O_13
REMARK   10  A    between atoms: C_14  and  C_15
REMARK                            x       y       z     vdW  Elec       q    Type
REMARK                         _______ _______ _______ _____ _____    ______ ____
ROOT
ATOM      1  C   UNL     1      47.669   6.683  13.821  0.00  0.00    +0.000 A 
ATOM      2  C   UNL     1      46.938   7.744  13.271  0.00  0.00    +0.000 A 
ATOM      3  C   UNL     1      45.947   7.502  12.319  0.00  0.00    +0.000 A 
ATOM      4  C   UNL     1      45.674   6.194  11.899  0.00  0.00    +0.000 A 
ATOM      5  C   UNL     1      46.322   5.127  12.536  0.00  0.00    +0.000 A 
ATOM      6  C   UNL     1      47.309   5.369  13.493  0.00  0.00    +0.000 A 
ENDROOT
BRANCH   1   7
ATOM      7  C   UNL     1      48.841   6.953  14.723  0.00  0.00    +0.000 C 
BRANCH   7  10
ATOM      8  O   UNL     1      50.006   9.448  14.576  0.00  0.00    +0.000 OA
ATOM      9  C   UNL     1      50.580   8.508  14.034  0.00  0.00    +0.000 C 
ATOM     10  N   UNL     1      50.037   7.249  13.985  0.00  0.00    +0.000 N 
ATOM     11  H   UNL     1      50.623   6.460  13.731  0.00  0.00    +0.000 HD
BRANCH   9  12
ATOM     12  C   UNL     1      51.873   8.686  13.364  0.00  0.00    +0.000 A 
ATOM     13  C   UNL     1      52.959   9.171  14.077  0.00  0.00    +0.000 A 
ATOM     14  S   UNL     1      54.374   9.326  13.137  0.00  0.00    +0.000 S 
ATOM     15  C   UNL     1      53.596   8.697  11.762  0.00  0.00    +0.000 A 
ATOM     16  N   UNL     1      54.269   8.522  10.593  0.00  0.00    +0.000 NA
ATOM     17  C   UNL     1      53.565   8.003   9.643  0.00  0.00    +0.000 A 
ATOM     18  N   UNL     1      52.246   7.646   9.754  0.00  0.00    +0.000 N 
ATOM     19  C   UNL     1      51.519   7.837  10.901  0.00  0.00    +0.000 A 
ATOM     20  O   UNL     1      50.322   7.567  10.947  0.00  0.00    +0.000 OA
ATOM     21  C   UNL     1      52.268   8.401  12.008  0.00  0.00    +0.000 A 
ATOM     22  H   UNL     1      51.746   7.258   8.968  0.00  0.00    +0.000 HD
ENDBRANCH   9  12
ENDBRANCH   7  10
ENDBRANCH   1   7
BRANCH   4  23
ATOM     23  C   UNL     1      44.730   5.940  10.743  0.00  0.00    +0.000 C 
BRANCH  23  24
ATOM     24  N   UNL     1      44.534   4.496  10.434  0.00  0.00    +0.000 NA
BRANCH  24  25
ATOM     25  C   UNL     1      43.337   3.968  11.136  0.00  0.00    +0.000 C 
BRANCH  25  26
ATOM     26  C   UNL     1      43.610   2.836  12.147  0.00  0.00    +0.000 C 
BRANCH  26  27
ATOM     27  O   UNL     1      43.025   1.613  11.702  0.00  0.00    +0.000 OA
ATOM     28  H   UNL     1      43.639   1.218  11.059  0.00  0.00    +0.000 HD
ENDBRANCH  26  27
ENDBRANCH  25  26
ENDBRANCH  24  25
BRANCH  24  29
ATOM     29  C   UNL     1      44.393   4.310   8.975  0.00  0.00    +0.000 C 
BRANCH  29  30
ATOM     30  C   UNL     1      45.369   3.334   8.371  0.00  0.00    +0.000 A 
ATOM     31  C   UNL     1      46.320   3.731   7.427  0.00  0.00    +0.000 A 
ATOM     32  C   UNL     1      47.230   2.801   6.933  0.00  0.00    +0.000 A 
ATOM     33  C   UNL     1      47.156   1.500   7.400  0.00  0.00    +0.000 A 
ATOM     34  N   UNL     1      46.246   1.076   8.305  0.00  0.00    +0.000 NA
ATOM     35  C   UNL     1      45.379   2.000   8.771  0.00  0.00    +0.000 A 
ENDBRANCH  29  30
ENDBRANCH  24  29
ENDBRANCH  23  24
ENDBRANCH   4  23
TORSDOF 10
ENDMDL
MODEL 7
REMARK VINA RESULT:    -6.350      2.331      3.303
REMARK INTER + INTRA:         -11.735
REMARK INTER:                 -10.303
REMARK INTRA:                  -1.432
REMARK UNBOUND:                -1.859
REMARK  Name = 
REMARK  10 active torsions:
REMARK  status: ('A' for Active; 'I' for Inactive)
REMARK    1  A    between atoms: C_2  and  C_23
REMARK    2  A    between atoms: N_3  and  C_4
REMARK    3  A    between atoms: C_4  and  C_5
REMARK    4  A    between atoms: C_8  and  C_9
REMARK    5  A    between atoms: C_9  and  N_10
REMARK    6  A    between atoms: N_10  and  C_11
REMARK    7  A    between atoms: N_10  and  C_14
REMARK    8  A    between atoms: C_11  and  C_12
REMARK    9  A    between atoms: C_12  and  O_13
REMARK   10  A    between atoms: C_14  and  C_15
REMARK                            x       y       z     vdW  Elec       q    Type
REMARK                         _______ _______ _______ _____ _____    ______ ____
ROOT
ATOM      1  C   UNL     1      48.085   7.761  13.450  0.00  0.00    +0.000 A 
ATOM      2  C   UNL     1      46.916   8.532  13.430  0.00  0.00    +0.000 A 
ATOM      3  C   UNL     1      45.772   8.067  12.780  0.00  0.00    +0.000 A 
ATOM      4  C   UNL     1      45.782   6.823  12.135  0.00  0.00    +0.000 A 
ATOM      5  C   UNL     1      46.913   6.004  12.257  0.00  0.00    +0.000 A 
ATOM      6  C   UNL     1      48.054   6.468  12.913  0.00  0.00    +0.000 A 
ENDROOT
BRANCH   1   7
ATOM      7  C   UNL     1      49.361   8.328  14.008  0.00  0.00    +0.000 C 
BRANCH   7  10
ATOM      8  O   UNL     1      49.035   7.910  16.714  0.00  0.00    +0.000 OA
ATOM      9  C   UNL     1      49.807   7.177  16.104  0.00  0.00    +0.000 C 
ATOM     10  N   UNL     1      50.095   7.360  14.775  0.00  0.00    +0.000 N 
ATOM     11  H   UNL     1      50.554   6.619  14.255  0.00  0.00    +0.000 HD
BRANCH   9  12
ATOM     12  C   UNL     1      50.507   6.076  16.776  0.00  0.00    +0.000 A 
ATOM     13  C   UNL     1      49.778   5.086  17.419  0.00  0.00    +0.000 A 
ATOM     14  S   UNL     1      50.754   3.895  18.155  0.00  0.00    +0.000 S 
ATOM     15  C   UNL     1      52.178   4.634  17.590  0.00  0.00    +0.000 A 
ATOM     16  N   UNL     1      53.399   4.089  17.841  0.00  0.00    +0.000 NA
ATOM     17  C   UNL     1      54.389   4.735  17.322  0.00  0.00    +0.000 A 
ATOM     18  N   UNL     1      54.272   5.880  16.578  0.00  0.00    +0.000 N 
ATOM     19  C   UNL     1      53.065   6.484  16.331  0.00  0.00    +0.000 A 
ATOM     20  O   UNL     1      53.001   7.545  15.716  0.00  0.00    +0.000 OA
ATOM     21  C   UNL     1      51.915   5.789  16.876  0.00  0.00    +0.000 A 
ATOM     22  H   UNL     1      55.088   6.347  16.213  0.00  0.00    +0.000 HD
ENDBRANCH   9  12
ENDBRANCH   7  10
ENDBRANCH   1   7
BRANCH   4  23
ATOM     23  C   UNL     1      44.609   6.392  11.280  0.00  0.00    +0.000 C 
BRANCH  23  24
ATOM     24  N   UNL     1      44.456   4.915  11.172  0.00  0.00    +0.000 NA
BRANCH  24  25
ATOM     25  C   UNL     1      43.493   4.413  12.186  0.00  0.00    +0.000 C 
BRANCH  25  26
ATOM     26  C   UNL     1      43.585   2.904  12.493  0.00  0.00    +0.000 C 
BRANCH  26  27
ATOM     27  O   UNL     1      44.947   2.501  12.630  0.00  0.00    +0.000 OA
ATOM     28  H   UNL     1      45.349   3.071  13.309  0.00  0.00    +0.000 HD
ENDBRANCH  26  27
ENDBRANCH  25  26
ENDBRANCH  24  25
BRANCH  24  29
ATOM     29  C   UNL     1      44.000   4.556   9.813  0.00  0.00    +0.000 C 
BRANCH  29  30
ATOM     30  C   UNL     1      44.981   3.731   9.022  0.00  0.00    +0.000 A 
ATOM     31  C   UNL     1      45.036   2.339   9.137  0.00  0.00    +0.000 A 
ATOM     32  C   UNL     1      45.929   1.618   8.351  0.00  0.00    +0.000 A 
ATOM     33  C   UNL     1      46.742   2.316   7.474  0.00  0.00    +0.000 A 
ATOM     34  N   UNL     1      46.725   3.661   7.340  0.00  0.00    +0.000 NA
ATOM     35  C   UNL     1      45.846   4.335   8.111  0.00  0.00    +0.000 A 
ENDBRANCH  29  30
ENDBRANCH  24  29
ENDBRANCH  23  24
ENDBRANCH   4  23
TORSDOF 10
ENDMDL
MODEL 8
REMARK VINA RESULT:    -6.250      3.294      7.992
REMARK INTER + INTRA:         -11.579
REMARK INTER:                 -10.573
REMARK INTRA:                  -1.006
REMARK UNBOUND:                -1.859
REMARK  Name = 
REMARK  10 active torsions:
REMARK  status: ('A' for Active; 'I' for Inactive)
REMARK    1  A    between atoms: C_2  and  C_23
REMARK    2  A    between atoms: N_3  and  C_4
REMARK    3  A    between atoms: C_4  and  C_5
REMARK    4  A    between atoms: C_8  and  C_9
REMARK    5  A    between atoms: C_9  and  N_10
REMARK    6  A    between atoms: N_10  and  C_11
REMARK    7  A    between atoms: N_10  and  C_14
REMARK    8  A    between atoms: C_11  and  C_12
REMARK    9  A    between atoms: C_12  and  O_13
REMARK   10  A    between atoms: C_14  and  C_15
REMARK                            x       y       z     vdW  Elec       q    Type
REMARK                         _______ _______ _______ _____ _____    ______ ____
ROOT
ATOM      1  C   UNL     1      49.290   7.916  14.864  0.00  0.00    +0.000 A 
ATOM      2  C   UNL     1      48.306   8.760  15.395  0.00  0.00    +0.000 A 
ATOM      3  C   UNL     1      48.118   8.847  16.775  0.00  0.00    +0.000 A 
ATOM      4  C   UNL     1      48.911   8.088  17.646  0.00  0.00    +0.000 A 
ATOM      5  C   UNL     1      49.971   7.338  17.120  0.00  0.00    +0.000 A 
ATOM      6  C   UNL     1      50.162   7.256  15.739  0.00  0.00    +0.000 A 
ENDROOT
BRANCH   1   7
ATOM      7  C   UNL     1      49.386   7.700  13.379  0.00  0.00    +0.000 C 
BRANCH   7  10
ATOM      8  O   UNL     1      48.142   5.239  13.389  0.00  0.00    +0.000 OA
ATOM      9  C   UNL     1      47.536   6.192  12.908  0.00  0.00    +0.000 C 
ATOM     10  N   UNL     1      48.106   7.435  12.786  0.00  0.00    +0.000 N 
ATOM     11  H   UNL     1      47.516   8.238  12.593  0.00  0.00    +0.000 HD
BRANCH   9  12
ATOM     12  C   UNL     1      46.171   6.048  12.392  0.00  0.00    +0.000 A 
ATOM     13  C   UNL     1      45.523   7.143  11.839  0.00  0.00    +0.000 A 
ATOM     14  S   UNL     1      43.941   6.795  11.302  0.00  0.00    +0.000 S 
ATOM     15  C   UNL     1      44.092   5.159  11.740  0.00  0.00    +0.000 A 
ATOM     16  N   UNL     1      43.084   4.275  11.511  0.00  0.00    +0.000 NA
ATOM     17  C   UNL     1      43.349   3.060  11.860  0.00  0.00    +0.000 A 
ATOM     18  N   UNL     1      44.529   2.649  12.423  0.00  0.00    +0.000 N 
ATOM     19  C   UNL     1      45.557   3.511  12.705  0.00  0.00    +0.000 A 
ATOM     20  O   UNL     1      46.576   3.121  13.269  0.00  0.00    +0.000 OA
ATOM     21  C   UNL     1      45.320   4.888  12.315  0.00  0.00    +0.000 A 
ATOM     22  H   UNL     1      44.669   1.685  12.689  0.00  0.00    +0.000 HD
ENDBRANCH   9  12
ENDBRANCH   7  10
ENDBRANCH   1   7
BRANCH   4  23
ATOM     23  C   UNL     1      48.597   8.042  19.127  0.00  0.00    +0.000 C 
BRANCH  23  24
ATOM     24  N   UNL     1      48.552   6.663  19.688  0.00  0.00    +0.000 NA
BRANCH  24  25
ATOM     25  C   UNL     1      48.378   6.703  21.162  0.00  0.00    +0.000 C 
BRANCH  25  26
ATOM     26  C   UNL     1      48.572   5.355  21.886  0.00  0.00    +0.000 C 
BRANCH  26  27
ATOM     27  O   UNL     1      47.310   4.754  22.174  0.00  0.00    +0.000 OA
ATOM     28  H   UNL     1      47.178   4.038  21.529  0.00  0.00    +0.000 HD
ENDBRANCH  26  27
ENDBRANCH  25  26
ENDBRANCH  24  25
BRANCH  24  29
ATOM     29  C   UNL     1      47.449   5.903  19.064  0.00  0.00    +0.000 C 
BRANCH  29  30
ATOM     30  C   UNL     1      47.893   4.739  18.217  0.00  0.00    +0.000 A 
ATOM     31  C   UNL     1      49.102   4.076  18.448  0.00  0.00    +0.000 A 
ATOM     32  C   UNL     1      49.446   2.978  17.667  0.00  0.00    +0.000 A 
ATOM     33  C   UNL     1      48.566   2.578  16.675  0.00  0.00    +0.000 A 
ATOM     34  N   UNL     1      47.393   3.196  16.415  0.00  0.00    +0.000 NA
ATOM     35  C   UNL     1      47.083   4.257  17.191  0.00  0.00    +0.000 A 
ENDBRANCH  29  30
ENDBRANCH  24  29
ENDBRANCH  23  24
ENDBRANCH   4  23
TORSDOF 10
ENDMDL
MODEL 9
REMARK VINA RESULT:    -6.202      3.484      8.342
REMARK INTER + INTRA:         -11.506
REMARK INTER:                  -9.420
REMARK INTRA:                  -2.086
REMARK UNBOUND:                -1.859
REMARK  Name = 
REMARK  10 active torsions:
REMARK  status: ('A' for Active; 'I' for Inactive)
REMARK    1  A    between atoms: C_2  and  C_23
REMARK    2  A    between atoms: N_3  and  C_4
REMARK    3  A    between atoms: C_4  and  C_5
REMARK    4  A    between atoms: C_8  and  C_9
REMARK    5  A    between atoms: C_9  and  N_10
REMARK    6  A    between atoms: N_10  and  C_11
REMARK    7  A    between atoms: N_10  and  C_14
REMARK    8  A    between atoms: C_11  and  C_12
REMARK    9  A    between atoms: C_12  and  O_13
REMARK   10  A    between atoms: C_14  and  C_15
REMARK                            x       y       z     vdW  Elec       q    Type
REMARK                         _______ _______ _______ _____ _____    ______ ____
ROOT
ATOM      1  C   UNL     1      48.873   8.298  15.979  0.00  0.00    +0.000 A 
ATOM      2  C   UNL     1      48.141   8.837  17.045  0.00  0.00    +0.000 A 
ATOM      3  C   UNL     1      48.394   8.429  18.355  0.00  0.00    +0.000 A 
ATOM      4  C   UNL     1      49.381   7.470  18.619  0.00  0.00    +0.000 A 
ATOM      5  C   UNL     1      50.190   7.021  17.566  0.00  0.00    +0.000 A 
ATOM      6  C   UNL     1      49.941   7.435  16.257  0.00  0.00    +0.000 A 
ENDROOT
BRANCH   1   7
ATOM      7  C   UNL     1      48.495   8.615  14.558  0.00  0.00    +0.000 C 
BRANCH   7  10
ATOM      8  O   UNL     1      48.913   6.513  12.824  0.00  0.00    +0.000 OA
ATOM      9  C   UNL     1      47.779   6.684  13.263  0.00  0.00    +0.000 C 
ATOM     10  N   UNL     1      47.460   7.750  14.066  0.00  0.00    +0.000 N 
ATOM     11  H   UNL     1      46.587   7.742  14.584  0.00  0.00    +0.000 HD
BRANCH   9  12
ATOM     12  C   UNL     1      46.681   5.775  12.919  0.00  0.00    +0.000 A 
ATOM     13  C   UNL     1      46.777   4.427  13.233  0.00  0.00    +0.000 A 
ATOM     14  S   UNL     1      45.416   3.519  12.749  0.00  0.00    +0.000 S 
ATOM     15  C   UNL     1      44.632   4.907  12.154  0.00  0.00    +0.000 A 
ATOM     16  N   UNL     1      43.381   4.834  11.625  0.00  0.00    +0.000 NA
ATOM     17  C   UNL     1      42.895   5.968  11.247  0.00  0.00    +0.000 A 
ATOM     18  N   UNL     1      43.546   7.170  11.345  0.00  0.00    +0.000 N 
ATOM     19  C   UNL     1      44.821   7.285  11.838  0.00  0.00    +0.000 A 
ATOM     20  O   UNL     1      45.401   8.368  11.851  0.00  0.00    +0.000 OA
ATOM     21  C   UNL     1      45.410   6.041  12.296  0.00  0.00    +0.000 A 
ATOM     22  H   UNL     1      43.117   8.022  11.016  0.00  0.00    +0.000 HD
ENDBRANCH   9  12
ENDBRANCH   7  10
ENDBRANCH   1   7
BRANCH   4  23
ATOM     23  C   UNL     1      49.539   6.894  20.010  0.00  0.00    +0.000 C 
BRANCH  23  24
ATOM     24  N   UNL     1      49.922   5.455  20.023  0.00  0.00    +0.000 NA
BRANCH  24  25
ATOM     25  C   UNL     1      50.703   5.132  21.244  0.00  0.00    +0.000 C 
BRANCH  25  26
ATOM     26  C   UNL     1      52.148   4.656  20.997  0.00  0.00    +0.000 C 
BRANCH  26  27
ATOM     27  O   UNL     1      52.224   3.877  19.804  0.00  0.00    +0.000 OA
ATOM     28  H   UNL     1      52.363   2.952  20.072  0.00  0.00    +0.000 HD
ENDBRANCH  26  27
ENDBRANCH  25  26
ENDBRANCH  24  25
BRANCH  24  29
ATOM     29  C   UNL     1      48.710   4.612  19.954  0.00  0.00    +0.000 C 
BRANCH  29  30
ATOM     30  C   UNL     1      48.429   4.029  18.594  0.00  0.00    +0.000 A 
ATOM     31  C   UNL     1      47.322   4.422  17.837  0.00  0.00    +0.000 A 
ATOM     32  C   UNL     1      47.131   3.887  16.567  0.00  0.00    +0.000 A 
ATOM     33  C   UNL     1      48.057   2.973  16.095  0.00  0.00    +0.000 A 
ATOM     34  N   UNL     1      49.135   2.562  16.798  0.00  0.00    +0.000 NA
ATOM     35  C   UNL     1      49.298   3.100  18.026  0.00  0.00    +0.000 A 
ENDBRANCH  29  30
ENDBRANCH  24  29
ENDBRANCH  23  24
ENDBRANCH   4  23
TORSDOF 10
ENDMDL
