MODEL 1
REMARK VINA RESULT:    -7.013      0.000      0.000
REMARK INTER + INTRA:          -9.753
REMARK INTER:                  -8.653
REMARK INTRA:                  -1.099
REMARK UNBOUND:                -1.099
REMARK  Name = 
REMARK  4 active torsions:
REMARK  status: ('A' for Active; 'I' for Inactive)
REMARK    1  A    between atoms: C_7  and  N_8
REMARK    2  A    between atoms: N_8  and  C_9
REMARK    3  A    between atoms: C_9  and  C_10
REMARK    4  A    between atoms: C_14  and  N_15
REMARK                            x       y       z     vdW  Elec       q    Type
REMARK                         _______ _______ _______ _____ _____    ______ ____
ROOT
ATOM      1  C   UNL     1      45.428   4.188  12.847  0.00  0.00    +0.000 A 
ATOM      2  C   UNL     1      44.182   4.645  13.289  0.00  0.00    +0.000 A 
ATOM      3  C   UNL     1      43.091   4.627  12.431  0.00  0.00    +0.000 A 
ATOM      4  C   UNL     1      43.239   4.153  11.124  0.00  0.00    +0.000 A 
ATOM      5  C   UNL     1      44.468   3.676  10.638  0.00  0.00    +0.000 A 
ATOM      6  C   UNL     1      45.548   3.684  11.536  0.00  0.00    +0.000 A 
ENDROOT
BRANCH   5   7
ATOM      7  N   UNL     1      44.590   3.233   9.333  0.00  0.00    +0.000 N 
ATOM      8  C   UNL     1      44.704   1.816   8.991  0.00  0.00    +0.000 C 
ATOM      9  C   UNL     1      46.086   1.519   8.413  0.00  0.00    +0.000 C 
ATOM     10  C   UNL     1      46.401   2.447   7.241  0.00  0.00    +0.000 C 
ATOM     11  C   UNL     1      46.242   3.910   7.648  0.00  0.00    +0.000 C 
ATOM     12  C   UNL     1      44.861   4.183   8.249  0.00  0.00    +0.000 C 
ENDBRANCH   5   7
BRANCH   1  13
ATOM     13  C   UNL     1      46.638   4.299  13.741  0.00  0.00    +0.000 C 
BRANCH  13  14
ATOM     14  N   UNL     1      46.739   5.627  14.343  0.00  0.00    +0.000 N 
ATOM     15  H   UNL     1      47.223   5.592  15.241  0.00  0.00    +0.000 HD
BRANCH  14  22
ATOM     16 CL   UNL     1      45.754  10.071  11.975  0.00  0.00    +0.000 Cl
ATOM     17  C   UNL     1      46.798   8.747  12.327  0.00  0.00    +0.000 A 
ATOM     18  C   UNL     1      48.066   8.712  11.758  0.00  0.00    +0.000 A 
ATOM     19  C   UNL     1      48.892   7.631  12.040  0.00  0.00    +0.000 A 
ATOM     20 CL   UNL     1      50.458   7.544  11.330  0.00  0.00    +0.000 Cl
ATOM     21  C   UNL     1      48.466   6.612  12.893  0.00  0.00    +0.000 A 
ATOM     22  C   UNL     1      47.208   6.658  13.513  0.00  0.00    +0.000 A 
ATOM     23  C   UNL     1      46.362   7.726  13.180  0.00  0.00    +0.000 A 
ENDBRANCH  14  22
ENDBRANCH  13  14
ENDBRANCH   1  13
TORSDOF 4
ENDMDL
MODEL 2
REMARK VINA RESULT:    -7.007      0.089      1.918
REMARK INTER + INTRA:          -9.745
REMARK INTER:                  -8.664
REMARK INTRA:                  -1.081
REMARK UNBOUND:                -1.099
REMARK  Name = 
REMARK  4 active torsions:
REMARK  status: ('A' for Active; 'I' for Inactive)
REMARK    1  A    between atoms: C_7  and  N_8
REMARK    2  A    between atoms: N_8  and  C_9
REMARK    3  A    between atoms: C_9  and  C_10
REMARK    4  A    between atoms: C_14  and  N_15
REMARK                            x       y       z     vdW  Elec       q    Type
REMARK                         _______ _______ _______ _____ _____    ______ ____
ROOT
ATOM      1  C   UNL     1      45.459   4.230  12.879  0.00  0.00    +0.000 A 
ATOM      2  C   UNL     1      44.222   4.689  13.342  0.00  0.00    +0.000 A 
ATOM      3  C   UNL     1      43.116   4.670  12.503  0.00  0.00    +0.000 A 
ATOM      4  C   UNL     1      43.241   4.191  11.195  0.00  0.00    +0.000 A 
ATOM      5  C   UNL     1      44.460   3.712  10.690  0.00  0.00    +0.000 A 
ATOM      6  C   UNL     1      45.556   3.721  11.569  0.00  0.00    +0.000 A 
ENDROOT
BRANCH   5   7
ATOM      7  N   UNL     1      44.559   3.263   9.384  0.00  0.00    +0.000 N 
ATOM      8  C   UNL     1      44.661   1.844   9.045  0.00  0.00    +0.000 C 
ATOM      9  C   UNL     1      46.032   1.539   8.446  0.00  0.00    +0.000 C 
ATOM     10  C   UNL     1      46.332   2.462   7.265  0.00  0.00    +0.000 C 
ATOM     11  C   UNL     1      46.186   3.927   7.670  0.00  0.00    +0.000 C 
ATOM     12  C   UNL     1      44.816   4.208   8.293  0.00  0.00    +0.000 C 
ENDBRANCH   5   7
BRANCH   1  13
ATOM     13  C   UNL     1      46.685   4.343  13.752  0.00  0.00    +0.000 C 
BRANCH  13  14
ATOM     14  N   UNL     1      46.825   5.686  14.309  0.00  0.00    +0.000 N 
ATOM     15  H   UNL     1      47.372   5.677  15.170  0.00  0.00    +0.000 HD
BRANCH  14  22
ATOM     16 CL   UNL     1      50.510   7.565  11.272  0.00  0.00    +0.000 Cl
ATOM     17  C   UNL     1      48.947   7.667  11.990  0.00  0.00    +0.000 A 
ATOM     18  C   UNL     1      48.136   8.758  11.699  0.00  0.00    +0.000 A 
ATOM     19  C   UNL     1      46.884   8.833  12.296  0.00  0.00    +0.000 A 
ATOM     20 CL   UNL     1      45.866  10.185  11.978  0.00  0.00    +0.000 Cl
ATOM     21  C   UNL     1      46.441   7.825  13.154  0.00  0.00    +0.000 A 
ATOM     22  C   UNL     1      47.230   6.695  13.418  0.00  0.00    +0.000 A 
ATOM     23  C   UNL     1      48.512   6.655  12.852  0.00  0.00    +0.000 A 
ENDBRANCH  14  22
ENDBRANCH  13  14
ENDBRANCH   1  13
TORSDOF 4
ENDMDL
MODEL 3
REMARK VINA RESULT:    -6.701      1.196      1.359
REMARK INTER + INTRA:          -9.368
REMARK INTER:                  -8.525
REMARK INTRA:                  -0.843
REMARK UNBOUND:                -1.099
REMARK  Name = 
REMARK  4 active torsions:
REMARK  status: ('A' for Active; 'I' for Inactive)
REMARK    1  A    between atoms: C_7  and  N_8
REMARK    2  A    between atoms: N_8  and  C_9
REMARK    3  A    between atoms: C_9  and  C_10
REMARK    4  A    between atoms: C_14  and  N_15
REMARK                            x       y       z     vdW  Elec       q    Type
REMARK                         _______ _______ _______ _____ _____    ______ ____
ROOT
ATOM      1  C   UNL     1      44.561   5.437  12.144  0.00  0.00    +0.000 A 
ATOM      2  C   UNL     1      43.921   4.589  13.053  0.00  0.00    +0.000 A 
ATOM      3  C   UNL     1      43.537   3.313  12.662  0.00  0.00    +0.000 A 
ATOM      4  C   UNL     1      43.791   2.877  11.358  0.00  0.00    +0.000 A 
ATOM      5  C   UNL     1      44.439   3.690  10.413  0.00  0.00    +0.000 A 
ATOM      6  C   UNL     1      44.836   4.967  10.844  0.00  0.00    +0.000 A 
ENDROOT
BRANCH   5   7
ATOM      7  N   UNL     1      44.658   3.240   9.123  0.00  0.00    +0.000 N 
ATOM      8  C   UNL     1      44.741   1.819   8.788  0.00  0.00    +0.000 C 
ATOM      9  C   UNL     1      46.156   1.462   8.336  0.00  0.00    +0.000 C 
ATOM     10  C   UNL     1      46.614   2.374   7.199  0.00  0.00    +0.000 C 
ATOM     11  C   UNL     1      46.482   3.843   7.595  0.00  0.00    +0.000 C 
ATOM     12  C   UNL     1      45.066   4.176   8.071  0.00  0.00    +0.000 C 
ENDBRANCH   5   7
BRANCH   1  13
ATOM     13  C   UNL     1      44.887   6.858  12.533  0.00  0.00    +0.000 C 
BRANCH  13  14
ATOM     14  N   UNL     1      46.161   6.939  13.244  0.00  0.00    +0.000 N 
ATOM     15  H   UNL     1      46.523   6.011  13.467  0.00  0.00    +0.000 HD
BRANCH  14  22
ATOM     16 CL   UNL     1      47.459  11.677  11.760  0.00  0.00    +0.000 Cl
ATOM     17  C   UNL     1      47.807   9.998  11.924  0.00  0.00    +0.000 A 
ATOM     18  C   UNL     1      49.029   9.510  11.476  0.00  0.00    +0.000 A 
ATOM     19  C   UNL     1      49.290   8.152  11.603  0.00  0.00    +0.000 A 
ATOM     20 CL   UNL     1      50.784   7.512  11.032  0.00  0.00    +0.000 Cl
ATOM     21  C   UNL     1      48.354   7.297  12.187  0.00  0.00    +0.000 A 
ATOM     22  C   UNL     1      47.137   7.783  12.688  0.00  0.00    +0.000 A 
ATOM     23  C   UNL     1      46.862   9.147  12.507  0.00  0.00    +0.000 A 
ENDBRANCH  14  22
ENDBRANCH  13  14
ENDBRANCH   1  13
TORSDOF 4
ENDMDL
MODEL 4
REMARK VINA RESULT:    -6.573      3.518      4.262
REMARK INTER + INTRA:          -9.210
REMARK INTER:                  -8.562
REMARK INTRA:                  -0.647
REMARK UNBOUND:                -1.099
REMARK  Name = 
REMARK  4 active torsions:
REMARK  status: ('A' for Active; 'I' for Inactive)
REMARK    1  A    between atoms: C_7  and  N_8
REMARK    2  A    between atoms: N_8  and  C_9
REMARK    3  A    between atoms: C_9  and  C_10
REMARK    4  A    between atoms: C_14  and  N_15
REMARK                            x       y       z     vdW  Elec       q    Type
REMARK                         _______ _______ _______ _____ _____    ______ ____
ROOT
ATOM      1  C   UNL     1      45.514   3.942  12.978  0.00  0.00    +0.000 A 
ATOM      2  C   UNL     1      44.401   4.683  13.386  0.00  0.00    +0.000 A 
ATOM      3  C   UNL     1      43.375   4.947  12.488  0.00  0.00    +0.000 A 
ATOM      4  C   UNL     1      43.458   4.473  11.175  0.00  0.00    +0.000 A 
ATOM      5  C   UNL     1      44.553   3.718  10.723  0.00  0.00    +0.000 A 
ATOM      6  C   UNL     1      45.563   3.447  11.660  0.00  0.00    +0.000 A 
ENDROOT
BRANCH   5   7
ATOM      7  N   UNL     1      44.618   3.280   9.412  0.00  0.00    +0.000 N 
ATOM      8  C   UNL     1      44.699   1.863   9.059  0.00  0.00    +0.000 C 
ATOM      9  C   UNL     1      46.053   1.550   8.426  0.00  0.00    +0.000 C 
ATOM     10  C   UNL     1      46.336   2.480   7.247  0.00  0.00    +0.000 C 
ATOM     11  C   UNL     1      46.213   3.943   7.667  0.00  0.00    +0.000 C 
ATOM     12  C   UNL     1      44.860   4.232   8.323  0.00  0.00    +0.000 C 
ENDBRANCH   5   7
BRANCH   1  13
ATOM     13  C   UNL     1      46.676   3.739  13.919  0.00  0.00    +0.000 C 
BRANCH  13  14
ATOM     14  N   UNL     1      46.531   4.542  15.131  0.00  0.00    +0.000 N 
ATOM     15  H   UNL     1      45.550   4.647  15.392  0.00  0.00    +0.000 HD
BRANCH  14  22
ATOM     16 CL   UNL     1      47.899   5.440  19.995  0.00  0.00    +0.000 Cl
ATOM     17  C   UNL     1      48.076   4.585  18.510  0.00  0.00    +0.000 A 
ATOM     18  C   UNL     1      49.043   3.591  18.410  0.00  0.00    +0.000 A 
ATOM     19  C   UNL     1      49.183   2.919  17.202  0.00  0.00    +0.000 A 
ATOM     20 CL   UNL     1      50.389   1.701  17.037  0.00  0.00    +0.000 Cl
ATOM     21  C   UNL     1      48.359   3.222  16.117  0.00  0.00    +0.000 A 
ATOM     22  C   UNL     1      47.348   4.190  16.219  0.00  0.00    +0.000 A 
ATOM     23  C   UNL     1      47.249   4.898  17.425  0.00  0.00    +0.000 A 
ENDBRANCH  14  22
ENDBRANCH  13  14
ENDBRANCH   1  13
TORSDOF 4
ENDMDL
MODEL 5
REMARK VINA RESULT:    -6.250      2.651      3.833
REMARK INTER + INTRA:          -8.811
REMARK INTER:                  -8.137
REMARK INTRA:                  -0.673
REMARK UNBOUND:                -1.099
REMARK  Name = 
REMARK  4 active torsions:
REMARK  status: ('A' for Active; 'I' for Inactive)
REMARK    1  A    between atoms: C_7  and  N_8
REMARK    2  A    between atoms: N_8  and  C_9
REMARK    3  A    between atoms: C_9  and  C_10
REMARK    4  A    between atoms: C_14  and  N_15
REMARK                            x       y       z     vdW  Elec       q    Type
REMARK                         _______ _______ _______ _____ _____    ______ ____
ROOT
ATOM      1  C   UNL     1      44.258   5.529  11.758  0.00  0.00    +0.000 A 
ATOM      2  C   UNL     1      43.742   4.696  12.755  0.00  0.00    +0.000 A 
ATOM      3  C   UNL     1      43.526   3.349  12.492  0.00  0.00    +0.000 A 
ATOM      4  C   UNL     1      43.826   2.829  11.230  0.00  0.00    +0.000 A 
ATOM      5  C   UNL     1      44.354   3.625  10.201  0.00  0.00    +0.000 A 
ATOM      6  C   UNL     1      44.583   4.978  10.503  0.00  0.00    +0.000 A 
ENDROOT
BRANCH   5   7
ATOM      7  N   UNL     1      44.621   3.087   8.954  0.00  0.00    +0.000 N 
ATOM      8  C   UNL     1      44.803   1.652   8.739  0.00  0.00    +0.000 C 
ATOM      9  C   UNL     1      46.244   1.355   8.329  0.00  0.00    +0.000 C 
ATOM     10  C   UNL     1      46.657   2.200   7.125  0.00  0.00    +0.000 C 
ATOM     11  C   UNL     1      46.422   3.684   7.397  0.00  0.00    +0.000 C 
ATOM     12  C   UNL     1      44.980   3.959   7.831  0.00  0.00    +0.000 C 
ENDBRANCH   5   7
BRANCH   1  13
ATOM     13  C   UNL     1      44.398   7.011  12.007  0.00  0.00    +0.000 C 
BRANCH  13  14
ATOM     14  N   UNL     1      43.555   7.788  11.102  0.00  0.00    +0.000 N 
ATOM     15  H   UNL     1      42.566   7.572  11.237  0.00  0.00    +0.000 HD
BRANCH  14  22
ATOM     16 CL   UNL     1      46.805  11.649  12.030  0.00  0.00    +0.000 Cl
ATOM     17  C   UNL     1      45.280  11.056  11.492  0.00  0.00    +0.000 A 
ATOM     18  C   UNL     1      44.321  11.956  11.040  0.00  0.00    +0.000 A 
ATOM     19  C   UNL     1      43.092  11.464  10.622  0.00  0.00    +0.000 A 
ATOM     20 CL   UNL     1      41.873  12.555  10.084  0.00  0.00    +0.000 Cl
ATOM     21  C   UNL     1      42.830  10.093  10.635  0.00  0.00    +0.000 A 
ATOM     22  C   UNL     1      43.805   9.169  11.042  0.00  0.00    +0.000 A 
ATOM     23  C   UNL     1      45.024   9.680  11.511  0.00  0.00    +0.000 A 
ENDBRANCH  14  22
ENDBRANCH  13  14
ENDBRANCH   1  13
TORSDOF 4
ENDMDL
MODEL 6
REMARK VINA RESULT:    -6.128      1.707      2.441
REMARK INTER + INTRA:          -8.660
REMARK INTER:                  -7.767
REMARK INTRA:                  -0.893
REMARK UNBOUND:                -1.099
REMARK  Name = 
REMARK  4 active torsions:
REMARK  status: ('A' for Active; 'I' for Inactive)
REMARK    1  A    between atoms: C_7  and  N_8
REMARK    2  A    between atoms: N_8  and  C_9
REMARK    3  A    between atoms: C_9  and  C_10
REMARK    4  A    between atoms: C_14  and  N_15
REMARK                            x       y       z     vdW  Elec       q    Type
REMARK                         _______ _______ _______ _____ _____    ______ ____
ROOT
ATOM      1  C   UNL     1      45.378   6.028  11.884  0.00  0.00    +0.000 A 
ATOM      2  C   UNL     1      44.953   5.273  12.981  0.00  0.00    +0.000 A 
ATOM      3  C   UNL     1      44.553   3.954  12.804  0.00  0.00    +0.000 A 
ATOM      4  C   UNL     1      44.576   3.384  11.528  0.00  0.00    +0.000 A 
ATOM      5  C   UNL     1      45.003   4.101  10.398  0.00  0.00    +0.000 A 
ATOM      6  C   UNL     1      45.423   5.424  10.611  0.00  0.00    +0.000 A 
ENDROOT
BRANCH   5   7
ATOM      7  N   UNL     1      44.995   3.517   9.144  0.00  0.00    +0.000 N 
ATOM      8  C   UNL     1      44.824   2.078   8.946  0.00  0.00    +0.000 C 
ATOM      9  C   UNL     1      46.104   1.465   8.383  0.00  0.00    +0.000 C 
ATOM     10  C   UNL     1      46.552   2.195   7.117  0.00  0.00    +0.000 C 
ATOM     11  C   UNL     1      46.689   3.694   7.376  0.00  0.00    +0.000 C 
ATOM     12  C   UNL     1      45.406   4.286   7.965  0.00  0.00    +0.000 C 
ENDBRANCH   5   7
BRANCH   1  13
ATOM     13  C   UNL     1      45.715   7.489  12.054  0.00  0.00    +0.000 C 
BRANCH  13  14
ATOM     14  N   UNL     1      46.241   7.766  13.388  0.00  0.00    +0.000 N 
ATOM     15  H   UNL     1      45.786   7.187  14.095  0.00  0.00    +0.000 HD
BRANCH  14  22
ATOM     16 CL   UNL     1      50.808   8.159  11.081  0.00  0.00    +0.000 Cl
ATOM     17  C   UNL     1      49.843   7.922  12.489  0.00  0.00    +0.000 A 
ATOM     18  C   UNL     1      50.466   7.723  13.715  0.00  0.00    +0.000 A 
ATOM     19  C   UNL     1      49.675   7.520  14.838  0.00  0.00    +0.000 A 
ATOM     20 CL   UNL     1      50.417   7.243  16.367  0.00  0.00    +0.000 Cl
ATOM     21  C   UNL     1      48.283   7.536  14.743  0.00  0.00    +0.000 A 
ATOM     22  C   UNL     1      47.640   7.784  13.520  0.00  0.00    +0.000 A 
ATOM     23  C   UNL     1      48.447   7.935  12.384  0.00  0.00    +0.000 A 
ENDBRANCH  14  22
ENDBRANCH  13  14
ENDBRANCH   1  13
TORSDOF 4
ENDMDL
MODEL 7
REMARK VINA RESULT:    -6.086      3.938      4.855
REMARK INTER + INTRA:          -8.608
REMARK INTER:                  -7.857
REMARK INTRA:                  -0.751
REMARK UNBOUND:                -1.099
REMARK  Name = 
REMARK  4 active torsions:
REMARK  status: ('A' for Active; 'I' for Inactive)
REMARK    1  A    between atoms: C_7  and  N_8
REMARK    2  A    between atoms: N_8  and  C_9
REMARK    3  A    between atoms: C_9  and  C_10
REMARK    4  A    between atoms: C_14  and  N_15
REMARK                            x       y       z     vdW  Elec       q    Type
REMARK                         _______ _______ _______ _____ _____    ______ ____
ROOT
ATOM      1  C   UNL     1      46.804   4.712  13.807  0.00  0.00    +0.000 A 
ATOM      2  C   UNL     1      47.395   5.980  13.792  0.00  0.00    +0.000 A 
ATOM      3  C   UNL     1      47.193   6.828  12.710  0.00  0.00    +0.000 A 
ATOM      4  C   UNL     1      46.400   6.412  11.637  0.00  0.00    +0.000 A 
ATOM      5  C   UNL     1      45.780   5.152  11.612  0.00  0.00    +0.000 A 
ATOM      6  C   UNL     1      45.983   4.326  12.729  0.00  0.00    +0.000 A 
ENDROOT
BRANCH   5   7
ATOM      7  N   UNL     1      45.017   4.759  10.526  0.00  0.00    +0.000 N 
ATOM      8  C   UNL     1      43.974   3.739  10.625  0.00  0.00    +0.000 C 
ATOM      9  C   UNL     1      44.367   2.498   9.827  0.00  0.00    +0.000 C 
ATOM     10  C   UNL     1      44.716   2.862   8.384  0.00  0.00    +0.000 C 
ATOM     11  C   UNL     1      45.790   3.946   8.343  0.00  0.00    +0.000 C 
ATOM     12  C   UNL     1      45.391   5.171   9.169  0.00  0.00    +0.000 C 
ENDBRANCH   5   7
BRANCH   1  13
ATOM     13  C   UNL     1      47.102   3.750  14.930  0.00  0.00    +0.000 C 
BRANCH  13  14
ATOM     14  N   UNL     1      46.624   4.259  16.213  0.00  0.00    +0.000 N 
ATOM     15  H   UNL     1      45.781   3.769  16.516  0.00  0.00    +0.000 HD
BRANCH  14  22
ATOM     16 CL   UNL     1      47.819   6.170  20.823  0.00  0.00    +0.000 Cl
ATOM     17  C   UNL     1      48.231   5.289  19.401  0.00  0.00    +0.000 A 
ATOM     18  C   UNL     1      49.505   4.747  19.282  0.00  0.00    +0.000 A 
ATOM     19  C   UNL     1      49.827   4.051  18.124  0.00  0.00    +0.000 A 
ATOM     20 CL   UNL     1      51.406   3.391  17.935  0.00  0.00    +0.000 Cl
ATOM     21  C   UNL     1      48.884   3.881  17.109  0.00  0.00    +0.000 A 
ATOM     22  C   UNL     1      47.579   4.381  17.236  0.00  0.00    +0.000 A 
ATOM     23  C   UNL     1      47.281   5.127  18.385  0.00  0.00    +0.000 A 
ENDBRANCH  14  22
ENDBRANCH  13  14
ENDBRANCH   1  13
TORSDOF 4
ENDMDL
MODEL 8
REMARK VINA RESULT:    -5.942      3.650      5.589
REMARK INTER + INTRA:          -8.431
REMARK INTER:                  -7.539
REMARK INTRA:                  -0.892
REMARK UNBOUND:                -1.099
REMARK  Name = 
REMARK  4 active torsions:
REMARK  status: ('A' for Active; 'I' for Inactive)
REMARK    1  A    between atoms: C_7  and  N_8
REMARK    2  A    between atoms: N_8  and  C_9
REMARK    3  A    between atoms: C_9  and  C_10
REMARK    4  A    between atoms: C_14  and  N_15
REMARK                            x       y       z     vdW  Elec       q    Type
REMARK                         _______ _______ _______ _____ _____    ______ ____
ROOT
ATOM      1  C   UNL     1      47.888   7.375  13.847  0.00  0.00    +0.000 A 
ATOM      2  C   UNL     1      47.169   8.567  13.720  0.00  0.00    +0.000 A 
ATOM      3  C   UNL     1      45.985   8.591  12.994  0.00  0.00    +0.000 A 
ATOM      4  C   UNL     1      45.514   7.421  12.391  0.00  0.00    +0.000 A 
ATOM      5  C   UNL     1      46.197   6.199  12.499  0.00  0.00    +0.000 A 
ATOM      6  C   UNL     1      47.379   6.200  13.258  0.00  0.00    +0.000 A 
ENDROOT
BRANCH   5   7
ATOM      7  N   UNL     1      45.717   5.062  11.873  0.00  0.00    +0.000 N 
ATOM      8  C   UNL     1      45.168   5.081  10.518  0.00  0.00    +0.000 C 
ATOM      9  C   UNL     1      43.674   4.768  10.546  0.00  0.00    +0.000 C 
ATOM     10  C   UNL     1      43.401   3.459  11.286  0.00  0.00    +0.000 C 
ATOM     11  C   UNL     1      44.018   3.486  12.682  0.00  0.00    +0.000 C 
ATOM     12  C   UNL     1      45.509   3.827  12.637  0.00  0.00    +0.000 C 
ENDBRANCH   5   7
BRANCH   1  13
ATOM     13  C   UNL     1      49.225   7.366  14.547  0.00  0.00    +0.000 C 
BRANCH  13  14
ATOM     14  N   UNL     1      49.069   7.311  15.999  0.00  0.00    +0.000 N 
ATOM     15  H   UNL     1      48.195   7.746  16.296  0.00  0.00    +0.000 HD
BRANCH  14  22
ATOM     16 CL   UNL     1      52.444   3.982  17.963  0.00  0.00    +0.000 Cl
ATOM     17  C   UNL     1      50.838   4.419  17.518  0.00  0.00    +0.000 A 
ATOM     18  C   UNL     1      49.803   3.518  17.740  0.00  0.00    +0.000 A 
ATOM     19  C   UNL     1      48.516   3.878  17.364  0.00  0.00    +0.000 A 
ATOM     20 CL   UNL     1      47.215   2.774  17.600  0.00  0.00    +0.000 Cl
ATOM     21  C   UNL     1      48.262   5.127  16.793  0.00  0.00    +0.000 A 
ATOM     22  C   UNL     1      49.289   6.064  16.607  0.00  0.00    +0.000 A 
ATOM     23  C   UNL     1      50.593   5.670  16.942  0.00  0.00    +0.000 A 
ENDBRANCH  14  22
ENDBRANCH  13  14
ENDBRANCH   1  13
TORSDOF 4
ENDMDL
MODEL 9
REMARK VINA RESULT:    -5.818      4.074      5.887
REMARK INTER + INTRA:          -8.277
REMARK INTER:                  -7.438
REMARK INTRA:                  -0.840
REMARK UNBOUND:                -1.099
REMARK  Name = 
REMARK  4 active torsions:
REMARK  status: ('A' for Active; 'I' for Inactive)
REMARK    1  A    between atoms: C_7  and  N_8
REMARK    2  A    between atoms: N_8  and  C_9
REMARK    3  A    between atoms: C_9  and  C_10
REMARK    4  A    between atoms: C_14  and  N_15
REMARK                            x       y       z     vdW  Elec       q    Type
REMARK                         _______ _______ _______ _____ _____    ______ ____
ROOT
ATOM      1  C   UNL     1      48.305   6.878  13.900  0.00  0.00    +0.000 A 
ATOM      2  C   UNL     1      48.618   7.571  12.727  0.00  0.00    +0.000 A 
ATOM      3  C   UNL     1      47.837   7.403  11.591  0.00  0.00    +0.000 A 
ATOM      4  C   UNL     1      46.738   6.540  11.622  0.00  0.00    +0.000 A 
ATOM      5  C   UNL     1      46.380   5.830  12.779  0.00  0.00    +0.000 A 
ATOM      6  C   UNL     1      47.174   6.038  13.919  0.00  0.00    +0.000 A 
ENDROOT
BRANCH   5   7
ATOM      7  N   UNL     1      45.299   4.966  12.774  0.00  0.00    +0.000 N 
ATOM      8  C   UNL     1      45.430   3.543  12.467  0.00  0.00    +0.000 C 
ATOM      9  C   UNL     1      44.722   3.215  11.154  0.00  0.00    +0.000 C 
ATOM     10  C   UNL     1      43.270   3.692  11.180  0.00  0.00    +0.000 C 
ATOM     11  C   UNL     1      43.193   5.177  11.530  0.00  0.00    +0.000 C 
ATOM     12  C   UNL     1      43.930   5.490  12.834  0.00  0.00    +0.000 C 
ENDBRANCH   5   7
BRANCH   1  13
ATOM     13  C   UNL     1      49.208   6.978  15.104  0.00  0.00    +0.000 C 
BRANCH  13  14
ATOM     14  N   UNL     1      48.445   7.210  16.329  0.00  0.00    +0.000 N 
ATOM     15  H   UNL     1      47.473   7.442  16.122  0.00  0.00    +0.000 HD
BRANCH  14  22
ATOM     16 CL   UNL     1      49.902   2.463  17.625  0.00  0.00    +0.000 Cl
ATOM     17  C   UNL     1      49.202   3.988  18.017  0.00  0.00    +0.000 A 
ATOM     18  C   UNL     1      48.748   4.215  19.312  0.00  0.00    +0.000 A 
ATOM     19  C   UNL     1      48.174   5.444  19.609  0.00  0.00    +0.000 A 
ATOM     20 CL   UNL     1      47.577   5.746  21.196  0.00  0.00    +0.000 Cl
ATOM     21  C   UNL     1      48.073   6.439  18.635  0.00  0.00    +0.000 A 
ATOM     22  C   UNL     1      48.570   6.241  17.338  0.00  0.00    +0.000 A 
ATOM     23  C   UNL     1      49.100   4.978  17.034  0.00  0.00    +0.000 A 
ENDBRANCH  14  22
ENDBRANCH  13  14
ENDBRANCH   1  13
TORSDOF 4
ENDMDL
