MODEL 1
REMARK VINA RESULT:    -8.440      0.000      0.000
REMARK INTER + INTRA:         -12.085
REMARK INTER:                 -10.907
REMARK INTRA:                  -1.178
REMARK UNBOUND:                -1.178
REMARK  Name = 
REMARK  5 active torsions:
REMARK  status: ('A' for Active; 'I' for Inactive)
REMARK    1  A    between atoms: C_2  and  C_19
REMARK    2  A    between atoms: N_3  and  C_4
REMARK    3  A    between atoms: C_4  and  C_5
REMARK    4  A    between atoms: C_8  and  C_9
REMARK    5  A    between atoms: C_9  and  C_10
REMARK                            x       y       z     vdW  Elec       q    Type
REMARK                         _______ _______ _______ _____ _____    ______ ____
ROOT
ATOM      1  O   UNL     1      48.774   7.162  12.934  0.00  0.00    +0.000 OA
ATOM      2  C   UNL     1      48.029   6.904  13.875  0.00  0.00    +0.000 C 
ATOM      3  N   UNL     1      46.667   7.031  13.797  0.00  0.00    +0.000 N 
ATOM      4  H   UNL     1      46.107   6.972  14.640  0.00  0.00    +0.000 HD
ENDROOT
BRANCH   2   5
ATOM      5  C   UNL     1      48.558   6.381  15.138  0.00  0.00    +0.000 A 
ATOM      6  C   UNL     1      49.592   7.044  15.783  0.00  0.00    +0.000 A 
ATOM      7  S   UNL     1      50.058   6.313  17.253  0.00  0.00    +0.000 S 
ATOM      8  C   UNL     1      48.873   5.103  17.089  0.00  0.00    +0.000 A 
ATOM      9  N   UNL     1      48.699   4.156  18.051  0.00  0.00    +0.000 NA
ATOM     10  C   UNL     1      47.738   3.327  17.815  0.00  0.00    +0.000 A 
ATOM     11  N   UNL     1      46.948   3.341  16.697  0.00  0.00    +0.000 N 
ATOM     12  C   UNL     1      47.145   4.221  15.658  0.00  0.00    +0.000 A 
ATOM     13  O   UNL     1      46.532   4.104  14.604  0.00  0.00    +0.000 OA
ATOM     14  C   UNL     1      48.164   5.226  15.909  0.00  0.00    +0.000 A 
ATOM     15  H   UNL     1      46.246   2.629  16.550  0.00  0.00    +0.000 HD
ENDBRANCH   2   5
BRANCH   3  16
ATOM     16  C   UNL     1      46.007   7.535  12.622  0.00  0.00    +0.000 C 
BRANCH  16  17
ATOM     17  C   UNL     1      45.635   6.437  11.662  0.00  0.00    +0.000 A 
ATOM     18  C   UNL     1      44.672   5.485  12.022  0.00  0.00    +0.000 A 
ATOM     19  C   UNL     1      44.260   4.510  11.112  0.00  0.00    +0.000 A 
ATOM     20  C   UNL     1      44.823   4.451   9.831  0.00  0.00    +0.000 A 
ATOM     21  C   UNL     1      45.813   5.381   9.481  0.00  0.00    +0.000 A 
ATOM     22  C   UNL     1      46.222   6.358  10.392  0.00  0.00    +0.000 A 
BRANCH  20  23
ATOM     23  C   UNL     1      44.340   3.429   8.828  0.00  0.00    +0.000 C 
BRANCH  23  24
ATOM     24  C   UNL     1      45.370   2.362   8.570  0.00  0.00    +0.000 C 
ATOM     25  C   UNL     1      46.373   2.379   7.671  0.00  0.00    +0.000 C 
ATOM     26  C   UNL     1      46.646   3.483   6.678  0.00  0.00    +0.000 C 
ATOM     27  C   UNL     1      46.648   2.924   5.254  0.00  0.00    +0.000 C 
ATOM     28  C   UNL     1      47.626   1.758   5.100  0.00  0.00    +0.000 C 
ATOM     29  C   UNL     1      47.377   0.667   6.142  0.00  0.00    +0.000 C 
ATOM     30  C   UNL     1      47.354   1.230   7.563  0.00  0.00    +0.000 C 
ENDBRANCH  23  24
ENDBRANCH  20  23
ENDBRANCH  16  17
ENDBRANCH   3  16
TORSDOF 5
ENDMDL
MODEL 2
REMARK VINA RESULT:    -8.273      1.783      2.456
REMARK INTER + INTRA:         -11.869
REMARK INTER:                 -10.933
REMARK INTRA:                  -0.936
REMARK UNBOUND:                -1.178
REMARK  Name = 
REMARK  5 active torsions:
REMARK  status: ('A' for Active; 'I' for Inactive)
REMARK    1  A    between atoms: C_2  and  C_19
REMARK    2  A    between atoms: N_3  and  C_4
REMARK    3  A    between atoms: C_4  and  C_5
REMARK    4  A    between atoms: C_8  and  C_9
REMARK    5  A    between atoms: C_9  and  C_10
REMARK                            x       y       z     vdW  Elec       q    Type
REMARK                         _______ _______ _______ _____ _____    ______ ____
ROOT
ATOM      1  O   UNL     1      49.182   6.454  14.834  0.00  0.00    +0.000 OA
ATOM      2  C   UNL     1      48.187   5.839  15.208  0.00  0.00    +0.000 C 
ATOM      3  N   UNL     1      47.032   5.782  14.474  0.00  0.00    +0.000 N 
ATOM      4  H   UNL     1      46.186   5.411  14.893  0.00  0.00    +0.000 HD
ENDROOT
BRANCH   2   5
ATOM      5  C   UNL     1      48.197   5.070  16.457  0.00  0.00    +0.000 A 
ATOM      6  C   UNL     1      47.854   3.726  16.445  0.00  0.00    +0.000 A 
ATOM      7  S   UNL     1      47.951   2.985  17.979  0.00  0.00    +0.000 S 
ATOM      8  C   UNL     1      48.485   4.429  18.703  0.00  0.00    +0.000 A 
ATOM      9  N   UNL     1      48.801   4.476  20.026  0.00  0.00    +0.000 NA
ATOM     10  C   UNL     1      49.230   5.625  20.430  0.00  0.00    +0.000 A 
ATOM     11  N   UNL     1      49.351   6.738  19.642  0.00  0.00    +0.000 N 
ATOM     12  C   UNL     1      48.958   6.762  18.325  0.00  0.00    +0.000 A 
ATOM     13  O   UNL     1      48.924   7.812  17.693  0.00  0.00    +0.000 OA
ATOM     14  C   UNL     1      48.542   5.473  17.800  0.00  0.00    +0.000 A 
ATOM     15  H   UNL     1      49.644   7.621  20.037  0.00  0.00    +0.000 HD
ENDBRANCH   2   5
BRANCH   3  16
ATOM     16  C   UNL     1      46.875   6.488  13.230  0.00  0.00    +0.000 C 
BRANCH  16  17
ATOM     17  C   UNL     1      46.160   5.665  12.193  0.00  0.00    +0.000 A 
ATOM     18  C   UNL     1      46.051   6.134  10.877  0.00  0.00    +0.000 A 
ATOM     19  C   UNL     1      45.460   5.345   9.888  0.00  0.00    +0.000 A 
ATOM     20  C   UNL     1      44.943   4.082  10.201  0.00  0.00    +0.000 A 
ATOM     21  C   UNL     1      45.019   3.627  11.525  0.00  0.00    +0.000 A 
ATOM     22  C   UNL     1      45.612   4.416  12.514  0.00  0.00    +0.000 A 
BRANCH  20  23
ATOM     23  C   UNL     1      44.351   3.207   9.120  0.00  0.00    +0.000 C 
BRANCH  23  24
ATOM     24  C   UNL     1      45.294   2.108   8.707  0.00  0.00    +0.000 C 
ATOM     25  C   UNL     1      46.326   2.184   7.843  0.00  0.00    +0.000 C 
ATOM     26  C   UNL     1      46.728   3.408   7.056  0.00  0.00    +0.000 C 
ATOM     27  C   UNL     1      46.732   3.096   5.560  0.00  0.00    +0.000 C 
ATOM     28  C   UNL     1      47.610   1.888   5.230  0.00  0.00    +0.000 C 
ATOM     29  C   UNL     1      47.232   0.666   6.068  0.00  0.00    +0.000 C 
ATOM     30  C   UNL     1      47.208   0.985   7.563  0.00  0.00    +0.000 C 
ENDBRANCH  23  24
ENDBRANCH  20  23
ENDBRANCH  16  17
ENDBRANCH   3  16
TORSDOF 5
ENDMDL
MODEL 3
REMARK VINA RESULT:    -7.782      2.679      4.612
REMARK INTER + INTRA:         -11.234
REMARK INTER:                 -10.304
REMARK INTRA:                  -0.930
REMARK UNBOUND:                -1.178
REMARK  Name = 
REMARK  5 active torsions:
REMARK  status: ('A' for Active; 'I' for Inactive)
REMARK    1  A    between atoms: C_2  and  C_19
REMARK    2  A    between atoms: N_3  and  C_4
REMARK    3  A    between atoms: C_4  and  C_5
REMARK    4  A    between atoms: C_8  and  C_9
REMARK    5  A    between atoms: C_9  and  C_10
REMARK                            x       y       z     vdW  Elec       q    Type
REMARK                         _______ _______ _______ _____ _____    ______ ____
ROOT
ATOM      1  O   UNL     1      48.985   6.754  12.601  0.00  0.00    +0.000 OA
ATOM      2  C   UNL     1      48.093   7.509  12.975  0.00  0.00    +0.000 C 
ATOM      3  N   UNL     1      46.966   7.063  13.614  0.00  0.00    +0.000 N 
ATOM      4  H   UNL     1      46.183   7.693  13.753  0.00  0.00    +0.000 HD
ENDROOT
BRANCH   2   5
ATOM      5  C   UNL     1      48.209   8.961  12.808  0.00  0.00    +0.000 A 
ATOM      6  C   UNL     1      49.433   9.584  13.007  0.00  0.00    +0.000 A 
ATOM      7  S   UNL     1      49.390  11.269  12.739  0.00  0.00    +0.000 S 
ATOM      8  C   UNL     1      47.742  11.215  12.320  0.00  0.00    +0.000 A 
ATOM      9  N   UNL     1      47.080  12.339  11.931  0.00  0.00    +0.000 NA
ATOM     10  C   UNL     1      45.846  12.143  11.603  0.00  0.00    +0.000 A 
ATOM     11  N   UNL     1      45.205  10.934  11.650  0.00  0.00    +0.000 N 
ATOM     12  C   UNL     1      45.807   9.791  12.122  0.00  0.00    +0.000 A 
ATOM     13  O   UNL     1      45.163   8.765  12.305  0.00  0.00    +0.000 OA
ATOM     14  C   UNL     1      47.220   9.940  12.429  0.00  0.00    +0.000 A 
ATOM     15  H   UNL     1      44.222  10.861  11.429  0.00  0.00    +0.000 HD
ENDBRANCH   2   5
BRANCH   3  16
ATOM     16  C   UNL     1      46.714   5.666  13.845  0.00  0.00    +0.000 C 
BRANCH  16  17
ATOM     17  C   UNL     1      46.039   5.006  12.672  0.00  0.00    +0.000 A 
ATOM     18  C   UNL     1      45.832   5.723  11.487  0.00  0.00    +0.000 A 
ATOM     19  C   UNL     1      45.280   5.100  10.366  0.00  0.00    +0.000 A 
ATOM     20  C   UNL     1      44.899   3.753  10.418  0.00  0.00    +0.000 A 
ATOM     21  C   UNL     1      45.072   3.044  11.614  0.00  0.00    +0.000 A 
ATOM     22  C   UNL     1      45.627   3.669  12.735  0.00  0.00    +0.000 A 
BRANCH  20  23
ATOM     23  C   UNL     1      44.351   3.065   9.189  0.00  0.00    +0.000 C 
BRANCH  23  24
ATOM     24  C   UNL     1      45.277   1.991   8.684  0.00  0.00    +0.000 C 
ATOM     25  C   UNL     1      46.321   2.126   7.843  0.00  0.00    +0.000 C 
ATOM     26  C   UNL     1      46.756   3.410   7.179  0.00  0.00    +0.000 C 
ATOM     27  C   UNL     1      46.773   3.239   5.659  0.00  0.00    +0.000 C 
ATOM     28  C   UNL     1      47.632   2.049   5.228  0.00  0.00    +0.000 C 
ATOM     29  C   UNL     1      47.220   0.762   5.943  0.00  0.00    +0.000 C 
ATOM     30  C   UNL     1      47.183   0.940   7.461  0.00  0.00    +0.000 C 
ENDBRANCH  23  24
ENDBRANCH  20  23
ENDBRANCH  16  17
ENDBRANCH   3  16
TORSDOF 5
ENDMDL
MODEL 4
REMARK VINA RESULT:    -7.750      0.948      1.744
REMARK INTER + INTRA:         -11.194
REMARK INTER:                 -10.053
REMARK INTRA:                  -1.140
REMARK UNBOUND:                -1.178
REMARK  Name = 
REMARK  5 active torsions:
REMARK  status: ('A' for Active; 'I' for Inactive)
REMARK    1  A    between atoms: C_2  and  C_19
REMARK    2  A    between atoms: N_3  and  C_4
REMARK    3  A    between atoms: C_4  and  C_5
REMARK    4  A    between atoms: C_8  and  C_9
REMARK    5  A    between atoms: C_9  and  C_10
REMARK                            x       y       z     vdW  Elec       q    Type
REMARK                         _______ _______ _______ _____ _____    ______ ____
ROOT
ATOM      1  O   UNL     1      49.427   6.724  13.705  0.00  0.00    +0.000 OA
ATOM      2  C   UNL     1      48.703   6.774  14.696  0.00  0.00    +0.000 C 
ATOM      3  N   UNL     1      47.486   7.404  14.692  0.00  0.00    +0.000 N 
ATOM      4  H   UNL     1      47.001   7.569  15.567  0.00  0.00    +0.000 HD
ENDROOT
BRANCH   2   5
ATOM      5  C   UNL     1      49.080   6.105  15.944  0.00  0.00    +0.000 A 
ATOM      6  C   UNL     1      50.135   6.594  16.700  0.00  0.00    +0.000 A 
ATOM      7  S   UNL     1      50.413   5.711  18.135  0.00  0.00    +0.000 S 
ATOM      8  C   UNL     1      49.112   4.665  17.805  0.00  0.00    +0.000 A 
ATOM      9  N   UNL     1      48.766   3.680  18.678  0.00  0.00    +0.000 NA
ATOM     10  C   UNL     1      47.736   2.989  18.319  0.00  0.00    +0.000 A 
ATOM     11  N   UNL     1      47.032   3.175  17.160  0.00  0.00    +0.000 N 
ATOM     12  C   UNL     1      47.399   4.096  16.208  0.00  0.00    +0.000 A 
ATOM     13  O   UNL     1      46.851   4.127  15.112  0.00  0.00    +0.000 OA
ATOM     14  C   UNL     1      48.505   4.953  16.598  0.00  0.00    +0.000 A 
ATOM     15  H   UNL     1      46.266   2.563  16.916  0.00  0.00    +0.000 HD
ENDBRANCH   2   5
BRANCH   3  16
ATOM     16  C   UNL     1      46.986   8.105  13.540  0.00  0.00    +0.000 C 
BRANCH  16  17
ATOM     17  C   UNL     1      46.332   7.181  12.548  0.00  0.00    +0.000 A 
ATOM     18  C   UNL     1      46.819   7.099  11.237  0.00  0.00    +0.000 A 
ATOM     19  C   UNL     1      46.272   6.189  10.331  0.00  0.00    +0.000 A 
ATOM     20  C   UNL     1      45.209   5.360  10.711  0.00  0.00    +0.000 A 
ATOM     21  C   UNL     1      44.697   5.466  12.011  0.00  0.00    +0.000 A 
ATOM     22  C   UNL     1      45.246   6.377  12.918  0.00  0.00    +0.000 A 
BRANCH  20  23
ATOM     23  C   UNL     1      44.653   4.338   9.746  0.00  0.00    +0.000 C 
BRANCH  23  24
ATOM     24  C   UNL     1      45.432   4.297   8.458  0.00  0.00    +0.000 C 
ATOM     25  C   UNL     1      45.703   3.225   7.688  0.00  0.00    +0.000 C 
ATOM     26  C   UNL     1      45.310   1.800   7.993  0.00  0.00    +0.000 C 
ATOM     27  C   UNL     1      46.549   0.904   8.022  0.00  0.00    +0.000 C 
ATOM     28  C   UNL     1      47.361   1.012   6.730  0.00  0.00    +0.000 C 
ATOM     29  C   UNL     1      47.711   2.463   6.399  0.00  0.00    +0.000 C 
ATOM     30  C   UNL     1      46.474   3.361   6.392  0.00  0.00    +0.000 C 
ENDBRANCH  23  24
ENDBRANCH  20  23
ENDBRANCH  16  17
ENDBRANCH   3  16
TORSDOF 5
ENDMDL
MODEL 5
REMARK VINA RESULT:    -7.623      2.837      3.643
REMARK INTER + INTRA:         -11.029
REMARK INTER:                  -9.992
REMARK INTRA:                  -1.038
REMARK UNBOUND:                -1.178
REMARK  Name = 
REMARK  5 active torsions:
REMARK  status: ('A' for Active; 'I' for Inactive)
REMARK    1  A    between atoms: C_2  and  C_19
REMARK    2  A    between atoms: N_3  and  C_4
REMARK    3  A    between atoms: C_4  and  C_5
REMARK    4  A    between atoms: C_8  and  C_9
REMARK    5  A    between atoms: C_9  and  C_10
REMARK                            x       y       z     vdW  Elec       q    Type
REMARK                         _______ _______ _______ _____ _____    ______ ____
ROOT
ATOM      1  O   UNL     1      47.006   9.229  12.488  0.00  0.00    +0.000 OA
ATOM      2  C   UNL     1      47.868   8.367  12.635  0.00  0.00    +0.000 C 
ATOM      3  N   UNL     1      47.568   7.057  12.902  0.00  0.00    +0.000 N 
ATOM      4  H   UNL     1      48.303   6.419  13.183  0.00  0.00    +0.000 HD
ENDROOT
BRANCH   2   5
ATOM      5  C   UNL     1      49.290   8.684  12.475  0.00  0.00    +0.000 A 
ATOM      6  C   UNL     1      49.708   9.476  11.416  0.00  0.00    +0.000 A 
ATOM      7  S   UNL     1      51.390   9.768  11.405  0.00  0.00    +0.000 S 
ATOM      8  C   UNL     1      51.609   8.870  12.832  0.00  0.00    +0.000 A 
ATOM      9  N   UNL     1      52.838   8.754  13.407  0.00  0.00    +0.000 NA
ATOM     10  C   UNL     1      52.849   8.078  14.507  0.00  0.00    +0.000 A 
ATOM     11  N   UNL     1      51.753   7.488  15.076  0.00  0.00    +0.000 N 
ATOM     12  C   UNL     1      50.511   7.501  14.486  0.00  0.00    +0.000 A 
ATOM     13  O   UNL     1      49.590   6.828  14.932  0.00  0.00    +0.000 OA
ATOM     14  C   UNL     1      50.427   8.315  13.285  0.00  0.00    +0.000 A 
ATOM     15  H   UNL     1      51.842   6.928  15.913  0.00  0.00    +0.000 HD
ENDBRANCH   2   5
BRANCH   3  16
ATOM     16  C   UNL     1      46.216   6.600  13.088  0.00  0.00    +0.000 C 
BRANCH  16  17
ATOM     17  C   UNL     1      45.805   5.595  12.045  0.00  0.00    +0.000 A 
ATOM     18  C   UNL     1      45.404   4.309  12.428  0.00  0.00    +0.000 A 
ATOM     19  C   UNL     1      44.945   3.395  11.478  0.00  0.00    +0.000 A 
ATOM     20  C   UNL     1      44.904   3.740  10.121  0.00  0.00    +0.000 A 
ATOM     21  C   UNL     1      45.339   5.014   9.732  0.00  0.00    +0.000 A 
ATOM     22  C   UNL     1      45.796   5.930  10.684  0.00  0.00    +0.000 A 
BRANCH  20  23
ATOM     23  C   UNL     1      44.357   2.769   9.100  0.00  0.00    +0.000 C 
BRANCH  23  24
ATOM     24  C   UNL     1      45.415   1.819   8.605  0.00  0.00    +0.000 C 
ATOM     25  C   UNL     1      46.398   2.063   7.716  0.00  0.00    +0.000 C 
ATOM     26  C   UNL     1      46.615   3.364   6.980  0.00  0.00    +0.000 C 
ATOM     27  C   UNL     1      46.605   3.124   5.470  0.00  0.00    +0.000 C 
ATOM     28  C   UNL     1      47.615   2.053   5.055  0.00  0.00    +0.000 C 
ATOM     29  C   UNL     1      47.422   0.755   5.841  0.00  0.00    +0.000 C 
ATOM     30  C   UNL     1      47.412   1.000   7.351  0.00  0.00    +0.000 C 
ENDBRANCH  23  24
ENDBRANCH  20  23
ENDBRANCH  16  17
ENDBRANCH   3  16
TORSDOF 5
ENDMDL
MODEL 6
REMARK VINA RESULT:    -7.480      2.907      4.540
REMARK INTER + INTRA:         -10.845
REMARK INTER:                  -9.750
REMARK INTRA:                  -1.096
REMARK UNBOUND:                -1.178
REMARK  Name = 
REMARK  5 active torsions:
REMARK  status: ('A' for Active; 'I' for Inactive)
REMARK    1  A    between atoms: C_2  and  C_19
REMARK    2  A    between atoms: N_3  and  C_4
REMARK    3  A    between atoms: C_4  and  C_5
REMARK    4  A    between atoms: C_8  and  C_9
REMARK    5  A    between atoms: C_9  and  C_10
REMARK                            x       y       z     vdW  Elec       q    Type
REMARK                         _______ _______ _______ _____ _____    ______ ____
ROOT
ATOM      1  O   UNL     1      49.377   6.531  14.044  0.00  0.00    +0.000 OA
ATOM      2  C   UNL     1      48.541   7.366  13.711  0.00  0.00    +0.000 C 
ATOM      3  N   UNL     1      47.202   7.085  13.639  0.00  0.00    +0.000 N 
ATOM      4  H   UNL     1      46.571   7.747  13.200  0.00  0.00    +0.000 HD
ENDROOT
BRANCH   2   5
ATOM      5  C   UNL     1      48.927   8.750  13.421  0.00  0.00    +0.000 A 
ATOM      6  C   UNL     1      48.400   9.788  14.174  0.00  0.00    +0.000 A 
ATOM      7  S   UNL     1      48.983  11.326  13.719  0.00  0.00    +0.000 S 
ATOM      8  C   UNL     1      49.983  10.651  12.519  0.00  0.00    +0.000 A 
ATOM      9  N   UNL     1      50.805  11.433  11.768  0.00  0.00    +0.000 NA
ATOM     10  C   UNL     1      51.535  10.783  10.925  0.00  0.00    +0.000 A 
ATOM     11  N   UNL     1      51.505   9.426  10.746  0.00  0.00    +0.000 N 
ATOM     12  C   UNL     1      50.628   8.606  11.416  0.00  0.00    +0.000 A 
ATOM     13  O   UNL     1      50.511   7.424  11.117  0.00  0.00    +0.000 OA
ATOM     14  C   UNL     1      49.839   9.279  12.434  0.00  0.00    +0.000 A 
ATOM     15  H   UNL     1      52.068   8.986  10.030  0.00  0.00    +0.000 HD
ENDBRANCH   2   5
BRANCH   3  16
ATOM     16  C   UNL     1      46.676   5.770  13.893  0.00  0.00    +0.000 C 
BRANCH  16  17
ATOM     17  C   UNL     1      46.027   5.170  12.675  0.00  0.00    +0.000 A 
ATOM     18  C   UNL     1      45.929   5.914  11.492  0.00  0.00    +0.000 A 
ATOM     19  C   UNL     1      45.402   5.341  10.334  0.00  0.00    +0.000 A 
ATOM     20  C   UNL     1      44.936   4.020  10.343  0.00  0.00    +0.000 A 
ATOM     21  C   UNL     1      45.000   3.286  11.535  0.00  0.00    +0.000 A 
ATOM     22  C   UNL     1      45.531   3.860  12.694  0.00  0.00    +0.000 A 
BRANCH  20  23
ATOM     23  C   UNL     1      44.414   3.384   9.075  0.00  0.00    +0.000 C 
BRANCH  23  24
ATOM     24  C   UNL     1      45.278   2.235   8.625  0.00  0.00    +0.000 C 
ATOM     25  C   UNL     1      46.343   2.273   7.801  0.00  0.00    +0.000 C 
ATOM     26  C   UNL     1      46.874   3.503   7.104  0.00  0.00    +0.000 C 
ATOM     27  C   UNL     1      46.908   3.280   5.592  0.00  0.00    +0.000 C 
ATOM     28  C   UNL     1      47.694   2.023   5.217  0.00  0.00    +0.000 C 
ATOM     29  C   UNL     1      47.185   0.790   5.966  0.00  0.00    +0.000 C 
ATOM     30  C   UNL     1      47.132   1.022   7.476  0.00  0.00    +0.000 C 
ENDBRANCH  23  24
ENDBRANCH  20  23
ENDBRANCH  16  17
ENDBRANCH   3  16
TORSDOF 5
ENDMDL
MODEL 7
REMARK VINA RESULT:    -7.418      2.669      3.918
REMARK INTER + INTRA:         -10.764
REMARK INTER:                  -9.792
REMARK INTRA:                  -0.972
REMARK UNBOUND:                -1.178
REMARK  Name = 
REMARK  5 active torsions:
REMARK  status: ('A' for Active; 'I' for Inactive)
REMARK    1  A    between atoms: C_2  and  C_19
REMARK    2  A    between atoms: N_3  and  C_4
REMARK    3  A    between atoms: C_4  and  C_5
REMARK    4  A    between atoms: C_8  and  C_9
REMARK    5  A    between atoms: C_9  and  C_10
REMARK                            x       y       z     vdW  Elec       q    Type
REMARK                         _______ _______ _______ _____ _____    ______ ____
ROOT
ATOM      1  O   UNL     1      48.852   6.118  15.477  0.00  0.00    +0.000 OA
ATOM      2  C   UNL     1      48.473   6.857  14.573  0.00  0.00    +0.000 C 
ATOM      3  N   UNL     1      47.330   6.623  13.855  0.00  0.00    +0.000 N 
ATOM      4  H   UNL     1      47.145   7.157  13.013  0.00  0.00    +0.000 HD
ENDROOT
BRANCH   2   5
ATOM      5  C   UNL     1      49.203   8.085  14.243  0.00  0.00    +0.000 A 
ATOM      6  C   UNL     1      50.045   8.114  13.140  0.00  0.00    +0.000 A 
ATOM      7  S   UNL     1      50.786   9.631  12.889  0.00  0.00    +0.000 S 
ATOM      8  C   UNL     1      49.983  10.305  14.229  0.00  0.00    +0.000 A 
ATOM      9  N   UNL     1      50.142  11.617  14.556  0.00  0.00    +0.000 NA
ATOM     10  C   UNL     1      49.442  12.002  15.570  0.00  0.00    +0.000 A 
ATOM     11  N   UNL     1      48.614  11.194  16.303  0.00  0.00    +0.000 N 
ATOM     12  C   UNL     1      48.492   9.845  16.067  0.00  0.00    +0.000 A 
ATOM     13  O   UNL     1      47.875   9.121  16.838  0.00  0.00    +0.000 OA
ATOM     14  C   UNL     1      49.199   9.377  14.887  0.00  0.00    +0.000 A 
ATOM     15  H   UNL     1      48.134  11.550  17.119  0.00  0.00    +0.000 HD
ENDBRANCH   2   5
BRANCH   3  16
ATOM     16  C   UNL     1      46.514   5.457  14.066  0.00  0.00    +0.000 C 
BRANCH  16  17
ATOM     17  C   UNL     1      45.922   4.935  12.784  0.00  0.00    +0.000 A 
ATOM     18  C   UNL     1      45.866   5.756  11.651  0.00  0.00    +0.000 A 
ATOM     19  C   UNL     1      45.393   5.259  10.435  0.00  0.00    +0.000 A 
ATOM     20  C   UNL     1      44.940   3.937  10.336  0.00  0.00    +0.000 A 
ATOM     21  C   UNL     1      44.962   3.125  11.478  0.00  0.00    +0.000 A 
ATOM     22  C   UNL     1      45.439   3.623  12.694  0.00  0.00    +0.000 A 
BRANCH  20  23
ATOM     23  C   UNL     1      44.478   3.384   9.008  0.00  0.00    +0.000 C 
BRANCH  23  24
ATOM     24  C   UNL     1      45.310   2.209   8.566  0.00  0.00    +0.000 C 
ATOM     25  C   UNL     1      46.367   2.210   7.730  0.00  0.00    +0.000 C 
ATOM     26  C   UNL     1      46.917   3.417   7.008  0.00  0.00    +0.000 C 
ATOM     27  C   UNL     1      46.929   3.169   5.500  0.00  0.00    +0.000 C 
ATOM     28  C   UNL     1      47.682   1.889   5.137  0.00  0.00    +0.000 C 
ATOM     29  C   UNL     1      47.154   0.680   5.910  0.00  0.00    +0.000 C 
ATOM     30  C   UNL     1      47.124   0.937   7.417  0.00  0.00    +0.000 C 
ENDBRANCH  23  24
ENDBRANCH  20  23
ENDBRANCH  16  17
ENDBRANCH   3  16
TORSDOF 5
ENDMDL
MODEL 8
REMARK VINA RESULT:    -7.378      4.394      9.184
REMARK INTER + INTRA:         -10.713
REMARK INTER:                  -9.691
REMARK INTRA:                  -1.022
REMARK UNBOUND:                -1.178
REMARK  Name = 
REMARK  5 active torsions:
REMARK  status: ('A' for Active; 'I' for Inactive)
REMARK    1  A    between atoms: C_2  and  C_19
REMARK    2  A    between atoms: N_3  and  C_4
REMARK    3  A    between atoms: C_4  and  C_5
REMARK    4  A    between atoms: C_8  and  C_9
REMARK    5  A    between atoms: C_9  and  C_10
REMARK                            x       y       z     vdW  Elec       q    Type
REMARK                         _______ _______ _______ _____ _____    ______ ____
ROOT
ATOM      1  O   UNL     1      47.338   3.085  14.042  0.00  0.00    +0.000 OA
ATOM      2  C   UNL     1      46.935   4.136  14.532  0.00  0.00    +0.000 C 
ATOM      3  N   UNL     1      46.951   4.379  15.880  0.00  0.00    +0.000 N 
ATOM      4  H   UNL     1      46.457   5.182  16.254  0.00  0.00    +0.000 HD
ENDROOT
BRANCH   2   5
ATOM      5  C   UNL     1      46.457   5.232  13.684  0.00  0.00    +0.000 A 
ATOM      6  C   UNL     1      47.269   6.333  13.453  0.00  0.00    +0.000 A 
ATOM      7  S   UNL     1      46.565   7.495  12.419  0.00  0.00    +0.000 S 
ATOM      8  C   UNL     1      45.164   6.549  12.223  0.00  0.00    +0.000 A 
ATOM      9  N   UNL     1      44.153   6.953  11.406  0.00  0.00    +0.000 NA
ATOM     10  C   UNL     1      43.172   6.119  11.321  0.00  0.00    +0.000 A 
ATOM     11  N   UNL     1      43.094   4.929  11.994  0.00  0.00    +0.000 N 
ATOM     12  C   UNL     1      44.047   4.523  12.898  0.00  0.00    +0.000 A 
ATOM     13  O   UNL     1      43.870   3.537  13.604  0.00  0.00    +0.000 OA
ATOM     14  C   UNL     1      45.211   5.389  12.972  0.00  0.00    +0.000 A 
ATOM     15  H   UNL     1      42.270   4.347  11.922  0.00  0.00    +0.000 HD
ENDBRANCH   2   5
BRANCH   3  16
ATOM     16  C   UNL     1      47.390   3.396  16.834  0.00  0.00    +0.000 C 
BRANCH  16  17
ATOM     17  C   UNL     1      48.871   3.474  17.094  0.00  0.00    +0.000 A 
ATOM     18  C   UNL     1      49.469   4.706  17.388  0.00  0.00    +0.000 A 
ATOM     19  C   UNL     1      50.826   4.780  17.709  0.00  0.00    +0.000 A 
ATOM     20  C   UNL     1      51.618   3.625  17.715  0.00  0.00    +0.000 A 
ATOM     21  C   UNL     1      51.029   2.396  17.385  0.00  0.00    +0.000 A 
ATOM     22  C   UNL     1      49.670   2.323  17.067  0.00  0.00    +0.000 A 
BRANCH  20  23
ATOM     23  C   UNL     1      53.074   3.697  18.114  0.00  0.00    +0.000 C 
BRANCH  23  24
ATOM     24  C   UNL     1      53.533   2.439  18.801  0.00  0.00    +0.000 C 
ATOM     25  C   UNL     1      54.416   1.525  18.354  0.00  0.00    +0.000 C 
ATOM     26  C   UNL     1      55.109   1.555  17.013  0.00  0.00    +0.000 C 
ATOM     27  C   UNL     1      54.827   0.264  16.244  0.00  0.00    +0.000 C 
ATOM     28  C   UNL     1      55.198  -0.978  17.056  0.00  0.00    +0.000 C 
ATOM     29  C   UNL     1      54.534  -0.976  18.433  0.00  0.00    +0.000 C 
ATOM     30  C   UNL     1      54.800   0.324  19.192  0.00  0.00    +0.000 C 
ENDBRANCH  23  24
ENDBRANCH  20  23
ENDBRANCH  16  17
ENDBRANCH   3  16
TORSDOF 5
ENDMDL
MODEL 9
REMARK VINA RESULT:    -7.369      2.551      3.384
REMARK INTER + INTRA:         -10.701
REMARK INTER:                  -9.622
REMARK INTRA:                  -1.079
REMARK UNBOUND:                -1.178
REMARK  Name = 
REMARK  5 active torsions:
REMARK  status: ('A' for Active; 'I' for Inactive)
REMARK    1  A    between atoms: C_2  and  C_19
REMARK    2  A    between atoms: N_3  and  C_4
REMARK    3  A    between atoms: C_4  and  C_5
REMARK    4  A    between atoms: C_8  and  C_9
REMARK    5  A    between atoms: C_9  and  C_10
REMARK                            x       y       z     vdW  Elec       q    Type
REMARK                         _______ _______ _______ _____ _____    ______ ____
ROOT
ATOM      1  O   UNL     1      49.142   4.402  16.756  0.00  0.00    +0.000 OA
ATOM      2  C   UNL     1      48.581   5.419  16.359  0.00  0.00    +0.000 C 
ATOM      3  N   UNL     1      47.509   5.389  15.507  0.00  0.00    +0.000 N 
ATOM      4  H   UNL     1      47.186   6.247  15.073  0.00  0.00    +0.000 HD
ENDROOT
BRANCH   2   5
ATOM      5  C   UNL     1      48.998   6.745  16.827  0.00  0.00    +0.000 A 
ATOM      6  C   UNL     1      49.885   7.498  16.071  0.00  0.00    +0.000 A 
ATOM      7  S   UNL     1      50.234   9.024  16.751  0.00  0.00    +0.000 S 
ATOM      8  C   UNL     1      49.187   8.740  18.061  0.00  0.00    +0.000 A 
ATOM      9  N   UNL     1      48.983   9.689  19.015  0.00  0.00    +0.000 NA
ATOM     10  C   UNL     1      48.133   9.352  19.927  0.00  0.00    +0.000 A 
ATOM     11  N   UNL     1      47.485   8.148  19.989  0.00  0.00    +0.000 N 
ATOM     12  C   UNL     1      47.728   7.127  19.101  0.00  0.00    +0.000 A 
ATOM     13  O   UNL     1      47.258   6.009  19.277  0.00  0.00    +0.000 OA
ATOM     14  C   UNL     1      48.617   7.482  18.008  0.00  0.00    +0.000 A 
ATOM     15  H   UNL     1      46.871   7.930  20.762  0.00  0.00    +0.000 HD
ENDBRANCH   2   5
BRANCH   3  16
ATOM     16  C   UNL     1      46.991   4.162  14.964  0.00  0.00    +0.000 C 
BRANCH  16  17
ATOM     17  C   UNL     1      46.429   4.342  13.580  0.00  0.00    +0.000 A 
ATOM     18  C   UNL     1      45.824   3.264  12.921  0.00  0.00    +0.000 A 
ATOM     19  C   UNL     1      45.228   3.438  11.670  0.00  0.00    +0.000 A 
ATOM     20  C   UNL     1      45.250   4.690  11.041  0.00  0.00    +0.000 A 
ATOM     21  C   UNL     1      45.886   5.761  11.683  0.00  0.00    +0.000 A 
ATOM     22  C   UNL     1      46.480   5.586  12.936  0.00  0.00    +0.000 A 
BRANCH  20  23
ATOM     23  C   UNL     1      44.559   4.890   9.712  0.00  0.00    +0.000 C 
BRANCH  23  24
ATOM     24  C   UNL     1      45.496   4.676   8.553  0.00  0.00    +0.000 C 
ATOM     25  C   UNL     1      45.698   3.545   7.849  0.00  0.00    +0.000 C 
ATOM     26  C   UNL     1      45.043   2.212   8.119  0.00  0.00    +0.000 C 
ATOM     27  C   UNL     1      46.106   1.136   8.343  0.00  0.00    +0.000 C 
ATOM     28  C   UNL     1      47.099   1.064   7.183  0.00  0.00    +0.000 C 
ATOM     29  C   UNL     1      47.721   2.428   6.882  0.00  0.00    +0.000 C 
ATOM     30  C   UNL     1      46.657   3.507   6.678  0.00  0.00    +0.000 C 
ENDBRANCH  23  24
ENDBRANCH  20  23
ENDBRANCH  16  17
ENDBRANCH   3  16
TORSDOF 5
ENDMDL
