MODEL 1
REMARK VINA RESULT:    -8.390      0.000      0.000
REMARK INTER + INTRA:         -12.138
REMARK INTER:                 -11.333
REMARK INTRA:                  -0.804
REMARK UNBOUND:                -0.804
REMARK  Name = 
REMARK  6 active torsions:
REMARK  status: ('A' for Active; 'I' for Inactive)
REMARK    1  A    between atoms: C_2  and  C_20
REMARK    2  A    between atoms: N_3  and  C_4
REMARK    3  A    between atoms: C_4  and  C_5
REMARK    4  A    between atoms: C_8  and  C_9
REMARK    5  A    between atoms: C_9  and  C_10
REMARK    6  A    between atoms: C_10  and  N_11
REMARK                            x       y       z     vdW  Elec       q    Type
REMARK                         _______ _______ _______ _____ _____    ______ ____
ROOT
ATOM      1  C   UNL     1      46.454   7.380  12.396  0.00  0.00    +0.000 A 
ATOM      2  C   UNL     1      46.494   8.468  13.280  0.00  0.00    +0.000 A 
ATOM      3  C   UNL     1      47.619   8.693  14.082  0.00  0.00    +0.000 A 
ATOM      4  C   UNL     1      48.732   7.844  14.020  0.00  0.00    +0.000 A 
ATOM      5  C   UNL     1      48.696   6.774  13.117  0.00  0.00    +0.000 A 
ATOM      6  C   UNL     1      47.573   6.548  12.315  0.00  0.00    +0.000 A 
ENDROOT
BRANCH   1   7
ATOM      7  C   UNL     1      45.253   7.141  11.520  0.00  0.00    +0.000 C 
BRANCH   7  10
ATOM      8  O   UNL     1      42.841   5.763  10.884  0.00  0.00    +0.000 OA
ATOM      9  C   UNL     1      43.923   5.188  10.805  0.00  0.00    +0.000 C 
ATOM     10  N   UNL     1      45.113   5.741  11.225  0.00  0.00    +0.000 N 
ATOM     11  H   UNL     1      45.939   5.189  11.003  0.00  0.00    +0.000 HD
BRANCH   9  12
ATOM     12  C   UNL     1      44.119   3.891  10.137  0.00  0.00    +0.000 A 
ATOM     13  N   UNL     1      43.603   2.757  10.668  0.00  0.00    +0.000 NA
ATOM     14  N   UNL     1      44.206   1.779   9.975  0.00  0.00    +0.000 N 
ATOM     15  C   UNL     1      45.121   2.221   9.061  0.00  0.00    +0.000 A 
ATOM     16  C   UNL     1      46.073   1.542   8.297  0.00  0.00    +0.000 A 
ATOM     17  C   UNL     1      46.824   2.303   7.397  0.00  0.00    +0.000 A 
ATOM     18  C   UNL     1      46.591   3.670   7.239  0.00  0.00    +0.000 A 
ATOM     19  C   UNL     1      45.666   4.339   8.053  0.00  0.00    +0.000 A 
ATOM     20  C   UNL     1      44.952   3.602   9.017  0.00  0.00    +0.000 A 
ATOM     21  H   UNL     1      43.982   0.818  10.205  0.00  0.00    +0.000 HD
ENDBRANCH   9  12
ENDBRANCH   7  10
ENDBRANCH   1   7
BRANCH   4  22
ATOM     22  C   UNL     1      49.972   8.018  14.886  0.00  0.00    +0.000 C 
BRANCH  22  23
ATOM     23  C   UNL     1      50.191   6.922  15.934  0.00  0.00    +0.000 C 
BRANCH  23  24
ATOM     24  N   UNL     1      48.989   6.664  16.714  0.00  0.00    +0.000 N 
ATOM     25  C   UNL     1      48.801   5.305  16.958  0.00  0.00    +0.000 A 
ATOM     26  N   UNL     1      49.865   4.490  17.062  0.00  0.00    +0.000 NA
ATOM     27  C   UNL     1      49.630   3.184  17.265  0.00  0.00    +0.000 A 
ATOM     28  C   UNL     1      48.370   2.658  17.382  0.00  0.00    +0.000 A 
ATOM     29  C   UNL     1      47.346   3.565  17.258  0.00  0.00    +0.000 A 
ATOM     30  N   UNL     1      47.533   4.882  17.039  0.00  0.00    +0.000 NA
ATOM     31  H   UNL     1      48.112   6.995  16.316  0.00  0.00    +0.000 HD
ENDBRANCH  23  24
ENDBRANCH  22  23
ENDBRANCH   4  22
TORSDOF 6
ENDMDL
MODEL 2
REMARK VINA RESULT:    -7.982      1.561      2.191
REMARK INTER + INTRA:         -11.586
REMARK INTER:                 -11.084
REMARK INTRA:                  -0.502
REMARK UNBOUND:                -0.804
REMARK  Name = 
REMARK  6 active torsions:
REMARK  status: ('A' for Active; 'I' for Inactive)
REMARK    1  A    between atoms: C_2  and  C_20
REMARK    2  A    between atoms: N_3  and  C_4
REMARK    3  A    between atoms: C_4  and  C_5
REMARK    4  A    between atoms: C_8  and  C_9
REMARK    5  A    between atoms: C_9  and  C_10
REMARK    6  A    between atoms: C_10  and  N_11
REMARK                            x       y       z     vdW  Elec       q    Type
REMARK                         _______ _______ _______ _____ _____    ______ ____
ROOT
ATOM      1  C   UNL     1      45.500   6.345  12.194  0.00  0.00    +0.000 A 
ATOM      2  C   UNL     1      45.631   5.192  12.982  0.00  0.00    +0.000 A 
ATOM      3  C   UNL     1      46.668   5.083  13.917  0.00  0.00    +0.000 A 
ATOM      4  C   UNL     1      47.594   6.119  14.093  0.00  0.00    +0.000 A 
ATOM      5  C   UNL     1      47.443   7.277  13.322  0.00  0.00    +0.000 A 
ATOM      6  C   UNL     1      46.409   7.389  12.387  0.00  0.00    +0.000 A 
ENDROOT
BRANCH   1   7
ATOM      7  C   UNL     1      44.380   6.475  11.197  0.00  0.00    +0.000 C 
BRANCH   7  10
ATOM      8  O   UNL     1      46.125   5.816   9.043  0.00  0.00    +0.000 OA
ATOM      9  C   UNL     1      45.277   5.014   9.420  0.00  0.00    +0.000 C 
ATOM     10  N   UNL     1      44.312   5.309  10.358  0.00  0.00    +0.000 N 
ATOM     11  H   UNL     1      43.742   4.516  10.646  0.00  0.00    +0.000 HD
BRANCH   9  12
ATOM     12  C   UNL     1      45.251   3.596   9.024  0.00  0.00    +0.000 A 
ATOM     13  N   UNL     1      44.636   2.675   9.803  0.00  0.00    +0.000 NA
ATOM     14  N   UNL     1      45.052   1.504   9.298  0.00  0.00    +0.000 N 
ATOM     15  C   UNL     1      45.942   1.622   8.267  0.00  0.00    +0.000 A 
ATOM     16  C   UNL     1      46.735   0.677   7.613  0.00  0.00    +0.000 A 
ATOM     17  C   UNL     1      47.505   1.131   6.538  0.00  0.00    +0.000 A 
ATOM     18  C   UNL     1      47.439   2.458   6.113  0.00  0.00    +0.000 A 
ATOM     19  C   UNL     1      46.675   3.400   6.817  0.00  0.00    +0.000 A 
ATOM     20  C   UNL     1      45.950   2.976   7.947  0.00  0.00    +0.000 A 
ATOM     21  H   UNL     1      44.724   0.649   9.732  0.00  0.00    +0.000 HD
ENDBRANCH   9  12
ENDBRANCH   7  10
ENDBRANCH   1   7
BRANCH   4  22
ATOM     22  C   UNL     1      48.759   6.048  15.071  0.00  0.00    +0.000 C 
BRANCH  22  23
ATOM     23  C   UNL     1      48.365   5.853  16.538  0.00  0.00    +0.000 C 
BRANCH  23  24
ATOM     24  N   UNL     1      48.147   4.450  16.863  0.00  0.00    +0.000 N 
ATOM     25  C   UNL     1      49.337   3.785  17.153  0.00  0.00    +0.000 A 
ATOM     26  N   UNL     1      50.362   4.458  17.704  0.00  0.00    +0.000 NA
ATOM     27  C   UNL     1      51.498   3.780  17.936  0.00  0.00    +0.000 A 
ATOM     28  C   UNL     1      51.648   2.448  17.648  0.00  0.00    +0.000 A 
ATOM     29  C   UNL     1      50.549   1.847  17.083  0.00  0.00    +0.000 A 
ATOM     30  N   UNL     1      49.394   2.490  16.820  0.00  0.00    +0.000 NA
ATOM     31  H   UNL     1      47.685   3.888  16.151  0.00  0.00    +0.000 HD
ENDBRANCH  23  24
ENDBRANCH  22  23
ENDBRANCH   4  22
TORSDOF 6
ENDMDL
MODEL 3
REMARK VINA RESULT:    -7.966      2.080      8.180
REMARK INTER + INTRA:         -11.564
REMARK INTER:                 -10.380
REMARK INTRA:                  -1.184
REMARK UNBOUND:                -0.804
REMARK  Name = 
REMARK  6 active torsions:
REMARK  status: ('A' for Active; 'I' for Inactive)
REMARK    1  A    between atoms: C_2  and  C_20
REMARK    2  A    between atoms: N_3  and  C_4
REMARK    3  A    between atoms: C_4  and  C_5
REMARK    4  A    between atoms: C_8  and  C_9
REMARK    5  A    between atoms: C_9  and  C_10
REMARK    6  A    between atoms: C_10  and  N_11
REMARK                            x       y       z     vdW  Elec       q    Type
REMARK                         _______ _______ _______ _____ _____    ______ ____
ROOT
ATOM      1  C   UNL     1      47.622   6.948  12.660  0.00  0.00    +0.000 A 
ATOM      2  C   UNL     1      47.354   5.624  13.038  0.00  0.00    +0.000 A 
ATOM      3  C   UNL     1      46.104   5.049  12.779  0.00  0.00    +0.000 A 
ATOM      4  C   UNL     1      45.094   5.775  12.135  0.00  0.00    +0.000 A 
ATOM      5  C   UNL     1      45.375   7.088  11.738  0.00  0.00    +0.000 A 
ATOM      6  C   UNL     1      46.624   7.665  11.995  0.00  0.00    +0.000 A 
ENDROOT
BRANCH   1   7
ATOM      7  C   UNL     1      48.968   7.568  12.923  0.00  0.00    +0.000 C 
BRANCH   7  10
ATOM      8  O   UNL     1      49.198   8.608  15.566  0.00  0.00    +0.000 OA
ATOM      9  C   UNL     1      49.558   7.461  15.318  0.00  0.00    +0.000 C 
ATOM     10  N   UNL     1      49.606   6.935  14.045  0.00  0.00    +0.000 N 
ATOM     11  H   UNL     1      49.826   5.942  14.004  0.00  0.00    +0.000 HD
BRANCH   9  12
ATOM     12  C   UNL     1      49.862   6.453  16.347  0.00  0.00    +0.000 A 
ATOM     13  N   UNL     1      51.093   6.387  16.906  0.00  0.00    +0.000 NA
ATOM     14  N   UNL     1      51.085   5.214  17.555  0.00  0.00    +0.000 N 
ATOM     15  C   UNL     1      49.932   4.496  17.402  0.00  0.00    +0.000 A 
ATOM     16  C   UNL     1      49.604   3.182  17.745  0.00  0.00    +0.000 A 
ATOM     17  C   UNL     1      48.291   2.771  17.497  0.00  0.00    +0.000 A 
ATOM     18  C   UNL     1      47.345   3.655  16.979  0.00  0.00    +0.000 A 
ATOM     19  C   UNL     1      47.710   4.953  16.594  0.00  0.00    +0.000 A 
ATOM     20  C   UNL     1      49.046   5.361  16.769  0.00  0.00    +0.000 A 
ATOM     21  H   UNL     1      51.921   4.935  18.055  0.00  0.00    +0.000 HD
ENDBRANCH   9  12
ENDBRANCH   7  10
ENDBRANCH   1   7
BRANCH   4  22
ATOM     22  C   UNL     1      43.706   5.217  11.852  0.00  0.00    +0.000 C 
BRANCH  22  23
ATOM     23  C   UNL     1      43.656   4.099  10.806  0.00  0.00    +0.000 C 
BRANCH  23  24
ATOM     24  N   UNL     1      43.943   4.592   9.466  0.00  0.00    +0.000 N 
ATOM     25  C   UNL     1      44.867   3.790   8.797  0.00  0.00    +0.000 A 
ATOM     26  N   UNL     1      44.927   2.475   9.064  0.00  0.00    +0.000 NA
ATOM     27  C   UNL     1      45.855   1.751   8.416  0.00  0.00    +0.000 A 
ATOM     28  C   UNL     1      46.720   2.290   7.499  0.00  0.00    +0.000 A 
ATOM     29  C   UNL     1      46.586   3.642   7.296  0.00  0.00    +0.000 A 
ATOM     30  N   UNL     1      45.680   4.410   7.933  0.00  0.00    +0.000 NA
ATOM     31  H   UNL     1      44.306   5.541   9.402  0.00  0.00    +0.000 HD
ENDBRANCH  23  24
ENDBRANCH  22  23
ENDBRANCH   4  22
TORSDOF 6
ENDMDL
MODEL 4
REMARK VINA RESULT:    -7.912      2.816      9.232
REMARK INTER + INTRA:         -11.492
REMARK INTER:                 -10.830
REMARK INTRA:                  -0.662
REMARK UNBOUND:                -0.804
REMARK  Name = 
REMARK  6 active torsions:
REMARK  status: ('A' for Active; 'I' for Inactive)
REMARK    1  A    between atoms: C_2  and  C_20
REMARK    2  A    between atoms: N_3  and  C_4
REMARK    3  A    between atoms: C_4  and  C_5
REMARK    4  A    between atoms: C_8  and  C_9
REMARK    5  A    between atoms: C_9  and  C_10
REMARK    6  A    between atoms: C_10  and  N_11
REMARK                            x       y       z     vdW  Elec       q    Type
REMARK                         _______ _______ _______ _____ _____    ______ ____
ROOT
ATOM      1  C   UNL     1      46.910   6.007  13.027  0.00  0.00    +0.000 A 
ATOM      2  C   UNL     1      46.111   4.911  13.382  0.00  0.00    +0.000 A 
ATOM      3  C   UNL     1      45.123   4.438  12.510  0.00  0.00    +0.000 A 
ATOM      4  C   UNL     1      44.911   5.041  11.264  0.00  0.00    +0.000 A 
ATOM      5  C   UNL     1      45.728   6.119  10.904  0.00  0.00    +0.000 A 
ATOM      6  C   UNL     1      46.716   6.593  11.773  0.00  0.00    +0.000 A 
ENDROOT
BRANCH   1   7
ATOM      7  C   UNL     1      47.984   6.512  13.953  0.00  0.00    +0.000 C 
BRANCH   7  10
ATOM      8  O   UNL     1      50.011   6.208  15.932  0.00  0.00    +0.000 OA
ATOM      9  C   UNL     1      48.841   5.953  16.200  0.00  0.00    +0.000 C 
ATOM     10  N   UNL     1      47.829   5.944  15.264  0.00  0.00    +0.000 N 
ATOM     11  H   UNL     1      46.896   5.816  15.650  0.00  0.00    +0.000 HD
BRANCH   9  12
ATOM     12  C   UNL     1      48.335   5.752  17.567  0.00  0.00    +0.000 A 
ATOM     13  N   UNL     1      47.329   4.878  17.808  0.00  0.00    +0.000 NA
ATOM     14  N   UNL     1      46.952   5.166  19.063  0.00  0.00    +0.000 N 
ATOM     15  C   UNL     1      47.628   6.211  19.626  0.00  0.00    +0.000 A 
ATOM     16  C   UNL     1      47.414   6.927  20.806  0.00  0.00    +0.000 A 
ATOM     17  C   UNL     1      48.345   7.920  21.123  0.00  0.00    +0.000 A 
ATOM     18  C   UNL     1      49.463   8.144  20.318  0.00  0.00    +0.000 A 
ATOM     19  C   UNL     1      49.629   7.449  19.112  0.00  0.00    +0.000 A 
ATOM     20  C   UNL     1      48.662   6.496  18.739  0.00  0.00    +0.000 A 
ATOM     21  H   UNL     1      46.190   4.635  19.470  0.00  0.00    +0.000 HD
ENDBRANCH   9  12
ENDBRANCH   7  10
ENDBRANCH   1   7
BRANCH   4  22
ATOM     22  C   UNL     1      43.834   4.592  10.285  0.00  0.00    +0.000 C 
BRANCH  22  23
ATOM     23  C   UNL     1      44.348   3.845   9.051  0.00  0.00    +0.000 C 
BRANCH  23  24
ATOM     24  N   UNL     1      45.027   2.607   9.405  0.00  0.00    +0.000 N 
ATOM     25  C   UNL     1      45.947   2.215   8.434  0.00  0.00    +0.000 A 
ATOM     26  N   UNL     1      46.573   3.143   7.692  0.00  0.00    +0.000 NA
ATOM     27  C   UNL     1      47.427   2.713   6.748  0.00  0.00    +0.000 A 
ATOM     28  C   UNL     1      47.690   1.387   6.524  0.00  0.00    +0.000 A 
ATOM     29  C   UNL     1      47.000   0.512   7.328  0.00  0.00    +0.000 A 
ATOM     30  N   UNL     1      46.124   0.897   8.278  0.00  0.00    +0.000 NA
ATOM     31  H   UNL     1      44.433   1.795   9.565  0.00  0.00    +0.000 HD
ENDBRANCH  23  24
ENDBRANCH  22  23
ENDBRANCH   4  22
TORSDOF 6
ENDMDL
MODEL 5
REMARK VINA RESULT:    -7.616      3.802      5.117
REMARK INTER + INTRA:         -11.092
REMARK INTER:                 -10.313
REMARK INTRA:                  -0.780
REMARK UNBOUND:                -0.804
REMARK  Name = 
REMARK  6 active torsions:
REMARK  status: ('A' for Active; 'I' for Inactive)
REMARK    1  A    between atoms: C_2  and  C_20
REMARK    2  A    between atoms: N_3  and  C_4
REMARK    3  A    between atoms: C_4  and  C_5
REMARK    4  A    between atoms: C_8  and  C_9
REMARK    5  A    between atoms: C_9  and  C_10
REMARK    6  A    between atoms: C_10  and  N_11
REMARK                            x       y       z     vdW  Elec       q    Type
REMARK                         _______ _______ _______ _____ _____    ______ ____
ROOT
ATOM      1  C   UNL     1      46.515   7.435  12.321  0.00  0.00    +0.000 A 
ATOM      2  C   UNL     1      46.943   8.766  12.207  0.00  0.00    +0.000 A 
ATOM      3  C   UNL     1      48.308   9.077  12.204  0.00  0.00    +0.000 A 
ATOM      4  C   UNL     1      49.278   8.073  12.308  0.00  0.00    +0.000 A 
ATOM      5  C   UNL     1      48.846   6.744  12.396  0.00  0.00    +0.000 A 
ATOM      6  C   UNL     1      47.483   6.430  12.400  0.00  0.00    +0.000 A 
ENDROOT
BRANCH   1   7
ATOM      7  C   UNL     1      45.050   7.092  12.312  0.00  0.00    +0.000 C 
BRANCH   7  10
ATOM      8  O   UNL     1      42.640   5.933  11.327  0.00  0.00    +0.000 OA
ATOM      9  C   UNL     1      43.683   5.286  11.329  0.00  0.00    +0.000 C 
ATOM     10  N   UNL     1      44.852   5.726  11.912  0.00  0.00    +0.000 N 
ATOM     11  H   UNL     1      45.660   5.129  11.746  0.00  0.00    +0.000 HD
BRANCH   9  12
ATOM     12  C   UNL     1      43.868   4.019  10.603  0.00  0.00    +0.000 A 
ATOM     13  N   UNL     1      43.365   2.862  11.097  0.00  0.00    +0.000 NA
ATOM     14  N   UNL     1      43.956   1.917  10.351  0.00  0.00    +0.000 N 
ATOM     15  C   UNL     1      44.850   2.399   9.438  0.00  0.00    +0.000 A 
ATOM     16  C   UNL     1      45.787   1.755   8.626  0.00  0.00    +0.000 A 
ATOM     17  C   UNL     1      46.518   2.556   7.744  0.00  0.00    +0.000 A 
ATOM     18  C   UNL     1      46.279   3.927   7.648  0.00  0.00    +0.000 A 
ATOM     19  C   UNL     1      45.371   4.559   8.508  0.00  0.00    +0.000 A 
ATOM     20  C   UNL     1      44.678   3.779   9.455  0.00  0.00    +0.000 A 
ATOM     21  H   UNL     1      43.738   0.946  10.545  0.00  0.00    +0.000 HD
ENDBRANCH   9  12
ENDBRANCH   7  10
ENDBRANCH   1   7
BRANCH   4  22
ATOM     22  C   UNL     1      50.775   8.349  12.339  0.00  0.00    +0.000 C 
BRANCH  22  23
ATOM     23  C   UNL     1      51.478   8.276  10.980  0.00  0.00    +0.000 C 
BRANCH  23  24
ATOM     24  N   UNL     1      52.637   7.396  11.012  0.00  0.00    +0.000 N 
ATOM     25  C   UNL     1      52.978   6.928   9.744  0.00  0.00    +0.000 A 
ATOM     26  N   UNL     1      52.732   7.688   8.662  0.00  0.00    +0.000 NA
ATOM     27  C   UNL     1      53.050   7.180   7.460  0.00  0.00    +0.000 A 
ATOM     28  C   UNL     1      53.618   5.943   7.296  0.00  0.00    +0.000 A 
ATOM     29  C   UNL     1      53.828   5.239   8.457  0.00  0.00    +0.000 A 
ATOM     30  N   UNL     1      53.512   5.702   9.683  0.00  0.00    +0.000 NA
ATOM     31  H   UNL     1      52.560   6.567  11.598  0.00  0.00    +0.000 HD
ENDBRANCH  23  24
ENDBRANCH  22  23
ENDBRANCH   4  22
TORSDOF 6
ENDMDL
MODEL 6
REMARK VINA RESULT:    -7.600      1.729      2.050
REMARK INTER + INTRA:         -11.070
REMARK INTER:                 -10.419
REMARK INTRA:                  -0.651
REMARK UNBOUND:                -0.804
REMARK  Name = 
REMARK  6 active torsions:
REMARK  status: ('A' for Active; 'I' for Inactive)
REMARK    1  A    between atoms: C_2  and  C_20
REMARK    2  A    between atoms: N_3  and  C_4
REMARK    3  A    between atoms: C_4  and  C_5
REMARK    4  A    between atoms: C_8  and  C_9
REMARK    5  A    between atoms: C_9  and  C_10
REMARK    6  A    between atoms: C_10  and  N_11
REMARK                            x       y       z     vdW  Elec       q    Type
REMARK                         _______ _______ _______ _____ _____    ______ ____
ROOT
ATOM      1  C   UNL     1      46.321   7.208  12.390  0.00  0.00    +0.000 A 
ATOM      2  C   UNL     1      46.372   8.441  13.057  0.00  0.00    +0.000 A 
ATOM      3  C   UNL     1      47.314   8.665  14.069  0.00  0.00    +0.000 A 
ATOM      4  C   UNL     1      48.229   7.670  14.436  0.00  0.00    +0.000 A 
ATOM      5  C   UNL     1      48.189   6.450  13.751  0.00  0.00    +0.000 A 
ATOM      6  C   UNL     1      47.249   6.224  12.739  0.00  0.00    +0.000 A 
ENDROOT
BRANCH   1   7
ATOM      7  C   UNL     1      45.320   6.966  11.293  0.00  0.00    +0.000 C 
BRANCH   7  10
ATOM      8  O   UNL     1      42.967   5.483  10.672  0.00  0.00    +0.000 OA
ATOM      9  C   UNL     1      44.073   4.961  10.569  0.00  0.00    +0.000 C 
ATOM     10  N   UNL     1      45.242   5.565  10.979  0.00  0.00    +0.000 N 
ATOM     11  H   UNL     1      46.090   5.057  10.736  0.00  0.00    +0.000 HD
BRANCH   9  12
ATOM     12  C   UNL     1      44.321   3.685   9.879  0.00  0.00    +0.000 A 
ATOM     13  N   UNL     1      43.822   2.526  10.372  0.00  0.00    +0.000 NA
ATOM     14  N   UNL     1      44.468   1.580   9.675  0.00  0.00    +0.000 N 
ATOM     15  C   UNL     1      45.393   2.066   8.795  0.00  0.00    +0.000 A 
ATOM     16  C   UNL     1      46.382   1.428   8.042  0.00  0.00    +0.000 A 
ATOM     17  C   UNL     1      47.135   2.228   7.177  0.00  0.00    +0.000 A 
ATOM     18  C   UNL     1      46.870   3.591   7.042  0.00  0.00    +0.000 A 
ATOM     19  C   UNL     1      45.908   4.218   7.846  0.00  0.00    +0.000 A 
ATOM     20  C   UNL     1      45.190   3.442   8.775  0.00  0.00    +0.000 A 
ATOM     21  H   UNL     1      44.263   0.609   9.879  0.00  0.00    +0.000 HD
ENDBRANCH   9  12
ENDBRANCH   7  10
ENDBRANCH   1   7
BRANCH   4  22
ATOM     22  C   UNL     1      49.256   7.842  15.547  0.00  0.00    +0.000 C 
BRANCH  22  23
ATOM     23  C   UNL     1      49.277   6.721  16.592  0.00  0.00    +0.000 C 
BRANCH  23  24
ATOM     24  N   UNL     1      47.993   6.575  17.262  0.00  0.00    +0.000 N 
ATOM     25  C   UNL     1      48.099   6.737  18.642  0.00  0.00    +0.000 A 
ATOM     26  N   UNL     1      49.041   7.549  19.151  0.00  0.00    +0.000 NA
ATOM     27  C   UNL     1      49.122   7.647  20.488  0.00  0.00    +0.000 A 
ATOM     28  C   UNL     1      48.288   6.972  21.341  0.00  0.00    +0.000 A 
ATOM     29  C   UNL     1      47.360   6.164  20.730  0.00  0.00    +0.000 A 
ATOM     30  N   UNL     1      47.251   6.023  19.394  0.00  0.00    +0.000 NA
ATOM     31  H   UNL     1      47.510   5.689  17.126  0.00  0.00    +0.000 HD
ENDBRANCH  23  24
ENDBRANCH  22  23
ENDBRANCH   4  22
TORSDOF 6
ENDMDL
MODEL 7
REMARK VINA RESULT:    -7.303      2.916      4.972
REMARK INTER + INTRA:         -10.668
REMARK INTER:                  -9.510
REMARK INTRA:                  -1.158
REMARK UNBOUND:                -0.804
REMARK  Name = 
REMARK  6 active torsions:
REMARK  status: ('A' for Active; 'I' for Inactive)
REMARK    1  A    between atoms: C_2  and  C_20
REMARK    2  A    between atoms: N_3  and  C_4
REMARK    3  A    between atoms: C_4  and  C_5
REMARK    4  A    between atoms: C_8  and  C_9
REMARK    5  A    between atoms: C_9  and  C_10
REMARK    6  A    between atoms: C_10  and  N_11
REMARK                            x       y       z     vdW  Elec       q    Type
REMARK                         _______ _______ _______ _____ _____    ______ ____
ROOT
ATOM      1  C   UNL     1      46.461   6.284  12.901  0.00  0.00    +0.000 A 
ATOM      2  C   UNL     1      46.639   7.044  11.736  0.00  0.00    +0.000 A 
ATOM      3  C   UNL     1      47.890   7.593  11.430  0.00  0.00    +0.000 A 
ATOM      4  C   UNL     1      48.992   7.396  12.272  0.00  0.00    +0.000 A 
ATOM      5  C   UNL     1      48.814   6.616  13.420  0.00  0.00    +0.000 A 
ATOM      6  C   UNL     1      47.565   6.065  13.729  0.00  0.00    +0.000 A 
ENDROOT
BRANCH   1   7
ATOM      7  C   UNL     1      45.122   5.678  13.230  0.00  0.00    +0.000 C 
BRANCH   7  10
ATOM      8  O   UNL     1      43.284   5.644  11.053  0.00  0.00    +0.000 OA
ATOM      9  C   UNL     1      44.025   4.687  11.253  0.00  0.00    +0.000 C 
ATOM     10  N   UNL     1      44.840   4.571  12.359  0.00  0.00    +0.000 N 
ATOM     11  H   UNL     1      45.472   3.773  12.338  0.00  0.00    +0.000 HD
BRANCH   9  12
ATOM     12  C   UNL     1      44.245   3.600  10.285  0.00  0.00    +0.000 A 
ATOM     13  N   UNL     1      43.745   2.362  10.513  0.00  0.00    +0.000 NA
ATOM     14  N   UNL     1      44.368   1.596   9.605  0.00  0.00    +0.000 N 
ATOM     15  C   UNL     1      45.279   2.265   8.837  0.00  0.00    +0.000 A 
ATOM     16  C   UNL     1      46.245   1.811   7.936  0.00  0.00    +0.000 A 
ATOM     17  C   UNL     1      46.988   2.783   7.259  0.00  0.00    +0.000 A 
ATOM     18  C   UNL     1      46.733   4.142   7.443  0.00  0.00    +0.000 A 
ATOM     19  C   UNL     1      45.795   4.575   8.391  0.00  0.00    +0.000 A 
ATOM     20  C   UNL     1      45.088   3.611   9.135  0.00  0.00    +0.000 A 
ATOM     21  H   UNL     1      44.157   0.605   9.586  0.00  0.00    +0.000 HD
ENDBRANCH   9  12
ENDBRANCH   7  10
ENDBRANCH   1   7
BRANCH   4  22
ATOM     22  C   UNL     1      50.368   7.992  12.009  0.00  0.00    +0.000 C 
BRANCH  22  23
ATOM     23  C   UNL     1      50.585   9.400  12.571  0.00  0.00    +0.000 C 
BRANCH  23  24
ATOM     24  N   UNL     1      50.634  10.406  11.519  0.00  0.00    +0.000 N 
ATOM     25  C   UNL     1      49.396  11.013  11.314  0.00  0.00    +0.000 A 
ATOM     26  N   UNL     1      48.538  11.145  12.339  0.00  0.00    +0.000 NA
ATOM     27  C   UNL     1      47.346  11.709  12.084  0.00  0.00    +0.000 A 
ATOM     28  C   UNL     1      46.980  12.160  10.842  0.00  0.00    +0.000 A 
ATOM     29  C   UNL     1      47.921  11.979   9.857  0.00  0.00    +0.000 A 
ATOM     30  N   UNL     1      49.123  11.406  10.063  0.00  0.00    +0.000 NA
ATOM     31  H   UNL     1      50.937  10.086  10.601  0.00  0.00    +0.000 HD
ENDBRANCH  23  24
ENDBRANCH  22  23
ENDBRANCH   4  22
TORSDOF 6
ENDMDL
MODEL 8
REMARK VINA RESULT:    -7.253      2.538      4.378
REMARK INTER + INTRA:         -10.601
REMARK INTER:                 -10.166
REMARK INTRA:                  -0.435
REMARK UNBOUND:                -0.804
REMARK  Name = 
REMARK  6 active torsions:
REMARK  status: ('A' for Active; 'I' for Inactive)
REMARK    1  A    between atoms: C_2  and  C_20
REMARK    2  A    between atoms: N_3  and  C_4
REMARK    3  A    between atoms: C_4  and  C_5
REMARK    4  A    between atoms: C_8  and  C_9
REMARK    5  A    between atoms: C_9  and  C_10
REMARK    6  A    between atoms: C_10  and  N_11
REMARK                            x       y       z     vdW  Elec       q    Type
REMARK                         _______ _______ _______ _____ _____    ______ ____
ROOT
ATOM      1  C   UNL     1      44.803   5.955  11.959  0.00  0.00    +0.000 A 
ATOM      2  C   UNL     1      45.130   4.962  12.894  0.00  0.00    +0.000 A 
ATOM      3  C   UNL     1      46.246   5.107  13.726  0.00  0.00    +0.000 A 
ATOM      4  C   UNL     1      47.061   6.244  13.650  0.00  0.00    +0.000 A 
ATOM      5  C   UNL     1      46.716   7.243  12.733  0.00  0.00    +0.000 A 
ATOM      6  C   UNL     1      45.600   7.101  11.900  0.00  0.00    +0.000 A 
ENDROOT
BRANCH   1   7
ATOM      7  C   UNL     1      43.596   5.812  11.071  0.00  0.00    +0.000 C 
BRANCH   7  10
ATOM      8  O   UNL     1      45.592   5.566   9.052  0.00  0.00    +0.000 OA
ATOM      9  C   UNL     1      44.839   4.628   9.297  0.00  0.00    +0.000 C 
ATOM     10  N   UNL     1      43.766   4.715  10.158  0.00  0.00    +0.000 N 
ATOM     11  H   UNL     1      43.295   3.831  10.341  0.00  0.00    +0.000 HD
BRANCH   9  12
ATOM     12  C   UNL     1      45.050   3.254   8.812  0.00  0.00    +0.000 A 
ATOM     13  N   UNL     1      44.529   2.199   9.482  0.00  0.00    +0.000 NA
ATOM     14  N   UNL     1      45.147   1.140   8.937  0.00  0.00    +0.000 N 
ATOM     15  C   UNL     1      46.076   1.460   7.988  0.00  0.00    +0.000 A 
ATOM     16  C   UNL     1      47.043   0.690   7.338  0.00  0.00    +0.000 A 
ATOM     17  C   UNL     1      47.807   1.328   6.356  0.00  0.00    +0.000 A 
ATOM     18  C   UNL     1      47.573   2.659   6.012  0.00  0.00    +0.000 A 
ATOM     19  C   UNL     1      46.632   3.427   6.713  0.00  0.00    +0.000 A 
ATOM     20  C   UNL     1      45.904   2.821   7.755  0.00  0.00    +0.000 A 
ATOM     21  H   UNL     1      44.922   0.218   9.290  0.00  0.00    +0.000 HD
ENDBRANCH   9  12
ENDBRANCH   7  10
ENDBRANCH   1   7
BRANCH   4  22
ATOM     22  C   UNL     1      48.304   6.446  14.505  0.00  0.00    +0.000 C 
BRANCH  22  23
ATOM     23  C   UNL     1      49.007   7.795  14.323  0.00  0.00    +0.000 C 
BRANCH  23  24
ATOM     24  N   UNL     1      50.348   7.643  13.778  0.00  0.00    +0.000 N 
ATOM     25  C   UNL     1      50.614   8.564  12.767  0.00  0.00    +0.000 A 
ATOM     26  N   UNL     1      50.025   9.771  12.791  0.00  0.00    +0.000 NA
ATOM     27  C   UNL     1      50.289  10.613  11.777  0.00  0.00    +0.000 A 
ATOM     28  C   UNL     1      51.132  10.298  10.743  0.00  0.00    +0.000 A 
ATOM     29  C   UNL     1      51.684   9.042  10.803  0.00  0.00    +0.000 A 
ATOM     30  N   UNL     1      51.437   8.160  11.792  0.00  0.00    +0.000 NA
ATOM     31  H   UNL     1      50.576   6.731  13.386  0.00  0.00    +0.000 HD
ENDBRANCH  23  24
ENDBRANCH  22  23
ENDBRANCH   4  22
TORSDOF 6
ENDMDL
MODEL 9
REMARK VINA RESULT:    -7.080      1.571      2.279
REMARK INTER + INTRA:         -10.368
REMARK INTER:                  -9.753
REMARK INTRA:                  -0.615
REMARK UNBOUND:                -0.804
REMARK  Name = 
REMARK  6 active torsions:
REMARK  status: ('A' for Active; 'I' for Inactive)
REMARK    1  A    between atoms: C_2  and  C_20
REMARK    2  A    between atoms: N_3  and  C_4
REMARK    3  A    between atoms: C_4  and  C_5
REMARK    4  A    between atoms: C_8  and  C_9
REMARK    5  A    between atoms: C_9  and  C_10
REMARK    6  A    between atoms: C_10  and  N_11
REMARK                            x       y       z     vdW  Elec       q    Type
REMARK                         _______ _______ _______ _____ _____    ______ ____
ROOT
ATOM      1  C   UNL     1      46.272   7.172  12.490  0.00  0.00    +0.000 A 
ATOM      2  C   UNL     1      46.427   8.433  13.083  0.00  0.00    +0.000 A 
ATOM      3  C   UNL     1      47.410   8.646  14.057  0.00  0.00    +0.000 A 
ATOM      4  C   UNL     1      48.264   7.611  14.459  0.00  0.00    +0.000 A 
ATOM      5  C   UNL     1      48.121   6.361  13.845  0.00  0.00    +0.000 A 
ATOM      6  C   UNL     1      47.140   6.146  12.872  0.00  0.00    +0.000 A 
ENDROOT
BRANCH   1   7
ATOM      7  C   UNL     1      45.226   6.940  11.432  0.00  0.00    +0.000 C 
BRANCH   7  10
ATOM      8  O   UNL     1      42.876   5.490  10.728  0.00  0.00    +0.000 OA
ATOM      9  C   UNL     1      43.979   4.957  10.651  0.00  0.00    +0.000 C 
ATOM     10  N   UNL     1      45.142   5.544  11.101  0.00  0.00    +0.000 N 
ATOM     11  H   UNL     1      45.991   5.028  10.878  0.00  0.00    +0.000 HD
BRANCH   9  12
ATOM     12  C   UNL     1      44.232   3.686   9.955  0.00  0.00    +0.000 A 
ATOM     13  N   UNL     1      43.747   2.521  10.448  0.00  0.00    +0.000 NA
ATOM     14  N   UNL     1      44.396   1.583   9.742  0.00  0.00    +0.000 N 
ATOM     15  C   UNL     1      45.311   2.079   8.857  0.00  0.00    +0.000 A 
ATOM     16  C   UNL     1      46.299   1.453   8.094  0.00  0.00    +0.000 A 
ATOM     17  C   UNL     1      47.039   2.262   7.227  0.00  0.00    +0.000 A 
ATOM     18  C   UNL     1      46.761   3.624   7.098  0.00  0.00    +0.000 A 
ATOM     19  C   UNL     1      45.800   4.240   7.911  0.00  0.00    +0.000 A 
ATOM     20  C   UNL     1      45.095   3.454   8.843  0.00  0.00    +0.000 A 
ATOM     21  H   UNL     1      44.201   0.609   9.944  0.00  0.00    +0.000 HD
ENDBRANCH   9  12
ENDBRANCH   7  10
ENDBRANCH   1   7
BRANCH   4  22
ATOM     22  C   UNL     1      49.331   7.772  15.533  0.00  0.00    +0.000 C 
BRANCH  22  23
ATOM     23  C   UNL     1      48.985   7.153  16.891  0.00  0.00    +0.000 C 
BRANCH  23  24
ATOM     24  N   UNL     1      49.644   5.870  17.091  0.00  0.00    +0.000 N 
ATOM     25  C   UNL     1      50.951   6.016  17.552  0.00  0.00    +0.000 A 
ATOM     26  N   UNL     1      51.277   7.072  18.316  0.00  0.00    +0.000 NA
ATOM     27  C   UNL     1      52.557   7.184  18.709  0.00  0.00    +0.000 A 
ATOM     28  C   UNL     1      53.525   6.272  18.378  0.00  0.00    +0.000 A 
ATOM     29  C   UNL     1      53.099   5.229  17.591  0.00  0.00    +0.000 A 
ATOM     30  N   UNL     1      51.829   5.083  17.162  0.00  0.00    +0.000 NA
ATOM     31  H   UNL     1      49.707   5.263  16.276  0.00  0.00    +0.000 HD
ENDBRANCH  23  24
ENDBRANCH  22  23
ENDBRANCH   4  22
TORSDOF 6
ENDMDL
