MODEL 1
REMARK VINA RESULT:    -7.401      0.000      0.000
REMARK INTER + INTRA:          -9.914
REMARK INTER:                  -9.132
REMARK INTRA:                  -0.782
REMARK UNBOUND:                -0.782
REMARK  Name = 
REMARK  4 active torsions:
REMARK  status: ('A' for Active; 'I' for Inactive)
REMARK    1  A    between atoms: C_2  and  C_4
REMARK    2  A    between atoms: C_9  and  N_10
REMARK    3  A    between atoms: N_10  and  C_11
REMARK    4  A    between atoms: C_11  and  C_12
REMARK                            x       y       z     vdW  Elec       q    Type
REMARK                         _______ _______ _______ _____ _____    ______ ____
ROOT
ATOM      1  N   UNL     1      44.115   5.663  11.535  0.00  0.00    +0.000 N 
ATOM      2  H   UNL     1      43.537   4.929  11.939  0.00  0.00    +0.000 HD
ENDROOT
BRANCH   1   8
ATOM      3  C   UNL     1      46.939   5.193  13.949  0.00  0.00    +0.000 A 
ATOM      4  C   UNL     1      47.869   6.105  13.449  0.00  0.00    +0.000 A 
ATOM      5  C   UNL     1      47.533   6.848  12.330  0.00  0.00    +0.000 A 
ATOM      6  F   UNL     1      48.425   7.711  11.821  0.00  0.00    +0.000 F 
ATOM      7  C   UNL     1      46.292   6.707  11.713  0.00  0.00    +0.000 A 
ATOM      8  C   UNL     1      45.324   5.826  12.223  0.00  0.00    +0.000 A 
ATOM      9  C   UNL     1      45.681   5.055  13.337  0.00  0.00    +0.000 A 
BRANCH   3  11
ATOM     10  N   UNL     1      47.591   3.116  14.962  0.00  0.00    +0.000 NA
ATOM     11  C   UNL     1      47.290   4.359  15.131  0.00  0.00    +0.000 C 
ATOM     12  N   UNL     1      47.279   4.907  16.382  0.00  0.00    +0.000 N 
ATOM     13  H   UNL     1      47.846   2.693  15.855  0.00  0.00    +0.000 HD
ATOM     14  H   UNL     1      47.215   4.245  17.146  0.00  0.00    +0.000 HD
ATOM     15  H   UNL     1      46.637   5.683  16.512  0.00  0.00    +0.000 HD
ENDBRANCH   3  11
ENDBRANCH   1   8
BRANCH   1  16
ATOM     16  C   UNL     1      44.140   5.584  10.077  0.00  0.00    +0.000 C 
BRANCH  16  17
ATOM     17  C   UNL     1      44.528   4.189   9.650  0.00  0.00    +0.000 A 
ATOM     18  C   UNL     1      43.955   3.066  10.237  0.00  0.00    +0.000 A 
ATOM     19  C   UNL     1      44.372   1.824   9.801  0.00  0.00    +0.000 A 
ATOM     20  N   UNL     1      45.308   1.634   8.846  0.00  0.00    +0.000 NA
ATOM     21  C   UNL     1      45.878   2.709   8.260  0.00  0.00    +0.000 A 
ATOM     22  N   UNL     1      46.891   2.505   7.344  0.00  0.00    +0.000 N 
ATOM     23  C   UNL     1      47.145   3.425   6.232  0.00  0.00    +0.000 C 
ATOM     24  C   UNL     1      46.904   2.738   4.869  0.00  0.00    +0.000 C 
ATOM     25  N   UNL     1      47.632   1.463   4.709  0.00  0.00    +0.000 NA
ATOM     26  C   UNL     1      47.241   0.565   5.819  0.00  0.00    +0.000 C 
ATOM     27  C   UNL     1      47.485   1.167   7.219  0.00  0.00    +0.000 C 
ATOM     28  C   UNL     1      45.488   3.994   8.647  0.00  0.00    +0.000 A 
ATOM     29  H   UNL     1      48.629   1.655   4.801  0.00  0.00    +0.000 HD
ENDBRANCH  16  17
ENDBRANCH   1  16
TORSDOF 4
ENDMDL
MODEL 2
REMARK VINA RESULT:    -7.351      2.721      7.542
REMARK INTER + INTRA:          -9.851
REMARK INTER:                  -9.277
REMARK INTRA:                  -0.574
REMARK UNBOUND:                -0.782
REMARK  Name = 
REMARK  4 active torsions:
REMARK  status: ('A' for Active; 'I' for Inactive)
REMARK    1  A    between atoms: C_2  and  C_4
REMARK    2  A    between atoms: C_9  and  N_10
REMARK    3  A    between atoms: N_10  and  C_11
REMARK    4  A    between atoms: C_11  and  C_12
REMARK                            x       y       z     vdW  Elec       q    Type
REMARK                         _______ _______ _______ _____ _____    ______ ____
ROOT
ATOM      1  N   UNL     1      45.324   5.733   9.760  0.00  0.00    +0.000 N 
ATOM      2  H   UNL     1      46.203   6.246   9.769  0.00  0.00    +0.000 HD
ENDROOT
BRANCH   1   8
ATOM      3  C   UNL     1      46.476   3.005   7.468  0.00  0.00    +0.000 A 
ATOM      4  C   UNL     1      45.709   1.933   7.926  0.00  0.00    +0.000 A 
ATOM      5  C   UNL     1      44.834   2.146   8.978  0.00  0.00    +0.000 A 
ATOM      6  F   UNL     1      44.107   1.121   9.447  0.00  0.00    +0.000 F 
ATOM      7  C   UNL     1      44.702   3.401   9.568  0.00  0.00    +0.000 A 
ATOM      8  C   UNL     1      45.434   4.504   9.096  0.00  0.00    +0.000 A 
ATOM      9  C   UNL     1      46.339   4.275   8.052  0.00  0.00    +0.000 A 
BRANCH   3  11
ATOM     10  N   UNL     1      47.212   3.313   5.204  0.00  0.00    +0.000 NA
ATOM     11  C   UNL     1      47.447   2.792   6.361  0.00  0.00    +0.000 C 
ATOM     12  N   UNL     1      48.569   2.040   6.568  0.00  0.00    +0.000 N 
ATOM     13  H   UNL     1      47.984   3.115   4.567  0.00  0.00    +0.000 HD
ATOM     14  H   UNL     1      49.010   1.678   5.731  0.00  0.00    +0.000 HD
ATOM     15  H   UNL     1      48.485   1.323   7.282  0.00  0.00    +0.000 HD
ENDBRANCH   3  11
ENDBRANCH   1   8
BRANCH   1  16
ATOM     16  C   UNL     1      44.668   5.772  11.064  0.00  0.00    +0.000 C 
BRANCH  16  17
ATOM     17  C   UNL     1      45.699   5.628  12.157  0.00  0.00    +0.000 A 
ATOM     18  C   UNL     1      45.784   4.471  12.926  0.00  0.00    +0.000 A 
ATOM     19  C   UNL     1      46.745   4.420  13.915  0.00  0.00    +0.000 A 
ATOM     20  N   UNL     1      47.602   5.428  14.188  0.00  0.00    +0.000 NA
ATOM     21  C   UNL     1      47.541   6.561  13.454  0.00  0.00    +0.000 A 
ATOM     22  N   UNL     1      48.366   7.614  13.793  0.00  0.00    +0.000 N 
ATOM     23  C   UNL     1      48.859   8.578  12.805  0.00  0.00    +0.000 C 
ATOM     24  C   UNL     1      50.397   8.505  12.669  0.00  0.00    +0.000 C 
ATOM     25  N   UNL     1      51.113   8.615  13.956  0.00  0.00    +0.000 NA
ATOM     26  C   UNL     1      50.620   7.546  14.853  0.00  0.00    +0.000 C 
ATOM     27  C   UNL     1      49.093   7.574  15.070  0.00  0.00    +0.000 C 
ATOM     28  C   UNL     1      46.599   6.669  12.427  0.00  0.00    +0.000 A 
ATOM     29  H   UNL     1      50.870   9.512  14.376  0.00  0.00    +0.000 HD
ENDBRANCH  16  17
ENDBRANCH   1  16
TORSDOF 4
ENDMDL
MODEL 3
REMARK VINA RESULT:    -7.198      3.887      6.241
REMARK INTER + INTRA:          -9.663
REMARK INTER:                  -8.972
REMARK INTRA:                  -0.691
REMARK UNBOUND:                -0.782
REMARK  Name = 
REMARK  4 active torsions:
REMARK  status: ('A' for Active; 'I' for Inactive)
REMARK    1  A    between atoms: C_2  and  C_4
REMARK    2  A    between atoms: C_9  and  N_10
REMARK    3  A    between atoms: N_10  and  C_11
REMARK    4  A    between atoms: C_11  and  C_12
REMARK                            x       y       z     vdW  Elec       q    Type
REMARK                         _______ _______ _______ _____ _____    ______ ____
ROOT
ATOM      1  N   UNL     1      49.183   7.412  15.454  0.00  0.00    +0.000 N 
ATOM      2  H   UNL     1      48.367   7.929  15.776  0.00  0.00    +0.000 HD
ENDROOT
BRANCH   1   8
ATOM      3  C   UNL     1      48.975   4.395  17.662  0.00  0.00    +0.000 A 
ATOM      4  C   UNL     1      50.325   4.171  17.933  0.00  0.00    +0.000 A 
ATOM      5  C   UNL     1      51.263   5.026  17.377  0.00  0.00    +0.000 A 
ATOM      6  F   UNL     1      52.566   4.811  17.606  0.00  0.00    +0.000 F 
ATOM      7  C   UNL     1      50.879   6.098  16.573  0.00  0.00    +0.000 A 
ATOM      8  C   UNL     1      49.524   6.366  16.322  0.00  0.00    +0.000 A 
ATOM      9  C   UNL     1      48.582   5.481  16.862  0.00  0.00    +0.000 A 
BRANCH   3  11
ATOM     10  N   UNL     1      46.860   3.263  17.565  0.00  0.00    +0.000 NA
ATOM     11  C   UNL     1      47.951   3.470  18.222  0.00  0.00    +0.000 C 
ATOM     12  N   UNL     1      48.164   2.860  19.425  0.00  0.00    +0.000 N 
ATOM     13  H   UNL     1      46.282   2.579  18.055  0.00  0.00    +0.000 HD
ATOM     14  H   UNL     1      47.334   2.510  19.889  0.00  0.00    +0.000 HD
ATOM     15  H   UNL     1      48.761   3.369  20.071  0.00  0.00    +0.000 HD
ENDBRANCH   3  11
ENDBRANCH   1   8
BRANCH   1  16
ATOM     16  C   UNL     1      49.115   7.143  14.020  0.00  0.00    +0.000 C 
BRANCH  16  17
ATOM     17  C   UNL     1      47.679   7.198  13.559  0.00  0.00    +0.000 A 
ATOM     18  C   UNL     1      47.045   8.409  13.304  0.00  0.00    +0.000 A 
ATOM     19  C   UNL     1      45.725   8.377  12.899  0.00  0.00    +0.000 A 
ATOM     20  N   UNL     1      45.011   7.242  12.743  0.00  0.00    +0.000 NA
ATOM     21  C   UNL     1      45.605   6.052  12.982  0.00  0.00    +0.000 A 
ATOM     22  N   UNL     1      44.844   4.903  12.899  0.00  0.00    +0.000 N 
ATOM     23  C   UNL     1      45.412   3.608  12.515  0.00  0.00    +0.000 C 
ATOM     24  C   UNL     1      44.813   3.105  11.182  0.00  0.00    +0.000 C 
ATOM     25  N   UNL     1      43.337   3.090  11.162  0.00  0.00    +0.000 NA
ATOM     26  C   UNL     1      42.855   4.457  11.465  0.00  0.00    +0.000 C 
ATOM     27  C   UNL     1      43.382   5.017  12.802  0.00  0.00    +0.000 C 
ATOM     28  C   UNL     1      46.944   6.017  13.382  0.00  0.00    +0.000 A 
ATOM     29  H   UNL     1      43.018   2.474  11.911  0.00  0.00    +0.000 HD
ENDBRANCH  16  17
ENDBRANCH   1  16
TORSDOF 4
ENDMDL
MODEL 4
REMARK VINA RESULT:    -7.076      4.019      6.311
REMARK INTER + INTRA:          -9.512
REMARK INTER:                  -8.775
REMARK INTRA:                  -0.736
REMARK UNBOUND:                -0.782
REMARK  Name = 
REMARK  4 active torsions:
REMARK  status: ('A' for Active; 'I' for Inactive)
REMARK    1  A    between atoms: C_2  and  C_4
REMARK    2  A    between atoms: C_9  and  N_10
REMARK    3  A    between atoms: N_10  and  C_11
REMARK    4  A    between atoms: C_11  and  C_12
REMARK                            x       y       z     vdW  Elec       q    Type
REMARK                         _______ _______ _______ _____ _____    ______ ____
ROOT
ATOM      1  N   UNL     1      49.347   7.591  15.405  0.00  0.00    +0.000 N 
ATOM      2  H   UNL     1      49.201   8.593  15.298  0.00  0.00    +0.000 HD
ENDROOT
BRANCH   1   8
ATOM      3  C   UNL     1      47.952   5.252  17.975  0.00  0.00    +0.000 A 
ATOM      4  C   UNL     1      47.652   6.141  19.008  0.00  0.00    +0.000 A 
ATOM      5  C   UNL     1      47.919   7.487  18.821  0.00  0.00    +0.000 A 
ATOM      6  F   UNL     1      47.660   8.353  19.812  0.00  0.00    +0.000 F 
ATOM      7  C   UNL     1      48.464   7.959  17.629  0.00  0.00    +0.000 A 
ATOM      8  C   UNL     1      48.736   7.088  16.561  0.00  0.00    +0.000 A 
ATOM      9  C   UNL     1      48.492   5.723  16.767  0.00  0.00    +0.000 A 
BRANCH   3  11
ATOM     10  N   UNL     1      46.772   3.219  17.485  0.00  0.00    +0.000 NA
ATOM     11  C   UNL     1      47.704   3.796  18.165  0.00  0.00    +0.000 C 
ATOM     12  N   UNL     1      48.450   3.086  19.062  0.00  0.00    +0.000 N 
ATOM     13  H   UNL     1      46.754   2.221  17.694  0.00  0.00    +0.000 HD
ATOM     14  H   UNL     1      48.043   2.211  19.371  0.00  0.00    +0.000 HD
ATOM     15  H   UNL     1      48.814   3.621  19.846  0.00  0.00    +0.000 HD
ENDBRANCH   3  11
ENDBRANCH   1   8
BRANCH   1  16
ATOM     16  C   UNL     1      49.155   6.883  14.142  0.00  0.00    +0.000 C 
BRANCH  16  17
ATOM     17  C   UNL     1      47.735   7.067  13.667  0.00  0.00    +0.000 A 
ATOM     18  C   UNL     1      47.214   8.331  13.410  0.00  0.00    +0.000 A 
ATOM     19  C   UNL     1      45.901   8.419  12.990  0.00  0.00    +0.000 A 
ATOM     20  N   UNL     1      45.091   7.352  12.822  0.00  0.00    +0.000 NA
ATOM     21  C   UNL     1      45.573   6.113  13.062  0.00  0.00    +0.000 A 
ATOM     22  N   UNL     1      44.714   5.037  12.965  0.00  0.00    +0.000 N 
ATOM     23  C   UNL     1      45.169   3.697  12.582  0.00  0.00    +0.000 C 
ATOM     24  C   UNL     1      44.542   3.255  11.240  0.00  0.00    +0.000 C 
ATOM     25  N   UNL     1      43.070   3.371  11.205  0.00  0.00    +0.000 NA
ATOM     26  C   UNL     1      42.709   4.774  11.508  0.00  0.00    +0.000 C 
ATOM     27  C   UNL     1      43.269   5.281  12.854  0.00  0.00    +0.000 C 
ATOM     28  C   UNL     1      46.899   5.957  13.476  0.00  0.00    +0.000 A 
ATOM     29  H   UNL     1      42.690   2.784  11.947  0.00  0.00    +0.000 HD
ENDBRANCH  16  17
ENDBRANCH   1  16
TORSDOF 4
ENDMDL
MODEL 5
REMARK VINA RESULT:    -6.762      2.953      8.125
REMARK INTER + INTRA:          -9.125
REMARK INTER:                  -8.407
REMARK INTRA:                  -0.718
REMARK UNBOUND:                -0.782
REMARK  Name = 
REMARK  4 active torsions:
REMARK  status: ('A' for Active; 'I' for Inactive)
REMARK    1  A    between atoms: C_2  and  C_4
REMARK    2  A    between atoms: C_9  and  N_10
REMARK    3  A    between atoms: N_10  and  C_11
REMARK    4  A    between atoms: C_11  and  C_12
REMARK                            x       y       z     vdW  Elec       q    Type
REMARK                         _______ _______ _______ _____ _____    ______ ____
ROOT
ATOM      1  N   UNL     1      45.970   7.349  11.780  0.00  0.00    +0.000 N 
ATOM      2  H   UNL     1      45.731   8.078  11.111  0.00  0.00    +0.000 HD
ENDROOT
BRANCH   1   8
ATOM      3  C   UNL     1      44.427   4.168  10.544  0.00  0.00    +0.000 A 
ATOM      4  C   UNL     1      43.538   3.885  11.581  0.00  0.00    +0.000 A 
ATOM      5  C   UNL     1      43.475   4.755  12.656  0.00  0.00    +0.000 A 
ATOM      6  F   UNL     1      42.645   4.485  13.674  0.00  0.00    +0.000 F 
ATOM      7  C   UNL     1      44.269   5.900  12.709  0.00  0.00    +0.000 A 
ATOM      8  C   UNL     1      45.140   6.227  11.657  0.00  0.00    +0.000 A 
ATOM      9  C   UNL     1      45.221   5.327  10.586  0.00  0.00    +0.000 A 
BRANCH   3  11
ATOM     10  N   UNL     1      44.857   2.000   9.608  0.00  0.00    +0.000 NA
ATOM     11  C   UNL     1      44.536   3.231   9.393  0.00  0.00    +0.000 C 
ATOM     12  N   UNL     1      44.310   3.677   8.122  0.00  0.00    +0.000 N 
ATOM     13  H   UNL     1      44.850   1.478   8.730  0.00  0.00    +0.000 HD
ATOM     14  H   UNL     1      44.694   3.101   7.383  0.00  0.00    +0.000 HD
ATOM     15  H   UNL     1      44.509   4.661   7.965  0.00  0.00    +0.000 HD
ENDBRANCH   3  11
ENDBRANCH   1   8
BRANCH   1  16
ATOM     16  C   UNL     1      47.414   7.151  11.865  0.00  0.00    +0.000 C 
BRANCH  16  17
ATOM     17  C   UNL     1      47.870   7.340  13.292  0.00  0.00    +0.000 A 
ATOM     18  C   UNL     1      48.184   8.599  13.791  0.00  0.00    +0.000 A 
ATOM     19  C   UNL     1      48.607   8.689  15.103  0.00  0.00    +0.000 A 
ATOM     20  N   UNL     1      48.741   7.628  15.927  0.00  0.00    +0.000 NA
ATOM     21  C   UNL     1      48.439   6.394  15.465  0.00  0.00    +0.000 A 
ATOM     22  N   UNL     1      48.657   5.307  16.289  0.00  0.00    +0.000 N 
ATOM     23  C   UNL     1      47.852   4.085  16.211  0.00  0.00    +0.000 C 
ATOM     24  C   UNL     1      47.050   3.857  17.512  0.00  0.00    +0.000 C 
ATOM     25  N   UNL     1      47.877   3.897  18.734  0.00  0.00    +0.000 NA
ATOM     26  C   UNL     1      48.576   5.202  18.778  0.00  0.00    +0.000 C 
ATOM     27  C   UNL     1      49.430   5.489  17.526  0.00  0.00    +0.000 C 
ATOM     28  C   UNL     1      47.992   6.238  14.150  0.00  0.00    +0.000 A 
ATOM     29  H   UNL     1      48.584   3.167  18.661  0.00  0.00    +0.000 HD
ENDBRANCH  16  17
ENDBRANCH   1  16
TORSDOF 4
ENDMDL
MODEL 6
REMARK VINA RESULT:    -6.654      2.336      6.942
REMARK INTER + INTRA:          -8.992
REMARK INTER:                  -8.591
REMARK INTRA:                  -0.401
REMARK UNBOUND:                -0.782
REMARK  Name = 
REMARK  4 active torsions:
REMARK  status: ('A' for Active; 'I' for Inactive)
REMARK    1  A    between atoms: C_2  and  C_4
REMARK    2  A    between atoms: C_9  and  N_10
REMARK    3  A    between atoms: N_10  and  C_11
REMARK    4  A    between atoms: C_11  and  C_12
REMARK                            x       y       z     vdW  Elec       q    Type
REMARK                         _______ _______ _______ _____ _____    ______ ____
ROOT
ATOM      1  N   UNL     1      44.083   2.789  10.475  0.00  0.00    +0.000 N 
ATOM      2  H   UNL     1      43.188   2.422  10.157  0.00  0.00    +0.000 HD
ENDROOT
BRANCH   1   8
ATOM      3  C   UNL     1      46.400   1.678   7.751  0.00  0.00    +0.000 A 
ATOM      4  C   UNL     1      46.873   2.907   7.288  0.00  0.00    +0.000 A 
ATOM      5  C   UNL     1      46.412   4.064   7.893  0.00  0.00    +0.000 A 
ATOM      6  F   UNL     1      46.836   5.255   7.445  0.00  0.00    +0.000 F 
ATOM      7  C   UNL     1      45.504   4.018   8.949  0.00  0.00    +0.000 A 
ATOM      8  C   UNL     1      45.046   2.791   9.458  0.00  0.00    +0.000 A 
ATOM      9  C   UNL     1      45.493   1.625   8.823  0.00  0.00    +0.000 A 
BRANCH   3  11
ATOM     10  N   UNL     1      46.826  -0.684   7.758  0.00  0.00    +0.000 NA
ATOM     11  C   UNL     1      46.856   0.422   7.095  0.00  0.00    +0.000 C 
ATOM     12  N   UNL     1      47.315   0.449   5.809  0.00  0.00    +0.000 N 
ATOM     13  H   UNL     1      47.128  -1.457   7.163  0.00  0.00    +0.000 HD
ATOM     14  H   UNL     1      47.887  -0.341   5.534  0.00  0.00    +0.000 HD
ATOM     15  H   UNL     1      47.731   1.327   5.513  0.00  0.00    +0.000 HD
ENDBRANCH   3  11
ENDBRANCH   1   8
BRANCH   1  16
ATOM     16  C   UNL     1      43.911   3.992  11.285  0.00  0.00    +0.000 C 
BRANCH  16  17
ATOM     17  C   UNL     1      45.137   4.208  12.139  0.00  0.00    +0.000 A 
ATOM     18  C   UNL     1      45.702   3.170  12.872  0.00  0.00    +0.000 A 
ATOM     19  C   UNL     1      46.815   3.451  13.641  0.00  0.00    +0.000 A 
ATOM     20  N   UNL     1      47.381   4.673  13.730  0.00  0.00    +0.000 NA
ATOM     21  C   UNL     1      46.851   5.698  13.026  0.00  0.00    +0.000 A 
ATOM     22  N   UNL     1      47.388   6.959  13.187  0.00  0.00    +0.000 N 
ATOM     23  C   UNL     1      47.376   7.964  12.120  0.00  0.00    +0.000 C 
ATOM     24  C   UNL     1      48.810   8.319  11.667  0.00  0.00    +0.000 C 
ATOM     25  N   UNL     1      49.706   8.702  12.776  0.00  0.00    +0.000 NA
ATOM     26  C   UNL     1      49.731   7.592  13.756  0.00  0.00    +0.000 C 
ATOM     27  C   UNL     1      48.335   7.201  14.285  0.00  0.00    +0.000 C 
ATOM     28  C   UNL     1      45.733   5.475  12.218  0.00  0.00    +0.000 A 
ATOM     29  H   UNL     1      49.303   9.517  13.239  0.00  0.00    +0.000 HD
ENDBRANCH  16  17
ENDBRANCH   1  16
TORSDOF 4
ENDMDL
MODEL 7
REMARK VINA RESULT:    -6.596      3.836      6.447
REMARK INTER + INTRA:          -8.920
REMARK INTER:                  -8.330
REMARK INTRA:                  -0.590
REMARK UNBOUND:                -0.782
REMARK  Name = 
REMARK  4 active torsions:
REMARK  status: ('A' for Active; 'I' for Inactive)
REMARK    1  A    between atoms: C_2  and  C_4
REMARK    2  A    between atoms: C_9  and  N_10
REMARK    3  A    between atoms: N_10  and  C_11
REMARK    4  A    between atoms: C_11  and  C_12
REMARK                            x       y       z     vdW  Elec       q    Type
REMARK                         _______ _______ _______ _____ _____    ______ ____
ROOT
ATOM      1  N   UNL     1      48.469   6.726  16.159  0.00  0.00    +0.000 N 
ATOM      2  H   UNL     1      47.530   7.051  16.379  0.00  0.00    +0.000 HD
ENDROOT
BRANCH   1   8
ATOM      3  C   UNL     1      50.185   3.745  17.639  0.00  0.00    +0.000 A 
ATOM      4  C   UNL     1      49.100   2.892  17.848  0.00  0.00    +0.000 A 
ATOM      5  C   UNL     1      47.836   3.329  17.491  0.00  0.00    +0.000 A 
ATOM      6  F   UNL     1      46.779   2.532  17.708  0.00  0.00    +0.000 F 
ATOM      7  C   UNL     1      47.636   4.586  16.924  0.00  0.00    +0.000 A 
ATOM      8  C   UNL     1      48.718   5.445  16.667  0.00  0.00    +0.000 A 
ATOM      9  C   UNL     1      49.991   5.009  17.057  0.00  0.00    +0.000 A 
BRANCH   3  11
ATOM     10  N   UNL     1      52.424   4.199  18.377  0.00  0.00    +0.000 NA
ATOM     11  C   UNL     1      51.549   3.310  18.045  0.00  0.00    +0.000 C 
ATOM     12  N   UNL     1      51.872   1.983  18.050  0.00  0.00    +0.000 N 
ATOM     13  H   UNL     1      53.290   3.745  18.668  0.00  0.00    +0.000 HD
ATOM     14  H   UNL     1      52.863   1.776  18.024  0.00  0.00    +0.000 HD
ATOM     15  H   UNL     1      51.358   1.408  17.388  0.00  0.00    +0.000 HD
ENDBRANCH   3  11
ENDBRANCH   1   8
BRANCH   1  16
ATOM     16  C   UNL     1      48.825   7.015  14.772  0.00  0.00    +0.000 C 
BRANCH  16  17
ATOM     17  C   UNL     1      47.572   7.183  13.949  0.00  0.00    +0.000 A 
ATOM     18  C   UNL     1      47.174   8.430  13.479  0.00  0.00    +0.000 A 
ATOM     19  C   UNL     1      46.008   8.504  12.744  0.00  0.00    +0.000 A 
ATOM     20  N   UNL     1      45.226   7.440  12.460  0.00  0.00    +0.000 NA
ATOM     21  C   UNL     1      45.591   6.217  12.904  0.00  0.00    +0.000 A 
ATOM     22  N   UNL     1      44.745   5.150  12.678  0.00  0.00    +0.000 N 
ATOM     23  C   UNL     1      45.232   3.777  12.519  0.00  0.00    +0.000 C 
ATOM     24  C   UNL     1      44.937   3.238  11.101  0.00  0.00    +0.000 C 
ATOM     25  N   UNL     1      43.524   3.374  10.696  0.00  0.00    +0.000 NA
ATOM     26  C   UNL     1      43.148   4.803  10.796  0.00  0.00    +0.000 C 
ATOM     27  C   UNL     1      43.380   5.407  12.196  0.00  0.00    +0.000 C 
ATOM     28  C   UNL     1      46.770   6.074  13.641  0.00  0.00    +0.000 A 
ATOM     29  H   UNL     1      42.953   2.855  11.363  0.00  0.00    +0.000 HD
ENDBRANCH  16  17
ENDBRANCH   1  16
TORSDOF 4
ENDMDL
MODEL 8
REMARK VINA RESULT:    -6.530      4.234      8.662
REMARK INTER + INTRA:          -8.838
REMARK INTER:                  -8.166
REMARK INTRA:                  -0.672
REMARK UNBOUND:                -0.782
REMARK  Name = 
REMARK  4 active torsions:
REMARK  status: ('A' for Active; 'I' for Inactive)
REMARK    1  A    between atoms: C_2  and  C_4
REMARK    2  A    between atoms: C_9  and  N_10
REMARK    3  A    between atoms: N_10  and  C_11
REMARK    4  A    between atoms: C_11  and  C_12
REMARK                            x       y       z     vdW  Elec       q    Type
REMARK                         _______ _______ _______ _____ _____    ______ ____
ROOT
ATOM      1  N   UNL     1      48.146   6.289  13.017  0.00  0.00    +0.000 N 
ATOM      2  H   UNL     1      48.320   5.550  13.696  0.00  0.00    +0.000 HD
ENDROOT
BRANCH   1   8
ATOM      3  C   UNL     1      44.787   5.010  11.964  0.00  0.00    +0.000 A 
ATOM      4  C   UNL     1      44.198   6.180  11.482  0.00  0.00    +0.000 A 
ATOM      5  C   UNL     1      44.931   7.355  11.519  0.00  0.00    +0.000 A 
ATOM      6  F   UNL     1      44.371   8.493  11.084  0.00  0.00    +0.000 F 
ATOM      7  C   UNL     1      46.233   7.381  12.013  0.00  0.00    +0.000 A 
ATOM      8  C   UNL     1      46.861   6.208  12.465  0.00  0.00    +0.000 A 
ATOM      9  C   UNL     1      46.105   5.029  12.453  0.00  0.00    +0.000 A 
BRANCH   3  11
ATOM     10  N   UNL     1      42.835   3.720  11.428  0.00  0.00    +0.000 NA
ATOM     11  C   UNL     1      44.009   3.742  11.963  0.00  0.00    +0.000 C 
ATOM     12  N   UNL     1      44.530   2.618  12.538  0.00  0.00    +0.000 N 
ATOM     13  H   UNL     1      42.449   2.777  11.469  0.00  0.00    +0.000 HD
ATOM     14  H   UNL     1      43.856   1.902  12.784  0.00  0.00    +0.000 HD
ATOM     15  H   UNL     1      45.187   2.782  13.296  0.00  0.00    +0.000 HD
ENDBRANCH   3  11
ENDBRANCH   1   8
BRANCH   1  16
ATOM     16  C   UNL     1      48.626   7.582  13.497  0.00  0.00    +0.000 C 
BRANCH  16  17
ATOM     17  C   UNL     1      48.662   7.584  15.006  0.00  0.00    +0.000 A 
ATOM     18  C   UNL     1      48.439   8.747  15.735  0.00  0.00    +0.000 A 
ATOM     19  C   UNL     1      48.502   8.670  17.112  0.00  0.00    +0.000 A 
ATOM     20  N   UNL     1      48.774   7.537  17.793  0.00  0.00    +0.000 NA
ATOM     21  C   UNL     1      48.992   6.392  17.108  0.00  0.00    +0.000 A 
ATOM     22  N   UNL     1      49.348   5.258  17.809  0.00  0.00    +0.000 N 
ATOM     23  C   UNL     1      49.011   3.908  17.348  0.00  0.00    +0.000 C 
ATOM     24  C   UNL     1      48.050   3.204  18.331  0.00  0.00    +0.000 C 
ATOM     25  N   UNL     1      48.520   3.209  19.730  0.00  0.00    +0.000 NA
ATOM     26  C   UNL     1      48.741   4.615  20.139  0.00  0.00    +0.000 C 
ATOM     27  C   UNL     1      49.722   5.378  19.225  0.00  0.00    +0.000 C 
ATOM     28  C   UNL     1      48.928   6.401  15.712  0.00  0.00    +0.000 A 
ATOM     29  H   UNL     1      49.420   2.730  19.762  0.00  0.00    +0.000 HD
ENDBRANCH  16  17
ENDBRANCH   1  16
TORSDOF 4
ENDMDL
MODEL 9
REMARK VINA RESULT:    -6.190      4.280      9.613
REMARK INTER + INTRA:          -8.420
REMARK INTER:                  -8.021
REMARK INTRA:                  -0.399
REMARK UNBOUND:                -0.782
REMARK  Name = 
REMARK  4 active torsions:
REMARK  status: ('A' for Active; 'I' for Inactive)
REMARK    1  A    between atoms: C_2  and  C_4
REMARK    2  A    between atoms: C_9  and  N_10
REMARK    3  A    between atoms: N_10  and  C_11
REMARK    4  A    between atoms: C_11  and  C_12
REMARK                            x       y       z     vdW  Elec       q    Type
REMARK                         _______ _______ _______ _____ _____    ______ ____
ROOT
ATOM      1  N   UNL     1      46.457   3.809  14.172  0.00  0.00    +0.000 N 
ATOM      2  H   UNL     1      46.043   3.107  14.782  0.00  0.00    +0.000 HD
ENDROOT
BRANCH   1   8
ATOM      3  C   UNL     1      44.417   5.822  11.761  0.00  0.00    +0.000 A 
ATOM      4  C   UNL     1      44.003   4.830  10.872  0.00  0.00    +0.000 A 
ATOM      5  C   UNL     1      44.410   3.526  11.098  0.00  0.00    +0.000 A 
ATOM      6  F   UNL     1      44.042   2.563  10.240  0.00  0.00    +0.000 F 
ATOM      7  C   UNL     1      45.206   3.194  12.193  0.00  0.00    +0.000 A 
ATOM      8  C   UNL     1      45.601   4.170  13.123  0.00  0.00    +0.000 A 
ATOM      9  C   UNL     1      45.211   5.492  12.873  0.00  0.00    +0.000 A 
BRANCH   3  11
ATOM     10  N   UNL     1      44.810   8.187  11.888  0.00  0.00    +0.000 NA
ATOM     11  C   UNL     1      44.019   7.236  11.521  0.00  0.00    +0.000 C 
ATOM     12  N   UNL     1      42.821   7.519  10.929  0.00  0.00    +0.000 N 
ATOM     13  H   UNL     1      44.418   9.091  11.619  0.00  0.00    +0.000 HD
ATOM     14  H   UNL     1      42.474   8.459  11.076  0.00  0.00    +0.000 HD
ATOM     15  H   UNL     1      42.089   6.829  11.076  0.00  0.00    +0.000 HD
ENDBRANCH   3  11
ENDBRANCH   1   8
BRANCH   1  16
ATOM     16  C   UNL     1      47.116   4.864  14.937  0.00  0.00    +0.000 C 
BRANCH  16  17
ATOM     17  C   UNL     1      47.696   4.286  16.205  0.00  0.00    +0.000 A 
ATOM     18  C   UNL     1      48.059   2.946  16.291  0.00  0.00    +0.000 A 
ATOM     19  C   UNL     1      48.570   2.489  17.489  0.00  0.00    +0.000 A 
ATOM     20  N   UNL     1      48.732   3.262  18.584  0.00  0.00    +0.000 NA
ATOM     21  C   UNL     1      48.389   4.568  18.525  0.00  0.00    +0.000 A 
ATOM     22  N   UNL     1      48.483   5.329  19.673  0.00  0.00    +0.000 N 
ATOM     23  C   UNL     1      48.758   6.769  19.644  0.00  0.00    +0.000 C 
ATOM     24  C   UNL     1      50.111   7.095  20.315  0.00  0.00    +0.000 C 
ATOM     25  N   UNL     1      50.252   6.533  21.673  0.00  0.00    +0.000 NA
ATOM     26  C   UNL     1      50.054   5.068  21.590  0.00  0.00    +0.000 C 
ATOM     27  C   UNL     1      48.705   4.659  20.962  0.00  0.00    +0.000 C 
ATOM     28  C   UNL     1      47.879   5.095  17.336  0.00  0.00    +0.000 A 
ATOM     29  H   UNL     1      49.505   6.916  22.252  0.00  0.00    +0.000 HD
ENDBRANCH  16  17
ENDBRANCH   1  16
TORSDOF 4
ENDMDL
