MODEL 1
REMARK VINA RESULT:    -7.536      0.000      0.000
REMARK INTER + INTRA:         -10.466
REMARK INTER:                  -9.738
REMARK INTRA:                  -0.728
REMARK UNBOUND:                -0.728
REMARK  Name = 
REMARK  5 active torsions:
REMARK  status: ('A' for Active; 'I' for Inactive)
REMARK    1  A    between atoms: C_2  and  C_4
REMARK    2  A    between atoms: C_8  and  O_9
REMARK    3  A    between atoms: O_9  and  C_10
REMARK    4  A    between atoms: C_10  and  C_11
REMARK    5  A    between atoms: C_15  and  C_16
REMARK                            x       y       z     vdW  Elec       q    Type
REMARK                         _______ _______ _______ _____ _____    ______ ____
ROOT
ATOM      1  C   UNL     1      43.744   4.322  10.853  0.00  0.00    +0.000 C 
ENDROOT
BRANCH   1   2
ATOM      2  C   UNL     1      44.896   4.447  11.812  0.00  0.00    +0.000 A 
ATOM      3  C   UNL     1      45.364   3.333  12.516  0.00  0.00    +0.000 A 
ATOM      4  C   UNL     1      46.450   3.455  13.377  0.00  0.00    +0.000 A 
ATOM      5  C   UNL     1      47.130   4.670  13.481  0.00  0.00    +0.000 A 
ATOM      6  C   UNL     1      46.765   5.750  12.677  0.00  0.00    +0.000 A 
ATOM      7  C   UNL     1      45.569   5.665  11.944  0.00  0.00    +0.000 A 
BRANCH   6   8
ATOM      8  C   UNL     1      47.724   6.875  12.295  0.00  0.00    +0.000 C 
ATOM      9  C   UNL     1      48.747   7.014  13.448  0.00  0.00    +0.000 C 
ATOM     10  C   UNL     1      48.143   7.754  14.643  0.00  0.00    +0.000 C 
ATOM     11  N   UNL     1      47.735   9.109  14.266  0.00  0.00    +0.000 NA
ATOM     12  C   UNL     1      46.746   9.097  13.191  0.00  0.00    +0.000 C 
ATOM     13  C   UNL     1      47.162   8.270  11.971  0.00  0.00    +0.000 C 
ATOM     14  H   UNL     1      48.555   9.622  13.953  0.00  0.00    +0.000 HD
ENDBRANCH   6   8
ENDBRANCH   1   2
BRANCH   1  15
ATOM     15  O   UNL     1      43.932   3.175  10.032  0.00  0.00    +0.000 OA
BRANCH  15  20
ATOM     16  C   UNL     1      46.430   1.988   7.691  0.00  0.00    +0.000 A 
ATOM     17  C   UNL     1      46.965   3.175   7.183  0.00  0.00    +0.000 A 
ATOM     18  C   UNL     1      46.466   4.405   7.619  0.00  0.00    +0.000 A 
ATOM     19  C   UNL     1      45.443   4.445   8.567  0.00  0.00    +0.000 A 
ATOM     20  C   UNL     1      44.917   3.263   9.093  0.00  0.00    +0.000 A 
ATOM     21  C   UNL     1      45.417   2.032   8.651  0.00  0.00    +0.000 A 
BRANCH  16  23
ATOM     22  N   UNL     1      47.603   0.712   5.981  0.00  0.00    +0.000 N 
ATOM     23  C   UNL     1      46.984   0.698   7.194  0.00  0.00    +0.000 C 
ATOM     24  O   UNL     1      46.923  -0.325   7.868  0.00  0.00    +0.000 OA
ATOM     25  H   UNL     1      48.064  -0.142   5.700  0.00  0.00    +0.000 HD
ATOM     26  H   UNL     1      47.869   1.568   5.515  0.00  0.00    +0.000 HD
ENDBRANCH  16  23
ENDBRANCH  15  20
ENDBRANCH   1  15
TORSDOF 5
ENDMDL
MODEL 2
REMARK VINA RESULT:    -7.008      4.268      7.710
REMARK INTER + INTRA:          -9.784
REMARK INTER:                  -9.823
REMARK INTRA:                   0.039
REMARK UNBOUND:                -0.728
REMARK  Name = 
REMARK  5 active torsions:
REMARK  status: ('A' for Active; 'I' for Inactive)
REMARK    1  A    between atoms: C_2  and  C_4
REMARK    2  A    between atoms: C_8  and  O_9
REMARK    3  A    between atoms: O_9  and  C_10
REMARK    4  A    between atoms: C_10  and  C_11
REMARK    5  A    between atoms: C_15  and  C_16
REMARK                            x       y       z     vdW  Elec       q    Type
REMARK                         _______ _______ _______ _____ _____    ______ ____
ROOT
ATOM      1  C   UNL     1      47.099   3.648  14.326  0.00  0.00    +0.000 C 
ENDROOT
BRANCH   1   2
ATOM      2  C   UNL     1      46.684   4.754  13.393  0.00  0.00    +0.000 A 
ATOM      3  C   UNL     1      47.557   5.806  13.101  0.00  0.00    +0.000 A 
ATOM      4  C   UNL     1      47.175   6.806  12.213  0.00  0.00    +0.000 A 
ATOM      5  C   UNL     1      45.951   6.722  11.546  0.00  0.00    +0.000 A 
ATOM      6  C   UNL     1      45.133   5.605  11.717  0.00  0.00    +0.000 A 
ATOM      7  C   UNL     1      45.451   4.693  12.738  0.00  0.00    +0.000 A 
BRANCH   6   8
ATOM      8  C   UNL     1      44.113   5.142  10.679  0.00  0.00    +0.000 C 
ATOM      9  C   UNL     1      43.006   4.374  11.439  0.00  0.00    +0.000 C 
ATOM     10  C   UNL     1      43.462   2.964  11.816  0.00  0.00    +0.000 C 
ATOM     11  N   UNL     1      43.782   2.183  10.618  0.00  0.00    +0.000 NA
ATOM     12  C   UNL     1      44.840   2.808   9.830  0.00  0.00    +0.000 C 
ATOM     13  C   UNL     1      44.579   4.279   9.494  0.00  0.00    +0.000 C 
ATOM     14  H   UNL     1      42.945   2.106  10.045  0.00  0.00    +0.000 HD
ENDBRANCH   6   8
ENDBRANCH   1   2
BRANCH   1  15
ATOM     15  O   UNL     1      46.540   3.877  15.614  0.00  0.00    +0.000 OA
BRANCH  15  20
ATOM     16  C   UNL     1      49.525   3.099  17.516  0.00  0.00    +0.000 A 
ATOM     17  C   UNL     1      49.377   3.891  18.658  0.00  0.00    +0.000 A 
ATOM     18  C   UNL     1      48.261   4.722  18.789  0.00  0.00    +0.000 A 
ATOM     19  C   UNL     1      47.293   4.750  17.785  0.00  0.00    +0.000 A 
ATOM     20  C   UNL     1      47.425   3.947  16.649  0.00  0.00    +0.000 A 
ATOM     21  C   UNL     1      48.546   3.119  16.520  0.00  0.00    +0.000 A 
BRANCH  16  23
ATOM     22  N   UNL     1      51.785   2.534  18.222  0.00  0.00    +0.000 N 
ATOM     23  C   UNL     1      50.732   2.234  17.411  0.00  0.00    +0.000 C 
ATOM     24  O   UNL     1      50.762   1.267  16.657  0.00  0.00    +0.000 OA
ATOM     25  H   UNL     1      52.557   1.883  18.217  0.00  0.00    +0.000 HD
ATOM     26  H   UNL     1      51.707   3.170  19.004  0.00  0.00    +0.000 HD
ENDBRANCH  16  23
ENDBRANCH  15  20
ENDBRANCH   1  15
TORSDOF 5
ENDMDL
MODEL 3
REMARK VINA RESULT:    -6.594      4.115      7.694
REMARK INTER + INTRA:          -9.249
REMARK INTER:                  -8.348
REMARK INTRA:                  -0.902
REMARK UNBOUND:                -0.728
REMARK  Name = 
REMARK  5 active torsions:
REMARK  status: ('A' for Active; 'I' for Inactive)
REMARK    1  A    between atoms: C_2  and  C_4
REMARK    2  A    between atoms: C_8  and  O_9
REMARK    3  A    between atoms: O_9  and  C_10
REMARK    4  A    between atoms: C_10  and  C_11
REMARK    5  A    between atoms: C_15  and  C_16
REMARK                            x       y       z     vdW  Elec       q    Type
REMARK                         _______ _______ _______ _____ _____    ______ ____
ROOT
ATOM      1  C   UNL     1      48.594   7.515  13.500  0.00  0.00    +0.000 C 
ENDROOT
BRANCH   1   2
ATOM      2  C   UNL     1      47.221   7.796  12.951  0.00  0.00    +0.000 A 
ATOM      3  C   UNL     1      46.828   9.103  12.644  0.00  0.00    +0.000 A 
ATOM      4  C   UNL     1      45.568   9.347  12.108  0.00  0.00    +0.000 A 
ATOM      5  C   UNL     1      44.720   8.282  11.797  0.00  0.00    +0.000 A 
ATOM      6  C   UNL     1      45.154   6.967  11.962  0.00  0.00    +0.000 A 
ATOM      7  C   UNL     1      46.353   6.740  12.659  0.00  0.00    +0.000 A 
BRANCH   6   8
ATOM      8  C   UNL     1      44.588   5.789  11.172  0.00  0.00    +0.000 C 
ATOM      9  C   UNL     1      43.104   5.636  11.581  0.00  0.00    +0.000 C 
ATOM     10  C   UNL     1      42.969   4.958  12.946  0.00  0.00    +0.000 C 
ATOM     11  N   UNL     1      43.549   3.613  12.919  0.00  0.00    +0.000 NA
ATOM     12  C   UNL     1      44.965   3.639  12.562  0.00  0.00    +0.000 C 
ATOM     13  C   UNL     1      45.268   4.413  11.275  0.00  0.00    +0.000 C 
ATOM     14  H   UNL     1      43.046   3.055  12.233  0.00  0.00    +0.000 HD
ENDBRANCH   6   8
ENDBRANCH   1   2
BRANCH   1  15
ATOM     15  O   UNL     1      48.614   6.222  14.091  0.00  0.00    +0.000 OA
BRANCH  15  20
ATOM     16  C   UNL     1      47.988   4.800  17.365  0.00  0.00    +0.000 A 
ATOM     17  C   UNL     1      48.307   5.855  18.225  0.00  0.00    +0.000 A 
ATOM     18  C   UNL     1      48.763   7.067  17.699  0.00  0.00    +0.000 A 
ATOM     19  C   UNL     1      48.886   7.225  16.318  0.00  0.00    +0.000 A 
ATOM     20  C   UNL     1      48.550   6.181  15.452  0.00  0.00    +0.000 A 
ATOM     21  C   UNL     1      48.098   4.967  15.983  0.00  0.00    +0.000 A 
BRANCH  16  23
ATOM     22  N   UNL     1      48.138   3.098  19.099  0.00  0.00    +0.000 N 
ATOM     23  C   UNL     1      47.513   3.522  17.965  0.00  0.00    +0.000 C 
ATOM     24  O   UNL     1      46.573   2.900  17.482  0.00  0.00    +0.000 OA
ATOM     25  H   UNL     1      47.743   2.287  19.554  0.00  0.00    +0.000 HD
ATOM     26  H   UNL     1      48.749   3.694  19.641  0.00  0.00    +0.000 HD
ENDBRANCH  16  23
ENDBRANCH  15  20
ENDBRANCH   1  15
TORSDOF 5
ENDMDL
MODEL 4
REMARK VINA RESULT:    -6.551      4.394      8.411
REMARK INTER + INTRA:          -9.193
REMARK INTER:                  -9.285
REMARK INTRA:                   0.092
REMARK UNBOUND:                -0.728
REMARK  Name = 
REMARK  5 active torsions:
REMARK  status: ('A' for Active; 'I' for Inactive)
REMARK    1  A    between atoms: C_2  and  C_4
REMARK    2  A    between atoms: C_8  and  O_9
REMARK    3  A    between atoms: O_9  and  C_10
REMARK    4  A    between atoms: C_10  and  C_11
REMARK    5  A    between atoms: C_15  and  C_16
REMARK                            x       y       z     vdW  Elec       q    Type
REMARK                         _______ _______ _______ _____ _____    ______ ____
ROOT
ATOM      1  C   UNL     1      47.048   3.630  14.280  0.00  0.00    +0.000 C 
ENDROOT
BRANCH   1   2
ATOM      2  C   UNL     1      46.637   4.730  13.340  0.00  0.00    +0.000 A 
ATOM      3  C   UNL     1      47.518   5.770  13.027  0.00  0.00    +0.000 A 
ATOM      4  C   UNL     1      47.138   6.765  12.132  0.00  0.00    +0.000 A 
ATOM      5  C   UNL     1      45.907   6.687  11.478  0.00  0.00    +0.000 A 
ATOM      6  C   UNL     1      45.078   5.580  11.669  0.00  0.00    +0.000 A 
ATOM      7  C   UNL     1      45.396   4.676  12.697  0.00  0.00    +0.000 A 
BRANCH   6   8
ATOM      8  C   UNL     1      44.044   5.117  10.646  0.00  0.00    +0.000 C 
ATOM      9  C   UNL     1      42.945   4.354  11.423  0.00  0.00    +0.000 C 
ATOM     10  C   UNL     1      43.404   2.943  11.796  0.00  0.00    +0.000 C 
ATOM     11  N   UNL     1      43.706   2.159  10.597  0.00  0.00    +0.000 NA
ATOM     12  C   UNL     1      44.754   2.780   9.792  0.00  0.00    +0.000 C 
ATOM     13  C   UNL     1      44.492   4.251   9.457  0.00  0.00    +0.000 C 
ATOM     14  H   UNL     1      42.861   2.083  10.035  0.00  0.00    +0.000 HD
ENDBRANCH   6   8
ENDBRANCH   1   2
BRANCH   1  15
ATOM     15  O   UNL     1      46.620   3.948  15.599  0.00  0.00    +0.000 OA
BRANCH  15  20
ATOM     16  C   UNL     1      48.313   4.634  18.728  0.00  0.00    +0.000 A 
ATOM     17  C   UNL     1      49.351   3.698  18.729  0.00  0.00    +0.000 A 
ATOM     18  C   UNL     1      49.478   2.801  17.666  0.00  0.00    +0.000 A 
ATOM     19  C   UNL     1      48.576   2.848  16.602  0.00  0.00    +0.000 A 
ATOM     20  C   UNL     1      47.548   3.794  16.586  0.00  0.00    +0.000 A 
ATOM     21  C   UNL     1      47.422   4.690  17.655  0.00  0.00    +0.000 A 
BRANCH  16  23
ATOM     22  N   UNL     1      46.970   5.751  20.425  0.00  0.00    +0.000 N 
ATOM     23  C   UNL     1      48.207   5.569  19.884  0.00  0.00    +0.000 C 
ATOM     24  O   UNL     1      49.197   6.118  20.355  0.00  0.00    +0.000 OA
ATOM     25  H   UNL     1      46.924   6.305  21.268  0.00  0.00    +0.000 HD
ATOM     26  H   UNL     1      46.187   5.149  20.212  0.00  0.00    +0.000 HD
ENDBRANCH  16  23
ENDBRANCH  15  20
ENDBRANCH   1  15
TORSDOF 5
ENDMDL
MODEL 5
REMARK VINA RESULT:    -6.449      3.941      5.587
REMARK INTER + INTRA:          -9.062
REMARK INTER:                  -8.435
REMARK INTRA:                  -0.627
REMARK UNBOUND:                -0.728
REMARK  Name = 
REMARK  5 active torsions:
REMARK  status: ('A' for Active; 'I' for Inactive)
REMARK    1  A    between atoms: C_2  and  C_4
REMARK    2  A    between atoms: C_8  and  O_9
REMARK    3  A    between atoms: O_9  and  C_10
REMARK    4  A    between atoms: C_10  and  C_11
REMARK    5  A    between atoms: C_15  and  C_16
REMARK                            x       y       z     vdW  Elec       q    Type
REMARK                         _______ _______ _______ _____ _____    ______ ____
ROOT
ATOM      1  C   UNL     1      47.355   3.502  14.785  0.00  0.00    +0.000 C 
ENDROOT
BRANCH   1   2
ATOM      2  C   UNL     1      47.748   3.579  16.235  0.00  0.00    +0.000 A 
ATOM      3  C   UNL     1      48.717   2.717  16.759  0.00  0.00    +0.000 A 
ATOM      4  C   UNL     1      49.095   2.818  18.094  0.00  0.00    +0.000 A 
ATOM      5  C   UNL     1      48.569   3.832  18.897  0.00  0.00    +0.000 A 
ATOM      6  C   UNL     1      47.712   4.788  18.351  0.00  0.00    +0.000 A 
ATOM      7  C   UNL     1      47.210   4.574  17.056  0.00  0.00    +0.000 A 
BRANCH   6   8
ATOM      8  C   UNL     1      47.536   6.189  18.930  0.00  0.00    +0.000 C 
ATOM      9  C   UNL     1      48.332   7.160  18.026  0.00  0.00    +0.000 C 
ATOM     10  C   UNL     1      49.833   7.085  18.311  0.00  0.00    +0.000 C 
ATOM     11  N   UNL     1      50.119   7.458  19.698  0.00  0.00    +0.000 NA
ATOM     12  C   UNL     1      49.432   6.587  20.647  0.00  0.00    +0.000 C 
ATOM     13  C   UNL     1      47.927   6.456  20.394  0.00  0.00    +0.000 C 
ATOM     14  H   UNL     1      49.813   8.416  19.848  0.00  0.00    +0.000 HD
ENDBRANCH   6   8
ENDBRANCH   1   2
BRANCH   1  15
ATOM     15  O   UNL     1      46.222   4.331  14.554  0.00  0.00    +0.000 OA
BRANCH  15  20
ATOM     16  C   UNL     1      45.066   4.602  11.131  0.00  0.00    +0.000 A 
ATOM     17  C   UNL     1      45.732   5.742  10.670  0.00  0.00    +0.000 A 
ATOM     18  C   UNL     1      46.574   6.450  11.531  0.00  0.00    +0.000 A 
ATOM     19  C   UNL     1      46.757   6.012  12.843  0.00  0.00    +0.000 A 
ATOM     20  C   UNL     1      46.110   4.863  13.304  0.00  0.00    +0.000 A 
ATOM     21  C   UNL     1      45.264   4.158  12.439  0.00  0.00    +0.000 A 
BRANCH  16  23
ATOM     22  N   UNL     1      43.949   4.460   8.972  0.00  0.00    +0.000 N 
ATOM     23  C   UNL     1      44.171   3.879  10.184  0.00  0.00    +0.000 C 
ATOM     24  O   UNL     1      43.689   2.788  10.468  0.00  0.00    +0.000 OA
ATOM     25  H   UNL     1      43.426   3.916   8.301  0.00  0.00    +0.000 HD
ATOM     26  H   UNL     1      44.505   5.230   8.626  0.00  0.00    +0.000 HD
ENDBRANCH  16  23
ENDBRANCH  15  20
ENDBRANCH   1  15
TORSDOF 5
ENDMDL
MODEL 6
REMARK VINA RESULT:    -6.388      3.346      5.345
REMARK INTER + INTRA:          -8.983
REMARK INTER:                  -8.179
REMARK INTRA:                  -0.804
REMARK UNBOUND:                -0.728
REMARK  Name = 
REMARK  5 active torsions:
REMARK  status: ('A' for Active; 'I' for Inactive)
REMARK    1  A    between atoms: C_2  and  C_4
REMARK    2  A    between atoms: C_8  and  O_9
REMARK    3  A    between atoms: O_9  and  C_10
REMARK    4  A    between atoms: C_10  and  C_11
REMARK    5  A    between atoms: C_15  and  C_16
REMARK                            x       y       z     vdW  Elec       q    Type
REMARK                         _______ _______ _______ _____ _____    ______ ____
ROOT
ATOM      1  C   UNL     1      47.545   6.519  12.825  0.00  0.00    +0.000 C 
ENDROOT
BRANCH   1   2
ATOM      2  C   UNL     1      48.089   6.675  14.219  0.00  0.00    +0.000 A 
ATOM      3  C   UNL     1      48.485   7.929  14.695  0.00  0.00    +0.000 A 
ATOM      4  C   UNL     1      48.957   8.067  15.996  0.00  0.00    +0.000 A 
ATOM      5  C   UNL     1      48.962   6.970  16.860  0.00  0.00    +0.000 A 
ATOM      6  C   UNL     1      48.435   5.746  16.446  0.00  0.00    +0.000 A 
ATOM      7  C   UNL     1      48.122   5.579  15.086  0.00  0.00    +0.000 A 
BRANCH   6   8
ATOM      8  C   UNL     1      47.883   4.699  17.409  0.00  0.00    +0.000 C 
ATOM      9  C   UNL     1      48.864   4.615  18.602  0.00  0.00    +0.000 C 
ATOM     10  C   UNL     1      50.117   3.816  18.239  0.00  0.00    +0.000 C 
ATOM     11  N   UNL     1      49.770   2.441  17.871  0.00  0.00    +0.000 NA
ATOM     12  C   UNL     1      48.857   2.399  16.732  0.00  0.00    +0.000 C 
ATOM     13  C   UNL     1      47.611   3.273  16.900  0.00  0.00    +0.000 C 
ATOM     14  H   UNL     1      49.324   1.993  18.668  0.00  0.00    +0.000 HD
ENDBRANCH   6   8
ENDBRANCH   1   2
BRANCH   1  15
ATOM     15  O   UNL     1      46.153   6.812  12.822  0.00  0.00    +0.000 OA
BRANCH  15  20
ATOM     16  C   UNL     1      44.864   4.658  10.209  0.00  0.00    +0.000 A 
ATOM     17  C   UNL     1      43.801   4.008  10.842  0.00  0.00    +0.000 A 
ATOM     18  C   UNL     1      43.518   4.282  12.182  0.00  0.00    +0.000 A 
ATOM     19  C   UNL     1      44.290   5.210  12.882  0.00  0.00    +0.000 A 
ATOM     20  C   UNL     1      45.342   5.877  12.250  0.00  0.00    +0.000 A 
ATOM     21  C   UNL     1      45.625   5.597  10.907  0.00  0.00    +0.000 A 
BRANCH  16  23
ATOM     22  N   UNL     1      44.295   3.454   8.171  0.00  0.00    +0.000 N 
ATOM     23  C   UNL     1      45.138   4.333   8.781  0.00  0.00    +0.000 C 
ATOM     24  O   UNL     1      46.058   4.865   8.170  0.00  0.00    +0.000 OA
ATOM     25  H   UNL     1      44.427   3.319   7.178  0.00  0.00    +0.000 HD
ATOM     26  H   UNL     1      43.408   3.181   8.571  0.00  0.00    +0.000 HD
ENDBRANCH  16  23
ENDBRANCH  15  20
ENDBRANCH   1  15
TORSDOF 5
ENDMDL
MODEL 7
REMARK VINA RESULT:    -6.337      2.497      7.102
REMARK INTER + INTRA:          -8.916
REMARK INTER:                  -8.076
REMARK INTRA:                  -0.840
REMARK UNBOUND:                -0.728
REMARK  Name = 
REMARK  5 active torsions:
REMARK  status: ('A' for Active; 'I' for Inactive)
REMARK    1  A    between atoms: C_2  and  C_4
REMARK    2  A    between atoms: C_8  and  O_9
REMARK    3  A    between atoms: O_9  and  C_10
REMARK    4  A    between atoms: C_10  and  C_11
REMARK    5  A    between atoms: C_15  and  C_16
REMARK                            x       y       z     vdW  Elec       q    Type
REMARK                         _______ _______ _______ _____ _____    ______ ____
ROOT
ATOM      1  C   UNL     1      45.357   6.725  12.349  0.00  0.00    +0.000 C 
ENDROOT
BRANCH   1   2
ATOM      2  C   UNL     1      44.897   5.338  11.991  0.00  0.00    +0.000 A 
ATOM      3  C   UNL     1      44.126   4.588  12.886  0.00  0.00    +0.000 A 
ATOM      4  C   UNL     1      43.680   3.319  12.531  0.00  0.00    +0.000 A 
ATOM      5  C   UNL     1      43.930   2.819  11.252  0.00  0.00    +0.000 A 
ATOM      6  C   UNL     1      44.572   3.613  10.300  0.00  0.00    +0.000 A 
ATOM      7  C   UNL     1      45.163   4.817  10.722  0.00  0.00    +0.000 A 
BRANCH   6   8
ATOM      8  C   UNL     1      44.404   3.423   8.795  0.00  0.00    +0.000 C 
ATOM      9  C   UNL     1      44.516   1.907   8.511  0.00  0.00    +0.000 C 
ATOM     10  C   UNL     1      45.972   1.439   8.542  0.00  0.00    +0.000 C 
ATOM     11  N   UNL     1      46.762   2.127   7.518  0.00  0.00    +0.000 NA
ATOM     12  C   UNL     1      46.745   3.576   7.703  0.00  0.00    +0.000 C 
ATOM     13  C   UNL     1      45.339   4.171   7.829  0.00  0.00    +0.000 C 
ATOM     14  H   UNL     1      46.375   1.907   6.604  0.00  0.00    +0.000 HD
ENDBRANCH   6   8
ENDBRANCH   1   2
BRANCH   1  15
ATOM     15  O   UNL     1      46.496   7.065  11.568  0.00  0.00    +0.000 OA
BRANCH  15  20
ATOM     16  C   UNL     1      48.761   7.014  14.397  0.00  0.00    +0.000 A 
ATOM     17  C   UNL     1      49.905   7.635  13.887  0.00  0.00    +0.000 A 
ATOM     18  C   UNL     1      49.928   8.064  12.557  0.00  0.00    +0.000 A 
ATOM     19  C   UNL     1      48.807   7.883  11.747  0.00  0.00    +0.000 A 
ATOM     20  C   UNL     1      47.654   7.281  12.256  0.00  0.00    +0.000 A 
ATOM     21  C   UNL     1      47.635   6.848  13.587  0.00  0.00    +0.000 A 
BRANCH  16  23
ATOM     22  N   UNL     1      48.473   7.490  16.767  0.00  0.00    +0.000 N 
ATOM     23  C   UNL     1      48.779   6.563  15.816  0.00  0.00    +0.000 C 
ATOM     24  O   UNL     1      49.017   5.398  16.114  0.00  0.00    +0.000 OA
ATOM     25  H   UNL     1      48.388   7.152  17.715  0.00  0.00    +0.000 HD
ATOM     26  H   UNL     1      48.054   8.383  16.544  0.00  0.00    +0.000 HD
ENDBRANCH  16  23
ENDBRANCH  15  20
ENDBRANCH   1  15
TORSDOF 5
ENDMDL
MODEL 8
REMARK VINA RESULT:    -6.325      4.350      6.003
REMARK INTER + INTRA:          -8.902
REMARK INTER:                  -8.216
REMARK INTRA:                  -0.686
REMARK UNBOUND:                -0.728
REMARK  Name = 
REMARK  5 active torsions:
REMARK  status: ('A' for Active; 'I' for Inactive)
REMARK    1  A    between atoms: C_2  and  C_4
REMARK    2  A    between atoms: C_8  and  O_9
REMARK    3  A    between atoms: O_9  and  C_10
REMARK    4  A    between atoms: C_10  and  C_11
REMARK    5  A    between atoms: C_15  and  C_16
REMARK                            x       y       z     vdW  Elec       q    Type
REMARK                         _______ _______ _______ _____ _____    ______ ____
ROOT
ATOM      1  C   UNL     1      47.375   3.845  15.932  0.00  0.00    +0.000 C 
ENDROOT
BRANCH   1   2
ATOM      2  C   UNL     1      48.687   3.565  16.613  0.00  0.00    +0.000 A 
ATOM      3  C   UNL     1      49.223   2.273  16.628  0.00  0.00    +0.000 A 
ATOM      4  C   UNL     1      50.453   2.033  17.233  0.00  0.00    +0.000 A 
ATOM      5  C   UNL     1      51.196   3.092  17.756  0.00  0.00    +0.000 A 
ATOM      6  C   UNL     1      50.742   4.405  17.619  0.00  0.00    +0.000 A 
ATOM      7  C   UNL     1      49.430   4.615  17.162  0.00  0.00    +0.000 A 
BRANCH   6   8
ATOM      8  C   UNL     1      51.667   5.619  17.627  0.00  0.00    +0.000 C 
ATOM      9  C   UNL     1      52.643   5.441  18.814  0.00  0.00    +0.000 C 
ATOM     10  C   UNL     1      51.970   5.778  20.146  0.00  0.00    +0.000 C 
ATOM     11  N   UNL     1      51.520   7.171  20.165  0.00  0.00    +0.000 NA
ATOM     12  C   UNL     1      50.570   7.449  19.091  0.00  0.00    +0.000 C 
ATOM     13  C   UNL     1      51.060   7.031  17.702  0.00  0.00    +0.000 C 
ATOM     14  H   UNL     1      52.329   7.777  20.054  0.00  0.00    +0.000 HD
ENDBRANCH   6   8
ENDBRANCH   1   2
BRANCH   1  15
ATOM     15  O   UNL     1      47.367   3.238  14.646  0.00  0.00    +0.000 OA
BRANCH  15  20
ATOM     16  C   UNL     1      45.179   3.840  11.821  0.00  0.00    +0.000 A 
ATOM     17  C   UNL     1      45.428   5.183  11.520  0.00  0.00    +0.000 A 
ATOM     18  C   UNL     1      46.335   5.912  12.293  0.00  0.00    +0.000 A 
ATOM     19  C   UNL     1      46.999   5.296  13.354  0.00  0.00    +0.000 A 
ATOM     20  C   UNL     1      46.770   3.950  13.648  0.00  0.00    +0.000 A 
ATOM     21  C   UNL     1      45.857   3.223  12.874  0.00  0.00    +0.000 A 
BRANCH  16  23
ATOM     22  N   UNL     1      44.688   2.436   9.894  0.00  0.00    +0.000 N 
ATOM     23  C   UNL     1      44.199   3.100  10.979  0.00  0.00    +0.000 C 
ATOM     24  O   UNL     1      43.010   3.055  11.272  0.00  0.00    +0.000 OA
ATOM     25  H   UNL     1      44.034   1.855   9.389  0.00  0.00    +0.000 HD
ATOM     26  H   UNL     1      45.675   2.265   9.758  0.00  0.00    +0.000 HD
ENDBRANCH  16  23
ENDBRANCH  15  20
ENDBRANCH   1  15
TORSDOF 5
ENDMDL
MODEL 9
REMARK VINA RESULT:    -5.909      4.018      8.133
REMARK INTER + INTRA:          -8.364
REMARK INTER:                  -7.722
REMARK INTRA:                  -0.642
REMARK UNBOUND:                -0.728
REMARK  Name = 
REMARK  5 active torsions:
REMARK  status: ('A' for Active; 'I' for Inactive)
REMARK    1  A    between atoms: C_2  and  C_4
REMARK    2  A    between atoms: C_8  and  O_9
REMARK    3  A    between atoms: O_9  and  C_10
REMARK    4  A    between atoms: C_10  and  C_11
REMARK    5  A    between atoms: C_15  and  C_16
REMARK                            x       y       z     vdW  Elec       q    Type
REMARK                         _______ _______ _______ _____ _____    ______ ____
ROOT
ATOM      1  C   UNL     1      48.193   6.899  13.982  0.00  0.00    +0.000 C 
ENDROOT
BRANCH   1   2
ATOM      2  C   UNL     1      46.962   7.356  13.248  0.00  0.00    +0.000 A 
ATOM      3  C   UNL     1      46.802   8.698  12.888  0.00  0.00    +0.000 A 
ATOM      4  C   UNL     1      45.674   9.104  12.182  0.00  0.00    +0.000 A 
ATOM      5  C   UNL     1      44.736   8.161  11.757  0.00  0.00    +0.000 A 
ATOM      6  C   UNL     1      44.954   6.802  11.982  0.00  0.00    +0.000 A 
ATOM      7  C   UNL     1      46.003   6.425  12.839  0.00  0.00    +0.000 A 
BRANCH   6   8
ATOM      8  C   UNL     1      44.343   5.698  11.122  0.00  0.00    +0.000 C 
ATOM      9  C   UNL     1      42.919   5.434  11.665  0.00  0.00    +0.000 C 
ATOM     10  C   UNL     1      42.956   4.599  12.946  0.00  0.00    +0.000 C 
ATOM     11  N   UNL     1      43.571   3.293  12.699  0.00  0.00    +0.000 NA
ATOM     12  C   UNL     1      44.938   3.423  12.200  0.00  0.00    +0.000 C 
ATOM     13  C   UNL     1      45.073   4.351  10.990  0.00  0.00    +0.000 C 
ATOM     14  H   UNL     1      43.015   2.795  12.009  0.00  0.00    +0.000 HD
ENDBRANCH   6   8
ENDBRANCH   1   2
BRANCH   1  15
ATOM     15  O   UNL     1      48.093   5.507  14.256  0.00  0.00    +0.000 OA
BRANCH  15  20
ATOM     16  C   UNL     1      48.529   5.810  17.841  0.00  0.00    +0.000 A 
ATOM     17  C   UNL     1      47.909   4.654  18.326  0.00  0.00    +0.000 A 
ATOM     18  C   UNL     1      47.313   3.760  17.434  0.00  0.00    +0.000 A 
ATOM     19  C   UNL     1      47.347   4.015  16.063  0.00  0.00    +0.000 A 
ATOM     20  C   UNL     1      47.982   5.159  15.570  0.00  0.00    +0.000 A 
ATOM     21  C   UNL     1      48.575   6.055  16.467  0.00  0.00    +0.000 A 
BRANCH  16  23
ATOM     22  N   UNL     1      50.203   7.488  18.396  0.00  0.00    +0.000 N 
ATOM     23  C   UNL     1      49.147   6.743  18.825  0.00  0.00    +0.000 C 
ATOM     24  O   UNL     1      48.697   6.865  19.959  0.00  0.00    +0.000 OA
ATOM     25  H   UNL     1      50.549   8.189  19.036  0.00  0.00    +0.000 HD
ATOM     26  H   UNL     1      50.447   7.579  17.419  0.00  0.00    +0.000 HD
ENDBRANCH  16  23
ENDBRANCH  15  20
ENDBRANCH   1  15
TORSDOF 5
ENDMDL
