MODEL 1
REMARK VINA RESULT:    -8.458      0.000      0.000
REMARK INTER + INTRA:         -13.513
REMARK INTER:                 -12.661
REMARK INTRA:                  -0.852
REMARK UNBOUND:                -0.852
REMARK  Name = 
REMARK  9 active torsions:
REMARK  status: ('A' for Active; 'I' for Inactive)
REMARK    1  A    between atoms: C_2  and  C_22
REMARK    2  A    between atoms: N_3  and  C_4
REMARK    3  A    between atoms: C_4  and  C_5
REMARK    4  A    between atoms: C_9  and  C_10
REMARK    5  A    between atoms: C_10  and  N_11
REMARK    6  A    between atoms: N_11  and  CA_12
REMARK    7  A    between atoms: CA_12  and  C_13
REMARK    8  A    between atoms: CA_12  and  C_15
REMARK    9  A    between atoms: C_13  and  O_14
REMARK                            x       y       z     vdW  Elec       q    Type
REMARK                         _______ _______ _______ _____ _____    ______ ____
ROOT
ATOM      1  C   UNL     1      46.515   5.179  13.893  0.00  0.00    +0.000 A 
ATOM      2  C   UNL     1      47.688   5.769  13.408  0.00  0.00    +0.000 A 
ATOM      3  C   UNL     1      47.639   6.650  12.326  0.00  0.00    +0.000 A 
ATOM      4  C   UNL     1      46.421   6.933  11.703  0.00  0.00    +0.000 A 
ATOM      5  C   UNL     1      45.242   6.328  12.150  0.00  0.00    +0.000 A 
ATOM      6  C   UNL     1      45.303   5.454  13.247  0.00  0.00    +0.000 A 
ENDROOT
BRANCH   1   7
ATOM      7  C   UNL     1      46.540   4.223  15.056  0.00  0.00    +0.000 C 
BRANCH   7  10
ATOM      8  O   UNL     1      46.900   4.482  17.849  0.00  0.00    +0.000 OA
ATOM      9  C   UNL     1      47.884   4.362  17.122  0.00  0.00    +0.000 C 
ATOM     10  N   UNL     1      47.796   4.290  15.756  0.00  0.00    +0.000 N 
ATOM     11  H   UNL     1      48.603   3.978  15.232  0.00  0.00    +0.000 HD
BRANCH   9  12
ATOM     12  C   UNL     1      49.243   4.340  17.675  0.00  0.00    +0.000 A 
ATOM     13  C   UNL     1      49.704   5.405  18.437  0.00  0.00    +0.000 A 
ATOM     14  S   UNL     1      51.311   5.211  18.976  0.00  0.00    +0.000 S 
ATOM     15  C   UNL     1      51.431   3.680  18.244  0.00  0.00    +0.000 A 
ATOM     16  N   UNL     1      52.565   2.938  18.352  0.00  0.00    +0.000 NA
ATOM     17  C   UNL     1      52.503   1.779  17.779  0.00  0.00    +0.000 A 
ATOM     18  N   UNL     1      51.410   1.301  17.106  0.00  0.00    +0.000 N 
ATOM     19  C   UNL     1      50.276   2.044  16.906  0.00  0.00    +0.000 A 
ATOM     20  O   UNL     1      49.376   1.638  16.177  0.00  0.00    +0.000 OA
ATOM     21  C   UNL     1      50.274   3.335  17.571  0.00  0.00    +0.000 A 
ATOM     22  H   UNL     1      51.436   0.399  16.650  0.00  0.00    +0.000 HD
ENDBRANCH   9  12
ENDBRANCH   7  10
ENDBRANCH   1   7
BRANCH   5  23
ATOM     23  C   UNL     1      43.919   6.564  11.455  0.00  0.00    +0.000 C 
BRANCH  23  24
ATOM     24  N   UNL     1      43.654   5.495  10.497  0.00  0.00    +0.000 NA
ATOM     25  H   UNL     1      43.989   5.810   9.584  0.00  0.00    +0.000 HD
BRANCH  24  26
ATOM     26  CA  UNL     1      44.304   4.207  10.818  0.00  0.00    +0.000 C 
BRANCH  26  27
ATOM     27  C   UNL     1      45.041   3.657   9.595  0.00  0.00    +0.000 A 
ATOM     28  C   UNL     1      45.589   4.497   8.627  0.00  0.00    +0.000 A 
ATOM     29  N   UNL     1      46.292   4.042   7.561  0.00  0.00    +0.000 NA
ATOM     30  C   UNL     1      46.417   2.701   7.482  0.00  0.00    +0.000 A 
ATOM     31  C   UNL     1      45.845   1.851   8.410  0.00  0.00    +0.000 A 
ATOM     32  N   UNL     1      45.139   2.303   9.476  0.00  0.00    +0.000 NA
ENDBRANCH  26  27
BRANCH  26  33
ATOM     33  C   UNL     1      43.334   3.120  11.354  0.00  0.00    +0.000 C 
BRANCH  33  34
ATOM     34  O   UNL     1      43.878   2.368  12.442  0.00  0.00    +0.000 OA
ATOM     35  H   UNL     1      43.134   2.067  12.998  0.00  0.00    +0.000 HD
ENDBRANCH  33  34
ENDBRANCH  26  33
ENDBRANCH  24  26
ENDBRANCH  23  24
ENDBRANCH   5  23
TORSDOF 9
ENDMDL
MODEL 2
REMARK VINA RESULT:    -8.093      1.359      1.731
REMARK INTER + INTRA:         -12.965
REMARK INTER:                 -12.221
REMARK INTRA:                  -0.745
REMARK UNBOUND:                -0.852
REMARK  Name = 
REMARK  9 active torsions:
REMARK  status: ('A' for Active; 'I' for Inactive)
REMARK    1  A    between atoms: C_2  and  C_22
REMARK    2  A    between atoms: N_3  and  C_4
REMARK    3  A    between atoms: C_4  and  C_5
REMARK    4  A    between atoms: C_9  and  C_10
REMARK    5  A    between atoms: C_10  and  N_11
REMARK    6  A    between atoms: N_11  and  CA_12
REMARK    7  A    between atoms: CA_12  and  C_13
REMARK    8  A    between atoms: CA_12  and  C_15
REMARK    9  A    between atoms: C_13  and  O_14
REMARK                            x       y       z     vdW  Elec       q    Type
REMARK                         _______ _______ _______ _____ _____    ______ ____
ROOT
ATOM      1  C   UNL     1      46.664   4.990  13.660  0.00  0.00    +0.000 A 
ATOM      2  C   UNL     1      47.578   5.950  13.208  0.00  0.00    +0.000 A 
ATOM      3  C   UNL     1      47.188   6.906  12.267  0.00  0.00    +0.000 A 
ATOM      4  C   UNL     1      45.890   6.899  11.752  0.00  0.00    +0.000 A 
ATOM      5  C   UNL     1      44.972   5.928  12.165  0.00  0.00    +0.000 A 
ATOM      6  C   UNL     1      45.372   4.980  13.121  0.00  0.00    +0.000 A 
ENDROOT
BRANCH   1   7
ATOM      7  C   UNL     1      47.058   3.946  14.671  0.00  0.00    +0.000 C 
BRANCH   7  10
ATOM      8  O   UNL     1      46.408   3.237  17.330  0.00  0.00    +0.000 OA
ATOM      9  C   UNL     1      47.245   4.113  17.127  0.00  0.00    +0.000 C 
ATOM     10  N   UNL     1      47.572   4.554  15.871  0.00  0.00    +0.000 N 
ATOM     11  H   UNL     1      48.408   5.111  15.751  0.00  0.00    +0.000 HD
BRANCH   9  12
ATOM     12  C   UNL     1      47.924   4.793  18.236  0.00  0.00    +0.000 A 
ATOM     13  C   UNL     1      47.220   5.669  19.052  0.00  0.00    +0.000 A 
ATOM     14  S   UNL     1      48.177   6.378  20.274  0.00  0.00    +0.000 S 
ATOM     15  C   UNL     1      49.554   5.509  19.779  0.00  0.00    +0.000 A 
ATOM     16  N   UNL     1      50.735   5.631  20.439  0.00  0.00    +0.000 NA
ATOM     17  C   UNL     1      51.686   4.883  19.978  0.00  0.00    +0.000 A 
ATOM     18  N   UNL     1      51.558   4.029  18.915  0.00  0.00    +0.000 N 
ATOM     19  C   UNL     1      50.410   3.931  18.173  0.00  0.00    +0.000 A 
ATOM     20  O   UNL     1      50.379   3.263  17.144  0.00  0.00    +0.000 OA
ATOM     21  C   UNL     1      49.295   4.712  18.678  0.00  0.00    +0.000 A 
ATOM     22  H   UNL     1      52.350   3.495  18.581  0.00  0.00    +0.000 HD
ENDBRANCH   9  12
ENDBRANCH   7  10
ENDBRANCH   1   7
BRANCH   5  23
ATOM     23  C   UNL     1      43.580   5.856  11.577  0.00  0.00    +0.000 C 
BRANCH  23  24
ATOM     24  N   UNL     1      43.559   4.943  10.439  0.00  0.00    +0.000 NA
ATOM     25  H   UNL     1      43.949   5.442   9.637  0.00  0.00    +0.000 HD
BRANCH  24  26
ATOM     26  CA  UNL     1      44.329   3.697  10.636  0.00  0.00    +0.000 C 
BRANCH  26  27
ATOM     27  C   UNL     1      45.135   3.358   9.380  0.00  0.00    +0.000 A 
ATOM     28  C   UNL     1      45.542   4.341   8.479  0.00  0.00    +0.000 A 
ATOM     29  N   UNL     1      46.299   4.079   7.385  0.00  0.00    +0.000 NA
ATOM     30  C   UNL     1      46.628   2.782   7.209  0.00  0.00    +0.000 A 
ATOM     31  C   UNL     1      46.199   1.788   8.069  0.00  0.00    +0.000 A 
ATOM     32  N   UNL     1      45.439   2.048   9.161  0.00  0.00    +0.000 NA
ENDBRANCH  26  27
BRANCH  26  33
ATOM     33  C   UNL     1      43.466   2.468  11.028  0.00  0.00    +0.000 C 
BRANCH  33  34
ATOM     34  O   UNL     1      43.522   2.165  12.425  0.00  0.00    +0.000 OA
ATOM     35  H   UNL     1      43.761   2.986  12.898  0.00  0.00    +0.000 HD
ENDBRANCH  33  34
ENDBRANCH  26  33
ENDBRANCH  24  26
ENDBRANCH  23  24
ENDBRANCH   5  23
TORSDOF 9
ENDMDL
MODEL 3
REMARK VINA RESULT:    -7.701      2.120      2.959
REMARK INTER + INTRA:         -12.379
REMARK INTER:                 -10.935
REMARK INTRA:                  -1.443
REMARK UNBOUND:                -0.852
REMARK  Name = 
REMARK  9 active torsions:
REMARK  status: ('A' for Active; 'I' for Inactive)
REMARK    1  A    between atoms: C_2  and  C_22
REMARK    2  A    between atoms: N_3  and  C_4
REMARK    3  A    between atoms: C_4  and  C_5
REMARK    4  A    between atoms: C_9  and  C_10
REMARK    5  A    between atoms: C_10  and  N_11
REMARK    6  A    between atoms: N_11  and  CA_12
REMARK    7  A    between atoms: CA_12  and  C_13
REMARK    8  A    between atoms: CA_12  and  C_15
REMARK    9  A    between atoms: C_13  and  O_14
REMARK                            x       y       z     vdW  Elec       q    Type
REMARK                         _______ _______ _______ _____ _____    ______ ____
ROOT
ATOM      1  C   UNL     1      47.125   8.695  13.137  0.00  0.00    +0.000 A 
ATOM      2  C   UNL     1      46.692   9.764  12.344  0.00  0.00    +0.000 A 
ATOM      3  C   UNL     1      45.478   9.684  11.657  0.00  0.00    +0.000 A 
ATOM      4  C   UNL     1      44.697   8.529  11.737  0.00  0.00    +0.000 A 
ATOM      5  C   UNL     1      45.128   7.437  12.498  0.00  0.00    +0.000 A 
ATOM      6  C   UNL     1      46.344   7.534  13.193  0.00  0.00    +0.000 A 
ENDROOT
BRANCH   1   7
ATOM      7  C   UNL     1      48.430   8.752  13.886  0.00  0.00    +0.000 C 
BRANCH   7  10
ATOM      8  O   UNL     1      50.707   7.423  14.908  0.00  0.00    +0.000 OA
ATOM      9  C   UNL     1      49.612   7.234  15.432  0.00  0.00    +0.000 C 
ATOM     10  N   UNL     1      48.454   7.794  14.961  0.00  0.00    +0.000 N 
ATOM     11  H   UNL     1      47.631   7.781  15.549  0.00  0.00    +0.000 HD
BRANCH   9  12
ATOM     12  C   UNL     1      49.462   6.340  16.587  0.00  0.00    +0.000 A 
ATOM     13  C   UNL     1      50.159   6.592  17.760  0.00  0.00    +0.000 A 
ATOM     14  S   UNL     1      49.874   5.439  18.983  0.00  0.00    +0.000 S 
ATOM     15  C   UNL     1      48.778   4.585  18.001  0.00  0.00    +0.000 A 
ATOM     16  N   UNL     1      48.134   3.481  18.464  0.00  0.00    +0.000 NA
ATOM     17  C   UNL     1      47.302   2.955  17.623  0.00  0.00    +0.000 A 
ATOM     18  N   UNL     1      47.062   3.434  16.363  0.00  0.00    +0.000 N 
ATOM     19  C   UNL     1      47.744   4.495  15.827  0.00  0.00    +0.000 A 
ATOM     20  O   UNL     1      47.605   4.805  14.648  0.00  0.00    +0.000 OA
ATOM     21  C   UNL     1      48.655   5.154  16.747  0.00  0.00    +0.000 A 
ATOM     22  H   UNL     1      46.423   2.957  15.740  0.00  0.00    +0.000 HD
ENDBRANCH   9  12
ENDBRANCH   7  10
ENDBRANCH   1   7
BRANCH   5  23
ATOM     23  C   UNL     1      44.336   6.150  12.552  0.00  0.00    +0.000 C 
BRANCH  23  24
ATOM     24  N   UNL     1      44.284   5.534  11.229  0.00  0.00    +0.000 NA
ATOM     25  H   UNL     1      44.993   5.987  10.650  0.00  0.00    +0.000 HD
BRANCH  24  26
ATOM     26  CA  UNL     1      44.530   4.077  11.220  0.00  0.00    +0.000 C 
BRANCH  26  27
ATOM     27  C   UNL     1      45.066   3.630   9.858  0.00  0.00    +0.000 A 
ATOM     28  C   UNL     1      45.447   4.548   8.881  0.00  0.00    +0.000 A 
ATOM     29  N   UNL     1      45.973   4.185   7.685  0.00  0.00    +0.000 NA
ATOM     30  C   UNL     1      46.092   2.855   7.487  0.00  0.00    +0.000 A 
ATOM     31  C   UNL     1      45.679   1.929   8.428  0.00  0.00    +0.000 A 
ATOM     32  N   UNL     1      45.151   2.291   9.623  0.00  0.00    +0.000 NA
ENDBRANCH  26  27
BRANCH  26  33
ATOM     33  C   UNL     1      43.288   3.217  11.580  0.00  0.00    +0.000 C 
BRANCH  33  34
ATOM     34  O   UNL     1      43.584   2.154  12.488  0.00  0.00    +0.000 OA
ATOM     35  H   UNL     1      44.520   1.905  12.360  0.00  0.00    +0.000 HD
ENDBRANCH  33  34
ENDBRANCH  26  33
ENDBRANCH  24  26
ENDBRANCH  23  24
ENDBRANCH   5  23
TORSDOF 9
ENDMDL
MODEL 4
REMARK VINA RESULT:    -7.596      4.196      7.124
REMARK INTER + INTRA:         -12.222
REMARK INTER:                 -10.337
REMARK INTRA:                  -1.884
REMARK UNBOUND:                -0.852
REMARK  Name = 
REMARK  9 active torsions:
REMARK  status: ('A' for Active; 'I' for Inactive)
REMARK    1  A    between atoms: C_2  and  C_22
REMARK    2  A    between atoms: N_3  and  C_4
REMARK    3  A    between atoms: C_4  and  C_5
REMARK    4  A    between atoms: C_9  and  C_10
REMARK    5  A    between atoms: C_10  and  N_11
REMARK    6  A    between atoms: N_11  and  CA_12
REMARK    7  A    between atoms: CA_12  and  C_13
REMARK    8  A    between atoms: CA_12  and  C_15
REMARK    9  A    between atoms: C_13  and  O_14
REMARK                            x       y       z     vdW  Elec       q    Type
REMARK                         _______ _______ _______ _____ _____    ______ ____
ROOT
ATOM      1  C   UNL     1      48.516   6.720  14.678  0.00  0.00    +0.000 A 
ATOM      2  C   UNL     1      48.719   6.374  16.019  0.00  0.00    +0.000 A 
ATOM      3  C   UNL     1      48.134   5.220  16.545  0.00  0.00    +0.000 A 
ATOM      4  C   UNL     1      47.323   4.413  15.745  0.00  0.00    +0.000 A 
ATOM      5  C   UNL     1      47.081   4.759  14.411  0.00  0.00    +0.000 A 
ATOM      6  C   UNL     1      47.684   5.915  13.890  0.00  0.00    +0.000 A 
ENDROOT
BRANCH   1   7
ATOM      7  C   UNL     1      49.132   7.960  14.085  0.00  0.00    +0.000 C 
BRANCH   7  10
ATOM      8  O   UNL     1      48.827   8.972  11.463  0.00  0.00    +0.000 OA
ATOM      9  C   UNL     1      48.008   9.278  12.326  0.00  0.00    +0.000 C 
ATOM     10  N   UNL     1      48.118   8.876  13.632  0.00  0.00    +0.000 N 
ATOM     11  H   UNL     1      47.316   8.972  14.241  0.00  0.00    +0.000 HD
BRANCH   9  12
ATOM     12  C   UNL     1      46.867  10.150  12.023  0.00  0.00    +0.000 A 
ATOM     13  C   UNL     1      47.019  11.529  12.044  0.00  0.00    +0.000 A 
ATOM     14  S   UNL     1      45.583  12.378  11.685  0.00  0.00    +0.000 S 
ATOM     15  C   UNL     1      44.720  10.930  11.450  0.00  0.00    +0.000 A 
ATOM     16  N   UNL     1      43.411  10.946  11.084  0.00  0.00    +0.000 NA
ATOM     17  C   UNL     1      42.892   9.773  10.903  0.00  0.00    +0.000 A 
ATOM     18  N   UNL     1      43.566   8.592  11.060  0.00  0.00    +0.000 N 
ATOM     19  C   UNL     1      44.862   8.526  11.502  0.00  0.00    +0.000 A 
ATOM     20  O   UNL     1      45.384   7.448  11.767  0.00  0.00    +0.000 OA
ATOM     21  C   UNL     1      45.508   9.816  11.672  0.00  0.00    +0.000 A 
ATOM     22  H   UNL     1      43.094   7.706  10.935  0.00  0.00    +0.000 HD
ENDBRANCH   9  12
ENDBRANCH   7  10
ENDBRANCH   1   7
BRANCH   5  23
ATOM     23  C   UNL     1      46.155   3.940  13.538  0.00  0.00    +0.000 C 
BRANCH  23  24
ATOM     24  N   UNL     1      45.342   4.818  12.702  0.00  0.00    +0.000 NA
ATOM     25  H   UNL     1      45.952   5.208  11.981  0.00  0.00    +0.000 HD
BRANCH  24  26
ATOM     26  CA  UNL     1      44.199   4.153  12.042  0.00  0.00    +0.000 C 
BRANCH  26  27
ATOM     27  C   UNL     1      44.558   3.768  10.605  0.00  0.00    +0.000 A 
ATOM     28  C   UNL     1      44.456   2.455  10.147  0.00  0.00    +0.000 A 
ATOM     29  N   UNL     1      44.716   2.093   8.867  0.00  0.00    +0.000 NA
ATOM     30  C   UNL     1      45.103   3.095   8.051  0.00  0.00    +0.000 A 
ATOM     31  C   UNL     1      45.250   4.396   8.498  0.00  0.00    +0.000 A 
ATOM     32  N   UNL     1      44.993   4.760   9.778  0.00  0.00    +0.000 NA
ENDBRANCH  26  27
BRANCH  26  33
ATOM     33  C   UNL     1      42.893   4.991  12.029  0.00  0.00    +0.000 C 
BRANCH  33  34
ATOM     34  O   UNL     1      42.627   5.637  13.277  0.00  0.00    +0.000 OA
ATOM     35  H   UNL     1      41.766   6.092  13.199  0.00  0.00    +0.000 HD
ENDBRANCH  33  34
ENDBRANCH  26  33
ENDBRANCH  24  26
ENDBRANCH  23  24
ENDBRANCH   5  23
TORSDOF 9
ENDMDL
MODEL 5
REMARK VINA RESULT:    -7.578      3.269      8.765
REMARK INTER + INTRA:         -12.195
REMARK INTER:                 -10.794
REMARK INTRA:                  -1.401
REMARK UNBOUND:                -0.852
REMARK  Name = 
REMARK  9 active torsions:
REMARK  status: ('A' for Active; 'I' for Inactive)
REMARK    1  A    between atoms: C_2  and  C_22
REMARK    2  A    between atoms: N_3  and  C_4
REMARK    3  A    between atoms: C_4  and  C_5
REMARK    4  A    between atoms: C_9  and  C_10
REMARK    5  A    between atoms: C_10  and  N_11
REMARK    6  A    between atoms: N_11  and  CA_12
REMARK    7  A    between atoms: CA_12  and  C_13
REMARK    8  A    between atoms: CA_12  and  C_15
REMARK    9  A    between atoms: C_13  and  O_14
REMARK                            x       y       z     vdW  Elec       q    Type
REMARK                         _______ _______ _______ _____ _____    ______ ____
ROOT
ATOM      1  C   UNL     1      48.781   7.856  12.784  0.00  0.00    +0.000 A 
ATOM      2  C   UNL     1      50.079   8.303  12.511  0.00  0.00    +0.000 A 
ATOM      3  C   UNL     1      51.073   8.218  13.488  0.00  0.00    +0.000 A 
ATOM      4  C   UNL     1      50.776   7.708  14.753  0.00  0.00    +0.000 A 
ATOM      5  C   UNL     1      49.477   7.286  15.057  0.00  0.00    +0.000 A 
ATOM      6  C   UNL     1      48.490   7.365  14.062  0.00  0.00    +0.000 A 
ENDROOT
BRANCH   1   7
ATOM      7  C   UNL     1      47.689   7.938  11.751  0.00  0.00    +0.000 C 
BRANCH   7  10
ATOM      8  O   UNL     1      44.871   7.699  11.750  0.00  0.00    +0.000 OA
ATOM      9  C   UNL     1      45.562   6.688  11.647  0.00  0.00    +0.000 C 
ATOM     10  N   UNL     1      46.932   6.714  11.697  0.00  0.00    +0.000 N 
ATOM     11  H   UNL     1      47.447   5.898  11.394  0.00  0.00    +0.000 HD
BRANCH   9  12
ATOM     12  C   UNL     1      44.956   5.359  11.512  0.00  0.00    +0.000 A 
ATOM     13  C   UNL     1      44.246   4.805  12.569  0.00  0.00    +0.000 A 
ATOM     14  S   UNL     1      43.632   3.249  12.236  0.00  0.00    +0.000 S 
ATOM     15  C   UNL     1      44.260   3.278  10.654  0.00  0.00    +0.000 A 
ATOM     16  N   UNL     1      44.058   2.240   9.801  0.00  0.00    +0.000 NA
ATOM     17  C   UNL     1      44.559   2.414   8.620  0.00  0.00    +0.000 A 
ATOM     18  N   UNL     1      45.243   3.531   8.221  0.00  0.00    +0.000 N 
ATOM     19  C   UNL     1      45.535   4.567   9.069  0.00  0.00    +0.000 A 
ATOM     20  O   UNL     1      46.271   5.483   8.716  0.00  0.00    +0.000 OA
ATOM     21  C   UNL     1      44.954   4.445  10.394  0.00  0.00    +0.000 A 
ATOM     22  H   UNL     1      45.638   3.592   7.292  0.00  0.00    +0.000 HD
ENDBRANCH   9  12
ENDBRANCH   7  10
ENDBRANCH   1   7
BRANCH   5  23
ATOM     23  C   UNL     1      49.111   6.789  16.438  0.00  0.00    +0.000 C 
BRANCH  23  24
ATOM     24  N   UNL     1      49.003   5.333  16.438  0.00  0.00    +0.000 NA
ATOM     25  H   UNL     1      49.839   4.962  16.893  0.00  0.00    +0.000 HD
BRANCH  24  26
ATOM     26  CA  UNL     1      47.813   4.805  17.138  0.00  0.00    +0.000 C 
BRANCH  26  27
ATOM     27  C   UNL     1      47.949   5.001  18.650  0.00  0.00    +0.000 A 
ATOM     28  C   UNL     1      47.199   5.954  19.338  0.00  0.00    +0.000 A 
ATOM     29  N   UNL     1      47.259   6.116  20.683  0.00  0.00    +0.000 NA
ATOM     30  C   UNL     1      48.116   5.295  21.326  0.00  0.00    +0.000 A 
ATOM     31  C   UNL     1      48.898   4.373  20.655  0.00  0.00    +0.000 A 
ATOM     32  N   UNL     1      48.842   4.211  19.310  0.00  0.00    +0.000 NA
ENDBRANCH  26  27
BRANCH  26  33
ATOM     33  C   UNL     1      47.513   3.310  16.849  0.00  0.00    +0.000 C 
BRANCH  33  34
ATOM     34  O   UNL     1      46.512   2.761  17.709  0.00  0.00    +0.000 OA
ATOM     35  H   UNL     1      45.757   2.489  17.151  0.00  0.00    +0.000 HD
ENDBRANCH  33  34
ENDBRANCH  26  33
ENDBRANCH  24  26
ENDBRANCH  23  24
ENDBRANCH   5  23
TORSDOF 9
ENDMDL
MODEL 6
REMARK VINA RESULT:    -7.523      2.898      8.481
REMARK INTER + INTRA:         -12.112
REMARK INTER:                 -10.899
REMARK INTRA:                  -1.213
REMARK UNBOUND:                -0.852
REMARK  Name = 
REMARK  9 active torsions:
REMARK  status: ('A' for Active; 'I' for Inactive)
REMARK    1  A    between atoms: C_2  and  C_22
REMARK    2  A    between atoms: N_3  and  C_4
REMARK    3  A    between atoms: C_4  and  C_5
REMARK    4  A    between atoms: C_9  and  C_10
REMARK    5  A    between atoms: C_10  and  N_11
REMARK    6  A    between atoms: N_11  and  CA_12
REMARK    7  A    between atoms: CA_12  and  C_13
REMARK    8  A    between atoms: CA_12  and  C_15
REMARK    9  A    between atoms: C_13  and  O_14
REMARK                            x       y       z     vdW  Elec       q    Type
REMARK                         _______ _______ _______ _____ _____    ______ ____
ROOT
ATOM      1  C   UNL     1      48.692   7.892  12.704  0.00  0.00    +0.000 A 
ATOM      2  C   UNL     1      49.967   8.395  12.417  0.00  0.00    +0.000 A 
ATOM      3  C   UNL     1      50.984   8.323  13.370  0.00  0.00    +0.000 A 
ATOM      4  C   UNL     1      50.734   7.768  14.627  0.00  0.00    +0.000 A 
ATOM      5  C   UNL     1      49.459   7.289  14.946  0.00  0.00    +0.000 A 
ATOM      6  C   UNL     1      48.448   7.356  13.975  0.00  0.00    +0.000 A 
ENDROOT
BRANCH   1   7
ATOM      7  C   UNL     1      47.576   7.959  11.696  0.00  0.00    +0.000 C 
BRANCH   7  10
ATOM      8  O   UNL     1      44.776   7.627  11.903  0.00  0.00    +0.000 OA
ATOM      9  C   UNL     1      45.485   6.647  11.694  0.00  0.00    +0.000 C 
ATOM     10  N   UNL     1      46.853   6.715  11.639  0.00  0.00    +0.000 N 
ATOM     11  H   UNL     1      47.366   5.933  11.254  0.00  0.00    +0.000 HD
BRANCH   9  12
ATOM     12  C   UNL     1      44.909   5.306  11.538  0.00  0.00    +0.000 A 
ATOM     13  C   UNL     1      44.218   4.717  12.589  0.00  0.00    +0.000 A 
ATOM     14  S   UNL     1      43.638   3.154  12.231  0.00  0.00    +0.000 S 
ATOM     15  C   UNL     1      44.256   3.226  10.647  0.00  0.00    +0.000 A 
ATOM     16  N   UNL     1      44.074   2.198   9.776  0.00  0.00    +0.000 NA
ATOM     17  C   UNL     1      44.564   2.405   8.595  0.00  0.00    +0.000 A 
ATOM     18  N   UNL     1      45.219   3.545   8.213  0.00  0.00    +0.000 N 
ATOM     19  C   UNL     1      45.492   4.572   9.079  0.00  0.00    +0.000 A 
ATOM     20  O   UNL     1      46.205   5.511   8.739  0.00  0.00    +0.000 OA
ATOM     21  C   UNL     1      44.922   4.413  10.404  0.00  0.00    +0.000 A 
ATOM     22  H   UNL     1      45.608   3.632   7.283  0.00  0.00    +0.000 HD
ENDBRANCH   9  12
ENDBRANCH   7  10
ENDBRANCH   1   7
BRANCH   5  23
ATOM     23  C   UNL     1      49.142   6.742  16.320  0.00  0.00    +0.000 C 
BRANCH  23  24
ATOM     24  N   UNL     1      48.924   5.300  16.251  0.00  0.00    +0.000 NA
ATOM     25  H   UNL     1      49.655   4.906  15.657  0.00  0.00    +0.000 HD
BRANCH  24  26
ATOM     26  CA  UNL     1      48.957   4.611  17.558  0.00  0.00    +0.000 C 
BRANCH  26  27
ATOM     27  C   UNL     1      50.051   3.541  17.574  0.00  0.00    +0.000 A 
ATOM     28  C   UNL     1      49.815   2.241  17.130  0.00  0.00    +0.000 A 
ATOM     29  N   UNL     1      50.776   1.286  17.084  0.00  0.00    +0.000 NA
ATOM     30  C   UNL     1      51.995   1.672  17.517  0.00  0.00    +0.000 A 
ATOM     31  C   UNL     1      52.237   2.945  18.000  0.00  0.00    +0.000 A 
ATOM     32  N   UNL     1      51.276   3.900  18.050  0.00  0.00    +0.000 NA
ENDBRANCH  26  27
BRANCH  26  33
ATOM     33  C   UNL     1      47.609   3.959  17.970  0.00  0.00    +0.000 C 
BRANCH  33  34
ATOM     34  O   UNL     1      46.549   4.907  18.116  0.00  0.00    +0.000 OA
ATOM     35  H   UNL     1      46.572   5.241  19.034  0.00  0.00    +0.000 HD
ENDBRANCH  33  34
ENDBRANCH  26  33
ENDBRANCH  24  26
ENDBRANCH  23  24
ENDBRANCH   5  23
TORSDOF 9
ENDMDL
MODEL 7
REMARK VINA RESULT:    -7.374      3.115      8.350
REMARK INTER + INTRA:         -11.890
REMARK INTER:                 -10.670
REMARK INTRA:                  -1.220
REMARK UNBOUND:                -0.852
REMARK  Name = 
REMARK  9 active torsions:
REMARK  status: ('A' for Active; 'I' for Inactive)
REMARK    1  A    between atoms: C_2  and  C_22
REMARK    2  A    between atoms: N_3  and  C_4
REMARK    3  A    between atoms: C_4  and  C_5
REMARK    4  A    between atoms: C_9  and  C_10
REMARK    5  A    between atoms: C_10  and  N_11
REMARK    6  A    between atoms: N_11  and  CA_12
REMARK    7  A    between atoms: CA_12  and  C_13
REMARK    8  A    between atoms: CA_12  and  C_15
REMARK    9  A    between atoms: C_13  and  O_14
REMARK                            x       y       z     vdW  Elec       q    Type
REMARK                         _______ _______ _______ _____ _____    ______ ____
ROOT
ATOM      1  C   UNL     1      48.997   7.812  13.149  0.00  0.00    +0.000 A 
ATOM      2  C   UNL     1      50.334   8.192  13.317  0.00  0.00    +0.000 A 
ATOM      3  C   UNL     1      51.013   7.878  14.497  0.00  0.00    +0.000 A 
ATOM      4  C   UNL     1      50.358   7.203  15.528  0.00  0.00    +0.000 A 
ATOM      5  C   UNL     1      49.013   6.843  15.394  0.00  0.00    +0.000 A 
ATOM      6  C   UNL     1      48.345   7.154  14.199  0.00  0.00    +0.000 A 
ENDROOT
BRANCH   1   7
ATOM      7  C   UNL     1      48.240   8.140  11.890  0.00  0.00    +0.000 C 
BRANCH   7  10
ATOM      8  O   UNL     1      45.429   7.864  11.767  0.00  0.00    +0.000 OA
ATOM      9  C   UNL     1      46.143   6.963  11.335  0.00  0.00    +0.000 C 
ATOM     10  N   UNL     1      47.511   6.995  11.411  0.00  0.00    +0.000 N 
ATOM     11  H   UNL     1      48.046   6.342  10.854  0.00  0.00    +0.000 HD
BRANCH   9  12
ATOM     12  C   UNL     1      45.567   5.749  10.745  0.00  0.00    +0.000 A 
ATOM     13  C   UNL     1      45.767   5.464   9.401  0.00  0.00    +0.000 A 
ATOM     14  S   UNL     1      45.009   4.024   8.890  0.00  0.00    +0.000 S 
ATOM     15  C   UNL     1      44.421   3.711  10.456  0.00  0.00    +0.000 A 
ATOM     16  N   UNL     1      43.700   2.590  10.723  0.00  0.00    +0.000 NA
ATOM     17  C   UNL     1      43.351   2.462  11.963  0.00  0.00    +0.000 A 
ATOM     18  N   UNL     1      43.656   3.357  12.954  0.00  0.00    +0.000 N 
ATOM     19  C   UNL     1      44.313   4.536  12.716  0.00  0.00    +0.000 A 
ATOM     20  O   UNL     1      44.442   5.376  13.601  0.00  0.00    +0.000 OA
ATOM     21  C   UNL     1      44.772   4.706  11.349  0.00  0.00    +0.000 A 
ATOM     22  H   UNL     1      43.325   3.216  13.900  0.00  0.00    +0.000 HD
ENDBRANCH   9  12
ENDBRANCH   7  10
ENDBRANCH   1   7
BRANCH   5  23
ATOM     23  C   UNL     1      48.260   6.169  16.519  0.00  0.00    +0.000 C 
BRANCH  23  24
ATOM     24  N   UNL     1      49.192   5.498  17.420  0.00  0.00    +0.000 NA
ATOM     25  H   UNL     1      49.218   6.033  18.291  0.00  0.00    +0.000 HD
BRANCH  24  26
ATOM     26  CA  UNL     1      48.841   4.099  17.739  0.00  0.00    +0.000 C 
BRANCH  26  27
ATOM     27  C   UNL     1      50.084   3.206  17.688  0.00  0.00    +0.000 A 
ATOM     28  C   UNL     1      50.057   1.941  17.104  0.00  0.00    +0.000 A 
ATOM     29  N   UNL     1      51.152   1.149  16.998  0.00  0.00    +0.000 NA
ATOM     30  C   UNL     1      52.288   1.662  17.516  0.00  0.00    +0.000 A 
ATOM     31  C   UNL     1      52.323   2.898  18.135  0.00  0.00    +0.000 A 
ATOM     32  N   UNL     1      51.229   3.690  18.245  0.00  0.00    +0.000 NA
ENDBRANCH  26  27
BRANCH  26  33
ATOM     33  C   UNL     1      47.746   3.491  16.820  0.00  0.00    +0.000 C 
BRANCH  33  34
ATOM     34  O   UNL     1      46.631   2.967  17.546  0.00  0.00    +0.000 OA
ATOM     35  H   UNL     1      45.825   3.406  17.211  0.00  0.00    +0.000 HD
ENDBRANCH  33  34
ENDBRANCH  26  33
ENDBRANCH  24  26
ENDBRANCH  23  24
ENDBRANCH   5  23
TORSDOF 9
ENDMDL
MODEL 8
REMARK VINA RESULT:    -7.231      3.466      8.126
REMARK INTER + INTRA:         -11.676
REMARK INTER:                 -10.078
REMARK INTRA:                  -1.599
REMARK UNBOUND:                -0.852
REMARK  Name = 
REMARK  9 active torsions:
REMARK  status: ('A' for Active; 'I' for Inactive)
REMARK    1  A    between atoms: C_2  and  C_22
REMARK    2  A    between atoms: N_3  and  C_4
REMARK    3  A    between atoms: C_4  and  C_5
REMARK    4  A    between atoms: C_9  and  C_10
REMARK    5  A    between atoms: C_10  and  N_11
REMARK    6  A    between atoms: N_11  and  CA_12
REMARK    7  A    between atoms: CA_12  and  C_13
REMARK    8  A    between atoms: CA_12  and  C_15
REMARK    9  A    between atoms: C_13  and  O_14
REMARK                            x       y       z     vdW  Elec       q    Type
REMARK                         _______ _______ _______ _____ _____    ______ ____
ROOT
ATOM      1  C   UNL     1      48.103   9.323  17.035  0.00  0.00    +0.000 A 
ATOM      2  C   UNL     1      47.761  10.452  17.790  0.00  0.00    +0.000 A 
ATOM      3  C   UNL     1      47.407  10.320  19.135  0.00  0.00    +0.000 A 
ATOM      4  C   UNL     1      47.367   9.058  19.732  0.00  0.00    +0.000 A 
ATOM      5  C   UNL     1      47.672   7.914  18.987  0.00  0.00    +0.000 A 
ATOM      6  C   UNL     1      48.039   8.061  17.640  0.00  0.00    +0.000 A 
ENDROOT
BRANCH   1   7
ATOM      7  C   UNL     1      48.485   9.436  15.584  0.00  0.00    +0.000 C 
BRANCH   7  10
ATOM      8  O   UNL     1      49.014   7.631  13.472  0.00  0.00    +0.000 OA
ATOM      9  C   UNL     1      47.850   7.888  13.769  0.00  0.00    +0.000 C 
ATOM     10  N   UNL     1      47.511   8.795  14.739  0.00  0.00    +0.000 N 
ATOM     11  H   UNL     1      46.561   8.806  15.087  0.00  0.00    +0.000 HD
BRANCH   9  12
ATOM     12  C   UNL     1      46.725   7.269  13.057  0.00  0.00    +0.000 A 
ATOM     13  C   UNL     1      45.871   8.049  12.291  0.00  0.00    +0.000 A 
ATOM     14  S   UNL     1      44.614   7.162  11.554  0.00  0.00    +0.000 S 
ATOM     15  C   UNL     1      45.193   5.698  12.201  0.00  0.00    +0.000 A 
ATOM     16  N   UNL     1      44.578   4.517  11.925  0.00  0.00    +0.000 NA
ATOM     17  C   UNL     1      45.149   3.481  12.453  0.00  0.00    +0.000 A 
ATOM     18  N   UNL     1      46.274   3.524  13.231  0.00  0.00    +0.000 N 
ATOM     19  C   UNL     1      46.881   4.698  13.598  0.00  0.00    +0.000 A 
ATOM     20  O   UNL     1      47.800   4.706  14.411  0.00  0.00    +0.000 OA
ATOM     21  C   UNL     1      46.311   5.888  12.992  0.00  0.00    +0.000 A 
ATOM     22  H   UNL     1      46.653   2.681  13.642  0.00  0.00    +0.000 HD
ENDBRANCH   9  12
ENDBRANCH   7  10
ENDBRANCH   1   7
BRANCH   5  23
ATOM     23  C   UNL     1      47.575   6.530  19.589  0.00  0.00    +0.000 C 
BRANCH  23  24
ATOM     24  N   UNL     1      48.733   5.729  19.203  0.00  0.00    +0.000 NA
ATOM     25  H   UNL     1      49.351   5.670  20.015  0.00  0.00    +0.000 HD
BRANCH  24  26
ATOM     26  CA  UNL     1      48.411   4.358  18.756  0.00  0.00    +0.000 C 
BRANCH  26  27
ATOM     27  C   UNL     1      49.676   3.635  18.285  0.00  0.00    +0.000 A 
ATOM     28  C   UNL     1      50.950   4.074  18.643  0.00  0.00    +0.000 A 
ATOM     29  N   UNL     1      52.086   3.426  18.285  0.00  0.00    +0.000 NA
ATOM     30  C   UNL     1      51.906   2.318  17.534  0.00  0.00    +0.000 A 
ATOM     31  C   UNL     1      50.652   1.892  17.136  0.00  0.00    +0.000 A 
ATOM     32  N   UNL     1      49.516   2.541  17.490  0.00  0.00    +0.000 NA
ENDBRANCH  26  27
BRANCH  26  33
ATOM     33  C   UNL     1      47.343   4.288  17.632  0.00  0.00    +0.000 C 
BRANCH  33  34
ATOM     34  O   UNL     1      46.559   3.093  17.676  0.00  0.00    +0.000 OA
ATOM     35  H   UNL     1      46.946   2.508  18.355  0.00  0.00    +0.000 HD
ENDBRANCH  33  34
ENDBRANCH  26  33
ENDBRANCH  24  26
ENDBRANCH  23  24
ENDBRANCH   5  23
TORSDOF 9
ENDMDL
MODEL 9
REMARK VINA RESULT:    -7.185      3.429      7.989
REMARK INTER + INTRA:         -11.607
REMARK INTER:                 -10.281
REMARK INTRA:                  -1.327
REMARK UNBOUND:                -0.852
REMARK  Name = 
REMARK  9 active torsions:
REMARK  status: ('A' for Active; 'I' for Inactive)
REMARK    1  A    between atoms: C_2  and  C_22
REMARK    2  A    between atoms: N_3  and  C_4
REMARK    3  A    between atoms: C_4  and  C_5
REMARK    4  A    between atoms: C_9  and  C_10
REMARK    5  A    between atoms: C_10  and  N_11
REMARK    6  A    between atoms: N_11  and  CA_12
REMARK    7  A    between atoms: CA_12  and  C_13
REMARK    8  A    between atoms: CA_12  and  C_15
REMARK    9  A    between atoms: C_13  and  O_14
REMARK                            x       y       z     vdW  Elec       q    Type
REMARK                         _______ _______ _______ _____ _____    ______ ____
ROOT
ATOM      1  C   UNL     1      49.276   8.541  14.955  0.00  0.00    +0.000 A 
ATOM      2  C   UNL     1      49.392   9.908  14.674  0.00  0.00    +0.000 A 
ATOM      3  C   UNL     1      49.171  10.855  15.677  0.00  0.00    +0.000 A 
ATOM      4  C   UNL     1      48.812  10.448  16.963  0.00  0.00    +0.000 A 
ATOM      5  C   UNL     1      48.658   9.089  17.257  0.00  0.00    +0.000 A 
ATOM      6  C   UNL     1      48.894   8.146  16.243  0.00  0.00    +0.000 A 
ENDROOT
BRANCH   1   7
ATOM      7  C   UNL     1      49.504   7.499  13.893  0.00  0.00    +0.000 C 
BRANCH   7  10
ATOM      8  O   UNL     1      47.733   5.375  14.484  0.00  0.00    +0.000 OA
ATOM      9  C   UNL     1      47.448   6.166  13.588  0.00  0.00    +0.000 C 
ATOM     10  N   UNL     1      48.280   7.186  13.202  0.00  0.00    +0.000 N 
ATOM     11  H   UNL     1      47.908   7.925  12.621  0.00  0.00    +0.000 HD
BRANCH   9  12
ATOM     12  C   UNL     1      46.202   6.039  12.823  0.00  0.00    +0.000 A 
ATOM     13  C   UNL     1      45.597   7.165  12.283  0.00  0.00    +0.000 A 
ATOM     14  S   UNL     1      44.151   6.825  11.446  0.00  0.00    +0.000 S 
ATOM     15  C   UNL     1      44.305   5.156  11.742  0.00  0.00    +0.000 A 
ATOM     16  N   UNL     1      43.393   4.271  11.260  0.00  0.00    +0.000 NA
ATOM     17  C   UNL     1      43.656   3.032  11.529  0.00  0.00    +0.000 A 
ATOM     18  N   UNL     1      44.746   2.604  12.239  0.00  0.00    +0.000 N 
ATOM     19  C   UNL     1      45.648   3.465  12.809  0.00  0.00    +0.000 A 
ATOM     20  O   UNL     1      46.529   3.052  13.556  0.00  0.00    +0.000 OA
ATOM     21  C   UNL     1      45.427   4.866  12.495  0.00  0.00    +0.000 A 
ATOM     22  H   UNL     1      44.878   1.623  12.444  0.00  0.00    +0.000 HD
ENDBRANCH   9  12
ENDBRANCH   7  10
ENDBRANCH   1   7
BRANCH   5  23
ATOM     23  C   UNL     1      48.207   8.622  18.623  0.00  0.00    +0.000 C 
BRANCH  23  24
ATOM     24  N   UNL     1      47.516   7.340  18.515  0.00  0.00    +0.000 NA
ATOM     25  H   UNL     1      47.440   7.114  17.522  0.00  0.00    +0.000 HD
BRANCH  24  26
ATOM     26  CA  UNL     1      48.191   6.219  19.202  0.00  0.00    +0.000 C 
BRANCH  26  27
ATOM     27  C   UNL     1      48.253   4.989  18.292  0.00  0.00    +0.000 A 
ATOM     28  C   UNL     1      49.460   4.504  17.793  0.00  0.00    +0.000 A 
ATOM     29  N   UNL     1      49.553   3.389  17.027  0.00  0.00    +0.000 NA
ATOM     30  C   UNL     1      48.382   2.775  16.759  0.00  0.00    +0.000 A 
ATOM     31  C   UNL     1      47.171   3.265  17.211  0.00  0.00    +0.000 A 
ATOM     32  N   UNL     1      47.076   4.382  17.974  0.00  0.00    +0.000 NA
ENDBRANCH  26  27
BRANCH  26  33
ATOM     33  C   UNL     1      47.541   5.814  20.553  0.00  0.00    +0.000 C 
BRANCH  33  34
ATOM     34  O   UNL     1      47.887   4.490  20.967  0.00  0.00    +0.000 OA
ATOM     35  H   UNL     1      47.060   3.976  21.043  0.00  0.00    +0.000 HD
ENDBRANCH  33  34
ENDBRANCH  26  33
ENDBRANCH  24  26
ENDBRANCH  23  24
ENDBRANCH   5  23
TORSDOF 9
ENDMDL
