MODEL 1
REMARK VINA RESULT:    -7.511      0.000      0.000
REMARK INTER + INTRA:         -11.991
REMARK INTER:                 -10.805
REMARK INTRA:                  -1.186
REMARK UNBOUND:                -1.186
REMARK  Name = 
REMARK  9 active torsions:
REMARK  status: ('A' for Active; 'I' for Inactive)
REMARK    1  A    between atoms: C_1  and  O_2
REMARK    2  A    between atoms: O_2  and  C_3
REMARK    3  A    between atoms: C_6  and  O_7
REMARK    4  A    between atoms: O_7  and  C_8
REMARK    5  A    between atoms: C_8  and  C_9
REMARK    6  A    between atoms: C_9  and  C_10
REMARK    7  A    between atoms: C_14  and  C_15
REMARK    8  A    between atoms: C_15  and  N_16
REMARK    9  A    between atoms: C_19  and  C_20
REMARK                            x       y       z     vdW  Elec       q    Type
REMARK                         _______ _______ _______ _____ _____    ______ ____
ROOT
ATOM      1  C   UNL     1      47.567   5.938  13.200  0.00  0.00    +0.000 A 
ATOM      2  C   UNL     1      47.002   6.584  12.096  0.00  0.00    +0.000 A 
ATOM      3  C   UNL     1      45.726   6.241  11.640  0.00  0.00    +0.000 A 
ATOM      4  C   UNL     1      44.988   5.242  12.269  0.00  0.00    +0.000 A 
ATOM      5  C   UNL     1      45.541   4.601  13.379  0.00  0.00    +0.000 A 
ATOM      6  C   UNL     1      46.822   4.940  13.860  0.00  0.00    +0.000 A 
ENDROOT
BRANCH   6   7
ATOM      7  C   UNL     1      47.287   4.218  15.089  0.00  0.00    +0.000 C 
ATOM      8  N   UNL     1      47.309   4.895  16.272  0.00  0.00    +0.000 N 
ATOM      9  O   UNL     1      47.621   3.038  15.056  0.00  0.00    +0.000 OA
ATOM     10  H   UNL     1      47.093   5.883  16.318  0.00  0.00    +0.000 HD
ATOM     11  H   UNL     1      47.626   4.412  17.100  0.00  0.00    +0.000 HD
ENDBRANCH   6   7
BRANCH   1  13
ATOM     12  C   UNL     1      49.303   7.540  13.566  0.00  0.00    +0.000 C 
ATOM     13  O   UNL     1      48.844   6.194  13.635  0.00  0.00    +0.000 OA
ENDBRANCH   1  13
BRANCH   4  14
ATOM     14  O   UNL     1      43.743   4.814  11.892  0.00  0.00    +0.000 OA
BRANCH  14  15
ATOM     15  C   UNL     1      43.570   4.508  10.504  0.00  0.00    +0.000 C 
BRANCH  15  16
ATOM     16  C   UNL     1      44.084   3.097  10.217  0.00  0.00    +0.000 C 
BRANCH  16  17
ATOM     17  C   UNL     1      45.079   3.101   9.081  0.00  0.00    +0.000 A 
ATOM     18  C   UNL     1      45.445   4.300   8.459  0.00  0.00    +0.000 A 
ATOM     19  C   UNL     1      46.404   4.305   7.444  0.00  0.00    +0.000 A 
ATOM     20  C   UNL     1      47.013   3.114   7.049  0.00  0.00    +0.000 A 
ATOM     21  C   UNL     1      46.672   1.903   7.665  0.00  0.00    +0.000 A 
ATOM     22  C   UNL     1      45.697   1.910   8.676  0.00  0.00    +0.000 A 
BRANCH  21  23
ATOM     23  C   UNL     1      47.328   0.611   7.246  0.00  0.00    +0.000 C 
BRANCH  23  24
ATOM     24  N   UNL     1      46.596  -0.548   7.749  0.00  0.00    +0.000 NA
ATOM     25  H   UNL     1      46.461  -1.204   6.981  0.00  0.00    +0.000 HD
ATOM     26  H   UNL     1      45.667  -0.253   8.043  0.00  0.00    +0.000 HD
ENDBRANCH  23  24
ENDBRANCH  21  23
ENDBRANCH  16  17
ENDBRANCH  15  16
ENDBRANCH  14  15
ENDBRANCH   4  14
TORSDOF 8
ENDMDL
MODEL 2
REMARK VINA RESULT:    -7.075      1.896      2.626
REMARK INTER + INTRA:         -11.363
REMARK INTER:                 -10.066
REMARK INTRA:                  -1.297
REMARK UNBOUND:                -1.186
REMARK  Name = 
REMARK  9 active torsions:
REMARK  status: ('A' for Active; 'I' for Inactive)
REMARK    1  A    between atoms: C_1  and  O_2
REMARK    2  A    between atoms: O_2  and  C_3
REMARK    3  A    between atoms: C_6  and  O_7
REMARK    4  A    between atoms: O_7  and  C_8
REMARK    5  A    between atoms: C_8  and  C_9
REMARK    6  A    between atoms: C_9  and  C_10
REMARK    7  A    between atoms: C_14  and  C_15
REMARK    8  A    between atoms: C_15  and  N_16
REMARK    9  A    between atoms: C_19  and  C_20
REMARK                            x       y       z     vdW  Elec       q    Type
REMARK                         _______ _______ _______ _____ _____    ______ ____
ROOT
ATOM      1  C   UNL     1      46.977   6.385  13.234  0.00  0.00    +0.000 A 
ATOM      2  C   UNL     1      47.136   5.015  13.461  0.00  0.00    +0.000 A 
ATOM      3  C   UNL     1      46.076   4.127  13.261  0.00  0.00    +0.000 A 
ATOM      4  C   UNL     1      44.831   4.585  12.840  0.00  0.00    +0.000 A 
ATOM      5  C   UNL     1      44.667   5.950  12.600  0.00  0.00    +0.000 A 
ATOM      6  C   UNL     1      45.728   6.861  12.785  0.00  0.00    +0.000 A 
ENDROOT
BRANCH   6   7
ATOM      7  C   UNL     1      45.445   8.293  12.446  0.00  0.00    +0.000 C 
ATOM      8  N   UNL     1      45.963   9.266  13.248  0.00  0.00    +0.000 N 
ATOM      9  O   UNL     1      44.784   8.604  11.461  0.00  0.00    +0.000 OA
ATOM     10  H   UNL     1      46.464   9.037  14.097  0.00  0.00    +0.000 HD
ATOM     11  H   UNL     1      45.770  10.232  13.025  0.00  0.00    +0.000 HD
ENDBRANCH   6   7
BRANCH   1  13
ATOM     12  C   UNL     1      49.082   7.321  12.598  0.00  0.00    +0.000 C 
ATOM     13  O   UNL     1      47.970   7.299  13.486  0.00  0.00    +0.000 OA
ENDBRANCH   1  13
BRANCH   4  14
ATOM     14  O   UNL     1      43.722   3.806  12.636  0.00  0.00    +0.000 OA
BRANCH  14  15
ATOM     15  C   UNL     1      43.286   3.664  11.280  0.00  0.00    +0.000 C 
BRANCH  15  16
ATOM     16  C   UNL     1      43.968   2.453  10.642  0.00  0.00    +0.000 C 
BRANCH  16  17
ATOM     17  C   UNL     1      44.854   2.871   9.493  0.00  0.00    +0.000 A 
ATOM     18  C   UNL     1      45.006   4.222   9.165  0.00  0.00    +0.000 A 
ATOM     19  C   UNL     1      45.865   4.607   8.134  0.00  0.00    +0.000 A 
ATOM     20  C   UNL     1      46.589   3.645   7.428  0.00  0.00    +0.000 A 
ATOM     21  C   UNL     1      46.463   2.287   7.746  0.00  0.00    +0.000 A 
ATOM     22  C   UNL     1      45.585   1.912   8.776  0.00  0.00    +0.000 A 
BRANCH  21  23
ATOM     23  C   UNL     1      47.243   1.241   6.991  0.00  0.00    +0.000 C 
BRANCH  23  24
ATOM     24  N   UNL     1      48.441   1.806   6.377  0.00  0.00    +0.000 NA
ATOM     25  H   UNL     1      48.251   2.775   6.127  0.00  0.00    +0.000 HD
ATOM     26  H   UNL     1      48.632   1.315   5.506  0.00  0.00    +0.000 HD
ENDBRANCH  23  24
ENDBRANCH  21  23
ENDBRANCH  16  17
ENDBRANCH  15  16
ENDBRANCH  14  15
ENDBRANCH   4  14
TORSDOF 8
ENDMDL
MODEL 3
REMARK VINA RESULT:    -6.737      1.579      2.043
REMARK INTER + INTRA:         -10.877
REMARK INTER:                  -9.948
REMARK INTRA:                  -0.929
REMARK UNBOUND:                -1.186
REMARK  Name = 
REMARK  9 active torsions:
REMARK  status: ('A' for Active; 'I' for Inactive)
REMARK    1  A    between atoms: C_1  and  O_2
REMARK    2  A    between atoms: O_2  and  C_3
REMARK    3  A    between atoms: C_6  and  O_7
REMARK    4  A    between atoms: O_7  and  C_8
REMARK    5  A    between atoms: C_8  and  C_9
REMARK    6  A    between atoms: C_9  and  C_10
REMARK    7  A    between atoms: C_14  and  C_15
REMARK    8  A    between atoms: C_15  and  N_16
REMARK    9  A    between atoms: C_19  and  C_20
REMARK                            x       y       z     vdW  Elec       q    Type
REMARK                         _______ _______ _______ _____ _____    ______ ____
ROOT
ATOM      1  C   UNL     1      46.327   7.718  12.201  0.00  0.00    +0.000 A 
ATOM      2  C   UNL     1      45.109   7.650  11.518  0.00  0.00    +0.000 A 
ATOM      3  C   UNL     1      44.385   6.456  11.457  0.00  0.00    +0.000 A 
ATOM      4  C   UNL     1      44.864   5.300  12.067  0.00  0.00    +0.000 A 
ATOM      5  C   UNL     1      46.074   5.362  12.761  0.00  0.00    +0.000 A 
ATOM      6  C   UNL     1      46.812   6.561  12.843  0.00  0.00    +0.000 A 
ENDROOT
BRANCH   6   7
ATOM      7  C   UNL     1      48.069   6.516  13.658  0.00  0.00    +0.000 C 
ATOM      8  N   UNL     1      47.963   6.483  15.017  0.00  0.00    +0.000 N 
ATOM      9  O   UNL     1      49.177   6.484  13.133  0.00  0.00    +0.000 OA
ATOM     10  H   UNL     1      47.065   6.564  15.477  0.00  0.00    +0.000 HD
ATOM     11  H   UNL     1      48.809   6.457  15.569  0.00  0.00    +0.000 HD
ENDBRANCH   6   7
BRANCH   1  13
ATOM     12  C   UNL     1      46.432  10.105  12.165  0.00  0.00    +0.000 C 
ATOM     13  O   UNL     1      47.102   8.851  12.225  0.00  0.00    +0.000 OA
ENDBRANCH   1  13
BRANCH   4  14
ATOM     14  O   UNL     1      44.249   4.076  12.048  0.00  0.00    +0.000 OA
BRANCH  14  15
ATOM     15  C   UNL     1      43.591   3.714  10.830  0.00  0.00    +0.000 C 
BRANCH  15  16
ATOM     16  C   UNL     1      44.234   2.455  10.249  0.00  0.00    +0.000 C 
BRANCH  16  17
ATOM     17  C   UNL     1      45.155   2.795   9.101  0.00  0.00    +0.000 A 
ATOM     18  C   UNL     1      45.383   4.128   8.742  0.00  0.00    +0.000 A 
ATOM     19  C   UNL     1      46.275   4.440   7.714  0.00  0.00    +0.000 A 
ATOM     20  C   UNL     1      46.956   3.424   7.043  0.00  0.00    +0.000 A 
ATOM     21  C   UNL     1      46.753   2.083   7.393  0.00  0.00    +0.000 A 
ATOM     22  C   UNL     1      45.844   1.782   8.420  0.00  0.00    +0.000 A 
BRANCH  21  23
ATOM     23  C   UNL     1      47.487   0.977   6.675  0.00  0.00    +0.000 C 
BRANCH  23  24
ATOM     24  N   UNL     1      48.259   1.491   5.548  0.00  0.00    +0.000 NA
ATOM     25  H   UNL     1      48.203   0.820   4.783  0.00  0.00    +0.000 HD
ATOM     26  H   UNL     1      49.240   1.546   5.813  0.00  0.00    +0.000 HD
ENDBRANCH  23  24
ENDBRANCH  21  23
ENDBRANCH  16  17
ENDBRANCH  15  16
ENDBRANCH  14  15
ENDBRANCH   4  14
TORSDOF 8
ENDMDL
MODEL 4
REMARK VINA RESULT:    -6.627      1.689      2.788
REMARK INTER + INTRA:         -10.719
REMARK INTER:                  -9.908
REMARK INTRA:                  -0.812
REMARK UNBOUND:                -1.186
REMARK  Name = 
REMARK  9 active torsions:
REMARK  status: ('A' for Active; 'I' for Inactive)
REMARK    1  A    between atoms: C_1  and  O_2
REMARK    2  A    between atoms: O_2  and  C_3
REMARK    3  A    between atoms: C_6  and  O_7
REMARK    4  A    between atoms: O_7  and  C_8
REMARK    5  A    between atoms: C_8  and  C_9
REMARK    6  A    between atoms: C_9  and  C_10
REMARK    7  A    between atoms: C_14  and  C_15
REMARK    8  A    between atoms: C_15  and  N_16
REMARK    9  A    between atoms: C_19  and  C_20
REMARK                            x       y       z     vdW  Elec       q    Type
REMARK                         _______ _______ _______ _____ _____    ______ ____
ROOT
ATOM      1  C   UNL     1      47.023   4.970  13.758  0.00  0.00    +0.000 A 
ATOM      2  C   UNL     1      46.362   3.786  13.417  0.00  0.00    +0.000 A 
ATOM      3  C   UNL     1      45.383   3.773  12.419  0.00  0.00    +0.000 A 
ATOM      4  C   UNL     1      45.035   4.939  11.745  0.00  0.00    +0.000 A 
ATOM      5  C   UNL     1      45.700   6.123  12.070  0.00  0.00    +0.000 A 
ATOM      6  C   UNL     1      46.698   6.155  13.066  0.00  0.00    +0.000 A 
ENDROOT
BRANCH   6   7
ATOM      7  C   UNL     1      47.375   7.473  13.291  0.00  0.00    +0.000 C 
ATOM      8  N   UNL     1      46.696   8.447  13.960  0.00  0.00    +0.000 N 
ATOM      9  O   UNL     1      48.522   7.681  12.911  0.00  0.00    +0.000 OA
ATOM     10  H   UNL     1      45.730   8.322  14.235  0.00  0.00    +0.000 HD
ATOM     11  H   UNL     1      47.148   9.338  14.109  0.00  0.00    +0.000 HD
ENDBRANCH   6   7
BRANCH   1  13
ATOM     12  C   UNL     1      47.570   4.471  16.030  0.00  0.00    +0.000 C 
ATOM     13  O   UNL     1      47.938   5.041  14.778  0.00  0.00    +0.000 OA
ENDBRANCH   1  13
BRANCH   4  14
ATOM     14  O   UNL     1      44.078   5.041  10.770  0.00  0.00    +0.000 OA
BRANCH  14  15
ATOM     15  C   UNL     1      44.098   4.035   9.753  0.00  0.00    +0.000 C 
BRANCH  15  16
ATOM     16  C   UNL     1      45.066   4.441   8.642  0.00  0.00    +0.000 C 
BRANCH  16  17
ATOM     17  C   UNL     1      45.762   3.235   8.058  0.00  0.00    +0.000 A 
ATOM     18  C   UNL     1      45.712   1.998   8.711  0.00  0.00    +0.000 A 
ATOM     19  C   UNL     1      46.313   0.874   8.142  0.00  0.00    +0.000 A 
ATOM     20  C   UNL     1      46.960   0.972   6.910  0.00  0.00    +0.000 A 
ATOM     21  C   UNL     1      47.012   2.196   6.231  0.00  0.00    +0.000 A 
ATOM     22  C   UNL     1      46.415   3.323   6.821  0.00  0.00    +0.000 A 
BRANCH  21  23
ATOM     23  C   UNL     1      47.706   2.311   4.897  0.00  0.00    +0.000 C 
BRANCH  23  24
ATOM     24  N   UNL     1      47.618   1.066   4.139  0.00  0.00    +0.000 NA
ATOM     25  H   UNL     1      46.685   0.996   3.736  0.00  0.00    +0.000 HD
ATOM     26  H   UNL     1      47.717   0.280   4.778  0.00  0.00    +0.000 HD
ENDBRANCH  23  24
ENDBRANCH  21  23
ENDBRANCH  16  17
ENDBRANCH  15  16
ENDBRANCH  14  15
ENDBRANCH   4  14
TORSDOF 8
ENDMDL
MODEL 5
REMARK VINA RESULT:    -6.345      3.548      7.742
REMARK INTER + INTRA:         -10.313
REMARK INTER:                  -9.709
REMARK INTRA:                  -0.604
REMARK UNBOUND:                -1.186
REMARK  Name = 
REMARK  9 active torsions:
REMARK  status: ('A' for Active; 'I' for Inactive)
REMARK    1  A    between atoms: C_1  and  O_2
REMARK    2  A    between atoms: O_2  and  C_3
REMARK    3  A    between atoms: C_6  and  O_7
REMARK    4  A    between atoms: O_7  and  C_8
REMARK    5  A    between atoms: C_8  and  C_9
REMARK    6  A    between atoms: C_9  and  C_10
REMARK    7  A    between atoms: C_14  and  C_15
REMARK    8  A    between atoms: C_15  and  N_16
REMARK    9  A    between atoms: C_19  and  C_20
REMARK                            x       y       z     vdW  Elec       q    Type
REMARK                         _______ _______ _______ _____ _____    ______ ____
ROOT
ATOM      1  C   UNL     1      45.001   5.315  11.790  0.00  0.00    +0.000 A 
ATOM      2  C   UNL     1      45.854   6.037  12.630  0.00  0.00    +0.000 A 
ATOM      3  C   UNL     1      46.668   5.382  13.560  0.00  0.00    +0.000 A 
ATOM      4  C   UNL     1      46.641   3.996  13.680  0.00  0.00    +0.000 A 
ATOM      5  C   UNL     1      45.801   3.267  12.837  0.00  0.00    +0.000 A 
ATOM      6  C   UNL     1      44.981   3.908  11.885  0.00  0.00    +0.000 A 
ENDROOT
BRANCH   6   7
ATOM      7  C   UNL     1      44.160   3.017  11.003  0.00  0.00    +0.000 C 
ATOM      8  N   UNL     1      44.549   2.846   9.708  0.00  0.00    +0.000 N 
ATOM      9  O   UNL     1      43.170   2.427  11.425  0.00  0.00    +0.000 OA
ATOM     10  H   UNL     1      45.327   3.364   9.319  0.00  0.00    +0.000 HD
ATOM     11  H   UNL     1      43.995   2.250   9.110  0.00  0.00    +0.000 HD
ENDBRANCH   6   7
BRANCH   1  13
ATOM     12  C   UNL     1      42.856   6.297  11.410  0.00  0.00    +0.000 C 
ATOM     13  O   UNL     1      44.135   5.921  10.914  0.00  0.00    +0.000 OA
ENDBRANCH   1  13
BRANCH   4  14
ATOM     14  O   UNL     1      47.377   3.259  14.571  0.00  0.00    +0.000 OA
BRANCH  14  15
ATOM     15  C   UNL     1      47.499   3.797  15.892  0.00  0.00    +0.000 C 
BRANCH  15  16
ATOM     16  C   UNL     1      48.030   2.721  16.840  0.00  0.00    +0.000 C 
BRANCH  16  17
ATOM     17  C   UNL     1      49.481   2.965  17.179  0.00  0.00    +0.000 A 
ATOM     18  C   UNL     1      49.929   4.246  17.519  0.00  0.00    +0.000 A 
ATOM     19  C   UNL     1      51.261   4.456  17.881  0.00  0.00    +0.000 A 
ATOM     20  C   UNL     1      52.155   3.386  17.918  0.00  0.00    +0.000 A 
ATOM     21  C   UNL     1      51.728   2.092  17.594  0.00  0.00    +0.000 A 
ATOM     22  C   UNL     1      50.389   1.896  17.219  0.00  0.00    +0.000 A 
BRANCH  21  23
ATOM     23  C   UNL     1      52.687   0.929  17.635  0.00  0.00    +0.000 C 
BRANCH  23  24
ATOM     24  N   UNL     1      52.145  -0.184  18.409  0.00  0.00    +0.000 NA
ATOM     25  H   UNL     1      51.199   0.055  18.703  0.00  0.00    +0.000 HD
ATOM     26  H   UNL     1      52.693  -0.296  19.259  0.00  0.00    +0.000 HD
ENDBRANCH  23  24
ENDBRANCH  21  23
ENDBRANCH  16  17
ENDBRANCH  15  16
ENDBRANCH  14  15
ENDBRANCH   4  14
TORSDOF 8
ENDMDL
MODEL 6
REMARK VINA RESULT:    -6.197      3.609      7.496
REMARK INTER + INTRA:         -10.100
REMARK INTER:                  -8.641
REMARK INTRA:                  -1.459
REMARK UNBOUND:                -1.186
REMARK  Name = 
REMARK  9 active torsions:
REMARK  status: ('A' for Active; 'I' for Inactive)
REMARK    1  A    between atoms: C_1  and  O_2
REMARK    2  A    between atoms: O_2  and  C_3
REMARK    3  A    between atoms: C_6  and  O_7
REMARK    4  A    between atoms: O_7  and  C_8
REMARK    5  A    between atoms: C_8  and  C_9
REMARK    6  A    between atoms: C_9  and  C_10
REMARK    7  A    between atoms: C_14  and  C_15
REMARK    8  A    between atoms: C_15  and  N_16
REMARK    9  A    between atoms: C_19  and  C_20
REMARK                            x       y       z     vdW  Elec       q    Type
REMARK                         _______ _______ _______ _____ _____    ______ ____
ROOT
ATOM      1  C   UNL     1      45.071   5.804  12.936  0.00  0.00    +0.000 A 
ATOM      2  C   UNL     1      45.114   7.193  12.780  0.00  0.00    +0.000 A 
ATOM      3  C   UNL     1      46.310   7.896  12.951  0.00  0.00    +0.000 A 
ATOM      4  C   UNL     1      47.486   7.234  13.289  0.00  0.00    +0.000 A 
ATOM      5  C   UNL     1      47.454   5.846  13.434  0.00  0.00    +0.000 A 
ATOM      6  C   UNL     1      46.259   5.117  13.255  0.00  0.00    +0.000 A 
ENDROOT
BRANCH   6   7
ATOM      7  C   UNL     1      46.360   3.627  13.387  0.00  0.00    +0.000 C 
ATOM      8  N   UNL     1      45.561   2.848  12.605  0.00  0.00    +0.000 N 
ATOM      9  O   UNL     1      47.155   3.101  14.159  0.00  0.00    +0.000 OA
ATOM     10  H   UNL     1      44.857   3.255  12.001  0.00  0.00    +0.000 HD
ATOM     11  H   UNL     1      45.623   1.845  12.695  0.00  0.00    +0.000 HD
ENDBRANCH   6   7
BRANCH   1  13
ATOM     12  C   UNL     1      43.010   5.413  11.791  0.00  0.00    +0.000 C 
ATOM     13  O   UNL     1      43.905   5.084  12.847  0.00  0.00    +0.000 OA
ENDBRANCH   1  13
BRANCH   4  14
ATOM     14  O   UNL     1      48.702   7.827  13.501  0.00  0.00    +0.000 OA
BRANCH  14  15
ATOM     15  C   UNL     1      49.502   7.278  14.554  0.00  0.00    +0.000 C 
BRANCH  15  16
ATOM     16  C   UNL     1      49.298   8.089  15.834  0.00  0.00    +0.000 C 
BRANCH  16  17
ATOM     17  C   UNL     1      48.739   7.226  16.941  0.00  0.00    +0.000 A 
ATOM     18  C   UNL     1      48.255   7.804  18.120  0.00  0.00    +0.000 A 
ATOM     19  C   UNL     1      47.693   7.006  19.119  0.00  0.00    +0.000 A 
ATOM     20  C   UNL     1      47.600   5.625  18.944  0.00  0.00    +0.000 A 
ATOM     21  C   UNL     1      48.067   5.025  17.768  0.00  0.00    +0.000 A 
ATOM     22  C   UNL     1      48.642   5.837  16.776  0.00  0.00    +0.000 A 
BRANCH  21  23
ATOM     23  C   UNL     1      47.967   3.533  17.569  0.00  0.00    +0.000 C 
BRANCH  23  24
ATOM     24  N   UNL     1      46.579   3.104  17.427  0.00  0.00    +0.000 NA
ATOM     25  H   UNL     1      46.193   2.940  18.355  0.00  0.00    +0.000 HD
ATOM     26  H   UNL     1      46.555   2.209  16.942  0.00  0.00    +0.000 HD
ENDBRANCH  23  24
ENDBRANCH  21  23
ENDBRANCH  16  17
ENDBRANCH  15  16
ENDBRANCH  14  15
ENDBRANCH   4  14
TORSDOF 8
ENDMDL
MODEL 7
REMARK VINA RESULT:    -5.952      2.166      3.338
REMARK INTER + INTRA:          -9.748
REMARK INTER:                  -8.897
REMARK INTRA:                  -0.851
REMARK UNBOUND:                -1.186
REMARK  Name = 
REMARK  9 active torsions:
REMARK  status: ('A' for Active; 'I' for Inactive)
REMARK    1  A    between atoms: C_1  and  O_2
REMARK    2  A    between atoms: O_2  and  C_3
REMARK    3  A    between atoms: C_6  and  O_7
REMARK    4  A    between atoms: O_7  and  C_8
REMARK    5  A    between atoms: C_8  and  C_9
REMARK    6  A    between atoms: C_9  and  C_10
REMARK    7  A    between atoms: C_14  and  C_15
REMARK    8  A    between atoms: C_15  and  N_16
REMARK    9  A    between atoms: C_19  and  C_20
REMARK                            x       y       z     vdW  Elec       q    Type
REMARK                         _______ _______ _______ _____ _____    ______ ____
ROOT
ATOM      1  C   UNL     1      48.948   5.758  16.309  0.00  0.00    +0.000 A 
ATOM      2  C   UNL     1      49.230   6.885  15.531  0.00  0.00    +0.000 A 
ATOM      3  C   UNL     1      48.592   7.086  14.303  0.00  0.00    +0.000 A 
ATOM      4  C   UNL     1      47.667   6.165  13.820  0.00  0.00    +0.000 A 
ATOM      5  C   UNL     1      47.372   5.043  14.596  0.00  0.00    +0.000 A 
ATOM      6  C   UNL     1      47.996   4.828  15.843  0.00  0.00    +0.000 A 
ENDROOT
BRANCH   6   7
ATOM      7  C   UNL     1      47.560   3.615  16.607  0.00  0.00    +0.000 C 
ATOM      8  N   UNL     1      48.469   2.625  16.830  0.00  0.00    +0.000 N 
ATOM      9  O   UNL     1      46.422   3.508  17.052  0.00  0.00    +0.000 OA
ATOM     10  H   UNL     1      49.397   2.661  16.427  0.00  0.00    +0.000 HD
ATOM     11  H   UNL     1      48.177   1.804  17.341  0.00  0.00    +0.000 HD
ENDBRANCH   6   7
BRANCH   1  13
ATOM     12  C   UNL     1      51.002   5.238  17.414  0.00  0.00    +0.000 C 
ATOM     13  O   UNL     1      49.603   5.486  17.485  0.00  0.00    +0.000 OA
ENDBRANCH   1  13
BRANCH   4  14
ATOM     14  O   UNL     1      47.005   6.254  12.624  0.00  0.00    +0.000 OA
BRANCH  14  15
ATOM     15  C   UNL     1      45.592   6.023  12.662  0.00  0.00    +0.000 C 
BRANCH  15  16
ATOM     16  C   UNL     1      45.002   6.201  11.263  0.00  0.00    +0.000 C 
BRANCH  16  17
ATOM     17  C   UNL     1      44.892   4.876  10.547  0.00  0.00    +0.000 A 
ATOM     18  C   UNL     1      44.199   3.808  11.128  0.00  0.00    +0.000 A 
ATOM     19  C   UNL     1      44.056   2.601  10.440  0.00  0.00    +0.000 A 
ATOM     20  C   UNL     1      44.594   2.455   9.161  0.00  0.00    +0.000 A 
ATOM     21  C   UNL     1      45.281   3.513   8.554  0.00  0.00    +0.000 A 
ATOM     22  C   UNL     1      45.429   4.718   9.262  0.00  0.00    +0.000 A 
BRANCH  21  23
ATOM     23  C   UNL     1      45.863   3.365   7.170  0.00  0.00    +0.000 C 
BRANCH  23  24
ATOM     24  N   UNL     1      46.977   4.285   6.958  0.00  0.00    +0.000 NA
ATOM     25  H   UNL     1      47.590   4.246   7.771  0.00  0.00    +0.000 HD
ATOM     26  H   UNL     1      46.619   5.237   6.911  0.00  0.00    +0.000 HD
ENDBRANCH  23  24
ENDBRANCH  21  23
ENDBRANCH  16  17
ENDBRANCH  15  16
ENDBRANCH  14  15
ENDBRANCH   4  14
TORSDOF 8
ENDMDL
MODEL 8
REMARK VINA RESULT:    -5.770      2.610      7.356
REMARK INTER + INTRA:          -9.485
REMARK INTER:                  -8.600
REMARK INTRA:                  -0.886
REMARK UNBOUND:                -1.186
REMARK  Name = 
REMARK  9 active torsions:
REMARK  status: ('A' for Active; 'I' for Inactive)
REMARK    1  A    between atoms: C_1  and  O_2
REMARK    2  A    between atoms: O_2  and  C_3
REMARK    3  A    between atoms: C_6  and  O_7
REMARK    4  A    between atoms: O_7  and  C_8
REMARK    5  A    between atoms: C_8  and  C_9
REMARK    6  A    between atoms: C_9  and  C_10
REMARK    7  A    between atoms: C_14  and  C_15
REMARK    8  A    between atoms: C_15  and  N_16
REMARK    9  A    between atoms: C_19  and  C_20
REMARK                            x       y       z     vdW  Elec       q    Type
REMARK                         _______ _______ _______ _____ _____    ______ ____
ROOT
ATOM      1  C   UNL     1      44.847   4.906  10.852  0.00  0.00    +0.000 A 
ATOM      2  C   UNL     1      45.860   5.764  10.413  0.00  0.00    +0.000 A 
ATOM      3  C   UNL     1      46.620   6.502  11.326  0.00  0.00    +0.000 A 
ATOM      4  C   UNL     1      46.382   6.407  12.694  0.00  0.00    +0.000 A 
ATOM      5  C   UNL     1      45.381   5.543  13.140  0.00  0.00    +0.000 A 
ATOM      6  C   UNL     1      44.611   4.783  12.236  0.00  0.00    +0.000 A 
ENDROOT
BRANCH   6   7
ATOM      7  C   UNL     1      43.600   3.853  12.837  0.00  0.00    +0.000 C 
ATOM      8  N   UNL     1      43.662   2.530  12.518  0.00  0.00    +0.000 N 
ATOM      9  O   UNL     1      42.744   4.251  13.620  0.00  0.00    +0.000 OA
ATOM     10  H   UNL     1      44.321   2.184  11.832  0.00  0.00    +0.000 HD
ATOM     11  H   UNL     1      42.979   1.902  12.917  0.00  0.00    +0.000 HD
ENDBRANCH   6   7
BRANCH   1  13
ATOM     12  C   UNL     1      44.648   3.294   9.099  0.00  0.00    +0.000 C 
ATOM     13  O   UNL     1      44.031   4.219   9.987  0.00  0.00    +0.000 OA
ENDBRANCH   1  13
BRANCH   4  14
ATOM     14  O   UNL     1      47.050   7.100  13.668  0.00  0.00    +0.000 OA
BRANCH  14  15
ATOM     15  C   UNL     1      48.371   6.644  13.980  0.00  0.00    +0.000 C 
BRANCH  15  16
ATOM     16  C   UNL     1      48.838   7.271  15.294  0.00  0.00    +0.000 C 
BRANCH  16  17
ATOM     17  C   UNL     1      49.259   6.211  16.284  0.00  0.00    +0.000 A 
ATOM     18  C   UNL     1      50.404   6.383  17.069  0.00  0.00    +0.000 A 
ATOM     19  C   UNL     1      50.760   5.424  18.019  0.00  0.00    +0.000 A 
ATOM     20  C   UNL     1      49.969   4.289  18.200  0.00  0.00    +0.000 A 
ATOM     21  C   UNL     1      48.812   4.100  17.435  0.00  0.00    +0.000 A 
ATOM     22  C   UNL     1      48.472   5.066  16.473  0.00  0.00    +0.000 A 
BRANCH  21  23
ATOM     23  C   UNL     1      47.949   2.878  17.626  0.00  0.00    +0.000 C 
BRANCH  23  24
ATOM     24  N   UNL     1      46.530   3.202  17.515  0.00  0.00    +0.000 NA
ATOM     25  H   UNL     1      46.439   4.195  17.307  0.00  0.00    +0.000 HD
ATOM     26  H   UNL     1      46.083   3.054  18.417  0.00  0.00    +0.000 HD
ENDBRANCH  23  24
ENDBRANCH  21  23
ENDBRANCH  16  17
ENDBRANCH  15  16
ENDBRANCH  14  15
ENDBRANCH   4  14
TORSDOF 8
ENDMDL
MODEL 9
REMARK VINA RESULT:    -5.756      3.945      7.578
REMARK INTER + INTRA:          -9.467
REMARK INTER:                  -8.477
REMARK INTRA:                  -0.989
REMARK UNBOUND:                -1.186
REMARK  Name = 
REMARK  9 active torsions:
REMARK  status: ('A' for Active; 'I' for Inactive)
REMARK    1  A    between atoms: C_1  and  O_2
REMARK    2  A    between atoms: O_2  and  C_3
REMARK    3  A    between atoms: C_6  and  O_7
REMARK    4  A    between atoms: O_7  and  C_8
REMARK    5  A    between atoms: C_8  and  C_9
REMARK    6  A    between atoms: C_9  and  C_10
REMARK    7  A    between atoms: C_14  and  C_15
REMARK    8  A    between atoms: C_15  and  N_16
REMARK    9  A    between atoms: C_19  and  C_20
REMARK                            x       y       z     vdW  Elec       q    Type
REMARK                         _______ _______ _______ _____ _____    ______ ____
ROOT
ATOM      1  C   UNL     1      44.650   5.827  12.736  0.00  0.00    +0.000 A 
ATOM      2  C   UNL     1      45.299   4.713  13.278  0.00  0.00    +0.000 A 
ATOM      3  C   UNL     1      46.659   4.759  13.595  0.00  0.00    +0.000 A 
ATOM      4  C   UNL     1      47.406   5.912  13.370  0.00  0.00    +0.000 A 
ATOM      5  C   UNL     1      46.763   7.032  12.840  0.00  0.00    +0.000 A 
ATOM      6  C   UNL     1      45.389   7.009  12.524  0.00  0.00    +0.000 A 
ENDROOT
BRANCH   6   7
ATOM      7  C   UNL     1      44.800   8.287  12.009  0.00  0.00    +0.000 C 
ATOM      8  N   UNL     1      43.859   8.221  11.026  0.00  0.00    +0.000 N 
ATOM      9  O   UNL     1      45.128   9.378  12.465  0.00  0.00    +0.000 OA
ATOM     10  H   UNL     1      43.611   7.340  10.592  0.00  0.00    +0.000 HD
ATOM     11  H   UNL     1      43.464   9.081  10.673  0.00  0.00    +0.000 HD
ENDBRANCH   6   7
BRANCH   1  13
ATOM     12  C   UNL     1      42.904   4.694  11.561  0.00  0.00    +0.000 C 
ATOM     13  O   UNL     1      43.334   5.801  12.345  0.00  0.00    +0.000 OA
ENDBRANCH   1  13
BRANCH   4  14
ATOM     14  O   UNL     1      48.745   6.056  13.621  0.00  0.00    +0.000 OA
BRANCH  14  15
ATOM     15  C   UNL     1      49.156   7.311  14.174  0.00  0.00    +0.000 C 
BRANCH  15  16
ATOM     16  C   UNL     1      48.836   7.348  15.668  0.00  0.00    +0.000 C 
BRANCH  16  17
ATOM     17  C   UNL     1      49.364   6.119  16.368  0.00  0.00    +0.000 A 
ATOM     18  C   UNL     1      50.717   6.020  16.712  0.00  0.00    +0.000 A 
ATOM     19  C   UNL     1      51.191   4.904  17.404  0.00  0.00    +0.000 A 
ATOM     20  C   UNL     1      50.315   3.881  17.769  0.00  0.00    +0.000 A 
ATOM     21  C   UNL     1      48.955   3.962  17.446  0.00  0.00    +0.000 A 
ATOM     22  C   UNL     1      48.493   5.084  16.738  0.00  0.00    +0.000 A 
BRANCH  21  23
ATOM     23  C   UNL     1      48.000   2.863  17.839  0.00  0.00    +0.000 C 
BRANCH  23  24
ATOM     24  N   UNL     1      46.624   3.199  17.488  0.00  0.00    +0.000 NA
ATOM     25  H   UNL     1      46.237   3.791  18.222  0.00  0.00    +0.000 HD
ATOM     26  H   UNL     1      46.065   2.348  17.480  0.00  0.00    +0.000 HD
ENDBRANCH  23  24
ENDBRANCH  21  23
ENDBRANCH  16  17
ENDBRANCH  15  16
ENDBRANCH  14  15
ENDBRANCH   4  14
TORSDOF 8
ENDMDL
