MODEL 1
REMARK VINA RESULT:    -7.235      0.000      0.000
REMARK INTER + INTRA:         -10.395
REMARK INTER:                  -9.350
REMARK INTRA:                  -1.045
REMARK UNBOUND:                -1.045
REMARK  Name = 
REMARK  5 active torsions:
REMARK  status: ('A' for Active; 'I' for Inactive)
REMARK    1  A    between atoms: C_2  and  C_3
REMARK    2  A    between atoms: C_6  and  O_7
REMARK    3  A    between atoms: O_7  and  C_8
REMARK    4  A    between atoms: C_8  and  C_9
REMARK    5  A    between atoms: C_13  and  C_14
REMARK                            x       y       z     vdW  Elec       q    Type
REMARK                         _______ _______ _______ _____ _____    ______ ____
ROOT
ATOM      1  C   UNL     1      43.881   5.166  11.614  0.00  0.00    +0.000 C 
ATOM      2  C   UNL     1      42.454   5.381  12.079  0.00  0.00    +0.000 C 
ATOM      3  C   UNL     1      43.031   6.282  11.043  0.00  0.00    +0.000 C 
ENDROOT
BRANCH   1   4
ATOM      4  C   UNL     1      45.090   5.491  12.469  0.00  0.00    +0.000 A 
ATOM      5  C   UNL     1      45.625   4.512  13.315  0.00  0.00    +0.000 A 
ATOM      6  C   UNL     1      46.911   4.638  13.830  0.00  0.00    +0.000 A 
ATOM      7  C   UNL     1      47.693   5.747  13.497  0.00  0.00    +0.000 A 
ATOM      8  C   UNL     1      47.196   6.774  12.680  0.00  0.00    +0.000 A 
ATOM      9  C   UNL     1      45.865   6.649  12.238  0.00  0.00    +0.000 A 
BRANCH   8  10
ATOM     10  C   UNL     1      48.072   7.863  12.178  0.00  0.00    +0.000 A 
ATOM     11  C   UNL     1      47.596   9.188  12.110  0.00  0.00    +0.000 A 
ATOM     12  C   UNL     1      48.417  10.244  11.703  0.00  0.00    +0.000 A 
ATOM     13  C   UNL     1      49.742  10.002  11.368  0.00  0.00    +0.000 A 
ATOM     14  C   UNL     1      50.246   8.705  11.430  0.00  0.00    +0.000 A 
ATOM     15  C   UNL     1      49.416   7.647  11.826  0.00  0.00    +0.000 A 
ENDBRANCH   8  10
ENDBRANCH   1   4
BRANCH   1  16
ATOM     16  O   UNL     1      43.979   3.880  10.955  0.00  0.00    +0.000 OA
BRANCH  16  20
ATOM     17  C   UNL     1      46.171   3.120   7.612  0.00  0.00    +0.000 A 
ATOM     18  C   UNL     1      46.076   4.452   7.986  0.00  0.00    +0.000 A 
ATOM     19  C   UNL     1      45.401   4.754   9.159  0.00  0.00    +0.000 A 
ATOM     20  C   UNL     1      44.824   3.732   9.899  0.00  0.00    +0.000 A 
ATOM     21  C   UNL     1      45.065   2.424   9.500  0.00  0.00    +0.000 A 
ATOM     22  N   UNL     1      45.719   2.089   8.367  0.00  0.00    +0.000 NA
BRANCH  17  24
ATOM     23  N   UNL     1      47.030   2.502   5.239  0.00  0.00    +0.000 NA
ATOM     24  C   UNL     1      46.679   2.774   6.321  0.00  0.00    +0.000 C 
ENDBRANCH  17  24
ENDBRANCH  16  20
ENDBRANCH   1  16
TORSDOF 5
ENDMDL
MODEL 2
REMARK VINA RESULT:    -7.139      1.814      3.693
REMARK INTER + INTRA:         -10.271
REMARK INTER:                 -10.274
REMARK INTRA:                   0.003
REMARK UNBOUND:                -1.045
REMARK  Name = 
REMARK  5 active torsions:
REMARK  status: ('A' for Active; 'I' for Inactive)
REMARK    1  A    between atoms: C_2  and  C_3
REMARK    2  A    between atoms: C_6  and  O_7
REMARK    3  A    between atoms: O_7  and  C_8
REMARK    4  A    between atoms: C_8  and  C_9
REMARK    5  A    between atoms: C_13  and  C_14
REMARK                            x       y       z     vdW  Elec       q    Type
REMARK                         _______ _______ _______ _____ _____    ______ ____
ROOT
ATOM      1  C   UNL     1      43.970   4.737  11.652  0.00  0.00    +0.000 C 
ATOM      2  C   UNL     1      43.280   3.566  12.324  0.00  0.00    +0.000 C 
ATOM      3  C   UNL     1      42.866   4.955  12.667  0.00  0.00    +0.000 C 
ENDROOT
BRANCH   1   4
ATOM      4  C   UNL     1      45.391   5.158  11.970  0.00  0.00    +0.000 A 
ATOM      5  C   UNL     1      45.968   6.232  11.281  0.00  0.00    +0.000 A 
ATOM      6  C   UNL     1      47.101   6.870  11.774  0.00  0.00    +0.000 A 
ATOM      7  C   UNL     1      47.673   6.452  12.978  0.00  0.00    +0.000 A 
ATOM      8  C   UNL     1      47.156   5.361  13.693  0.00  0.00    +0.000 A 
ATOM      9  C   UNL     1      46.055   4.691  13.127  0.00  0.00    +0.000 A 
BRANCH   8  10
ATOM     10  C   UNL     1      47.645   5.020  15.053  0.00  0.00    +0.000 A 
ATOM     11  C   UNL     1      48.448   5.929  15.772  0.00  0.00    +0.000 A 
ATOM     12  C   UNL     1      48.871   5.664  17.078  0.00  0.00    +0.000 A 
ATOM     13  C   UNL     1      48.485   4.487  17.705  0.00  0.00    +0.000 A 
ATOM     14  C   UNL     1      47.687   3.570  17.025  0.00  0.00    +0.000 A 
ATOM     15  C   UNL     1      47.276   3.834  15.712  0.00  0.00    +0.000 A 
ENDBRANCH   8  10
ENDBRANCH   1   4
BRANCH   1  16
ATOM     16  O   UNL     1      43.691   4.704  10.231  0.00  0.00    +0.000 OA
BRANCH  16  20
ATOM     17  C   UNL     1      46.228   2.566   7.876  0.00  0.00    +0.000 A 
ATOM     18  C   UNL     1      45.498   1.836   8.801  0.00  0.00    +0.000 A 
ATOM     19  C   UNL     1      44.566   2.509   9.576  0.00  0.00    +0.000 A 
ATOM     20  C   UNL     1      44.415   3.880   9.425  0.00  0.00    +0.000 A 
ATOM     21  C   UNL     1      45.113   4.503   8.400  0.00  0.00    +0.000 A 
ATOM     22  N   UNL     1      46.026   3.882   7.623  0.00  0.00    +0.000 NA
BRANCH  17  24
ATOM     23  N   UNL     1      48.208   1.492   6.581  0.00  0.00    +0.000 NA
ATOM     24  C   UNL     1      47.331   1.962   7.197  0.00  0.00    +0.000 C 
ENDBRANCH  17  24
ENDBRANCH  16  20
ENDBRANCH   1  16
TORSDOF 5
ENDMDL
MODEL 3
REMARK VINA RESULT:    -6.831      3.274      7.044
REMARK INTER + INTRA:          -9.873
REMARK INTER:                  -9.135
REMARK INTRA:                  -0.737
REMARK UNBOUND:                -1.045
REMARK  Name = 
REMARK  5 active torsions:
REMARK  status: ('A' for Active; 'I' for Inactive)
REMARK    1  A    between atoms: C_2  and  C_3
REMARK    2  A    between atoms: C_6  and  O_7
REMARK    3  A    between atoms: O_7  and  C_8
REMARK    4  A    between atoms: C_8  and  C_9
REMARK    5  A    between atoms: C_13  and  C_14
REMARK                            x       y       z     vdW  Elec       q    Type
REMARK                         _______ _______ _______ _____ _____    ______ ____
ROOT
ATOM      1  C   UNL     1      46.352   7.081  12.528  0.00  0.00    +0.000 C 
ATOM      2  C   UNL     1      46.651   8.432  11.906  0.00  0.00    +0.000 C 
ATOM      3  C   UNL     1      45.838   8.362  13.153  0.00  0.00    +0.000 C 
ENDROOT
BRANCH   1   4
ATOM      4  C   UNL     1      45.382   6.086  11.923  0.00  0.00    +0.000 A 
ATOM      5  C   UNL     1      44.004   6.316  12.016  0.00  0.00    +0.000 A 
ATOM      6  C   UNL     1      43.111   5.645  11.187  0.00  0.00    +0.000 A 
ATOM      7  C   UNL     1      43.583   4.735  10.239  0.00  0.00    +0.000 A 
ATOM      8  C   UNL     1      44.951   4.441  10.125  0.00  0.00    +0.000 A 
ATOM      9  C   UNL     1      45.818   5.082  11.029  0.00  0.00    +0.000 A 
BRANCH   8  10
ATOM     10  C   UNL     1      45.479   3.614   9.011  0.00  0.00    +0.000 A 
ATOM     11  C   UNL     1      46.053   4.225   7.877  0.00  0.00    +0.000 A 
ATOM     12  C   UNL     1      46.616   3.473   6.842  0.00  0.00    +0.000 A 
ATOM     13  C   UNL     1      46.633   2.087   6.922  0.00  0.00    +0.000 A 
ATOM     14  C   UNL     1      46.080   1.452   8.031  0.00  0.00    +0.000 A 
ATOM     15  C   UNL     1      45.506   2.209   9.061  0.00  0.00    +0.000 A 
ENDBRANCH   8  10
ENDBRANCH   1   4
BRANCH   1  16
ATOM     16  O   UNL     1      47.592   6.474  12.966  0.00  0.00    +0.000 OA
BRANCH  16  20
ATOM     17  C   UNL     1      47.973   4.608  16.561  0.00  0.00    +0.000 A 
ATOM     18  C   UNL     1      48.642   5.814  16.430  0.00  0.00    +0.000 A 
ATOM     19  C   UNL     1      48.483   6.524  15.249  0.00  0.00    +0.000 A 
ATOM     20  C   UNL     1      47.693   5.999  14.237  0.00  0.00    +0.000 A 
ATOM     21  C   UNL     1      46.980   4.838  14.504  0.00  0.00    +0.000 A 
ATOM     22  N   UNL     1      47.105   4.121  15.641  0.00  0.00    +0.000 NA
BRANCH  17  24
ATOM     23  N   UNL     1      48.458   3.092  18.615  0.00  0.00    +0.000 NA
ATOM     24  C   UNL     1      48.257   3.748  17.668  0.00  0.00    +0.000 C 
ENDBRANCH  17  24
ENDBRANCH  16  20
ENDBRANCH   1  16
TORSDOF 5
ENDMDL
MODEL 4
REMARK VINA RESULT:    -6.266      4.207      7.874
REMARK INTER + INTRA:          -9.143
REMARK INTER:                  -8.093
REMARK INTRA:                  -1.049
REMARK UNBOUND:                -1.045
REMARK  Name = 
REMARK  5 active torsions:
REMARK  status: ('A' for Active; 'I' for Inactive)
REMARK    1  A    between atoms: C_2  and  C_3
REMARK    2  A    between atoms: C_6  and  O_7
REMARK    3  A    between atoms: O_7  and  C_8
REMARK    4  A    between atoms: C_8  and  C_9
REMARK    5  A    between atoms: C_13  and  C_14
REMARK                            x       y       z     vdW  Elec       q    Type
REMARK                         _______ _______ _______ _____ _____    ______ ____
ROOT
ATOM      1  C   UNL     1      48.740   7.459  13.140  0.00  0.00    +0.000 C 
ATOM      2  C   UNL     1      49.805   7.697  12.087  0.00  0.00    +0.000 C 
ATOM      3  C   UNL     1      49.403   8.813  12.988  0.00  0.00    +0.000 C 
ENDROOT
BRANCH   1   4
ATOM      4  C   UNL     1      47.270   7.289  12.810  0.00  0.00    +0.000 A 
ATOM      5  C   UNL     1      46.405   8.386  12.915  0.00  0.00    +0.000 A 
ATOM      6  C   UNL     1      45.161   8.374  12.293  0.00  0.00    +0.000 A 
ATOM      7  C   UNL     1      44.762   7.266  11.543  0.00  0.00    +0.000 A 
ATOM      8  C   UNL     1      45.575   6.128  11.431  0.00  0.00    +0.000 A 
ATOM      9  C   UNL     1      46.795   6.144  12.134  0.00  0.00    +0.000 A 
BRANCH   8  10
ATOM     10  C   UNL     1      45.243   5.022  10.498  0.00  0.00    +0.000 A 
ATOM     11  C   UNL     1      45.681   5.061   9.159  0.00  0.00    +0.000 A 
ATOM     12  C   UNL     1      45.437   4.006   8.274  0.00  0.00    +0.000 A 
ATOM     13  C   UNL     1      44.762   2.875   8.713  0.00  0.00    +0.000 A 
ATOM     14  C   UNL     1      44.322   2.802  10.032  0.00  0.00    +0.000 A 
ATOM     15  C   UNL     1      44.556   3.867  10.912  0.00  0.00    +0.000 A 
ENDBRANCH   8  10
ENDBRANCH   1   4
BRANCH   1  16
ATOM     16  O   UNL     1      49.226   6.486  14.096  0.00  0.00    +0.000 OA
BRANCH  16  20
ATOM     17  C   UNL     1      48.200   6.239  18.025  0.00  0.00    +0.000 A 
ATOM     18  C   UNL     1      48.640   7.479  17.590  0.00  0.00    +0.000 A 
ATOM     19  C   UNL     1      48.931   7.633  16.243  0.00  0.00    +0.000 A 
ATOM     20  C   UNL     1      48.803   6.547  15.388  0.00  0.00    +0.000 A 
ATOM     21  C   UNL     1      48.254   5.379  15.898  0.00  0.00    +0.000 A 
ATOM     22  N   UNL     1      47.955   5.192  17.201  0.00  0.00    +0.000 NA
BRANCH  17  24
ATOM     23  N   UNL     1      47.909   5.743  20.560  0.00  0.00    +0.000 NA
ATOM     24  C   UNL     1      48.077   5.974  19.425  0.00  0.00    +0.000 C 
ENDBRANCH  17  24
ENDBRANCH  16  20
ENDBRANCH   1  16
TORSDOF 5
ENDMDL
MODEL 5
REMARK VINA RESULT:    -6.009      3.364      5.905
REMARK INTER + INTRA:          -8.811
REMARK INTER:                  -7.931
REMARK INTRA:                  -0.880
REMARK UNBOUND:                -1.045
REMARK  Name = 
REMARK  5 active torsions:
REMARK  status: ('A' for Active; 'I' for Inactive)
REMARK    1  A    between atoms: C_2  and  C_3
REMARK    2  A    between atoms: C_6  and  O_7
REMARK    3  A    between atoms: O_7  and  C_8
REMARK    4  A    between atoms: C_8  and  C_9
REMARK    5  A    between atoms: C_13  and  C_14
REMARK                            x       y       z     vdW  Elec       q    Type
REMARK                         _______ _______ _______ _____ _____    ______ ____
ROOT
ATOM      1  C   UNL     1      48.012   8.135  12.791  0.00  0.00    +0.000 C 
ATOM      2  C   UNL     1      48.468   9.165  11.776  0.00  0.00    +0.000 C 
ATOM      3  C   UNL     1      48.931   7.755  11.648  0.00  0.00    +0.000 C 
ENDROOT
BRANCH   1   4
ATOM      4  C   UNL     1      48.517   8.097  14.220  0.00  0.00    +0.000 A 
ATOM      5  C   UNL     1      48.280   9.185  15.069  0.00  0.00    +0.000 A 
ATOM      6  C   UNL     1      48.398   9.053  16.448  0.00  0.00    +0.000 A 
ATOM      7  C   UNL     1      48.745   7.820  17.007  0.00  0.00    +0.000 A 
ATOM      8  C   UNL     1      49.024   6.706  16.202  0.00  0.00    +0.000 A 
ATOM      9  C   UNL     1      48.969   6.895  14.809  0.00  0.00    +0.000 A 
BRANCH   8  10
ATOM     10  C   UNL     1      49.221   5.354  16.786  0.00  0.00    +0.000 A 
ATOM     11  C   UNL     1      48.170   4.414  16.778  0.00  0.00    +0.000 A 
ATOM     12  C   UNL     1      48.343   3.114  17.262  0.00  0.00    +0.000 A 
ATOM     13  C   UNL     1      49.580   2.716  17.752  0.00  0.00    +0.000 A 
ATOM     14  C   UNL     1      50.640   3.618  17.768  0.00  0.00    +0.000 A 
ATOM     15  C   UNL     1      50.459   4.925  17.294  0.00  0.00    +0.000 A 
ENDBRANCH   8  10
ENDBRANCH   1   4
BRANCH   1  16
ATOM     16  O   UNL     1      46.576   7.971  12.690  0.00  0.00    +0.000 OA
BRANCH  16  20
ATOM     17  C   UNL     1      44.701   4.438  11.948  0.00  0.00    +0.000 A 
ATOM     18  C   UNL     1      45.056   5.181  10.834  0.00  0.00    +0.000 A 
ATOM     19  C   UNL     1      45.763   6.358  11.033  0.00  0.00    +0.000 A 
ATOM     20  C   UNL     1      46.064   6.764  12.325  0.00  0.00    +0.000 A 
ATOM     21  C   UNL     1      45.759   5.900  13.367  0.00  0.00    +0.000 A 
ATOM     22  N   UNL     1      45.076   4.745  13.214  0.00  0.00    +0.000 NA
BRANCH  17  24
ATOM     23  N   UNL     1      43.048   2.454  11.647  0.00  0.00    +0.000 NA
ATOM     24  C   UNL     1      43.807   3.329  11.814  0.00  0.00    +0.000 C 
ENDBRANCH  17  24
ENDBRANCH  16  20
ENDBRANCH   1  16
TORSDOF 5
ENDMDL
MODEL 6
REMARK VINA RESULT:    -6.004      3.135      6.648
REMARK INTER + INTRA:          -8.805
REMARK INTER:                  -7.817
REMARK INTRA:                  -0.987
REMARK UNBOUND:                -1.045
REMARK  Name = 
REMARK  5 active torsions:
REMARK  status: ('A' for Active; 'I' for Inactive)
REMARK    1  A    between atoms: C_2  and  C_3
REMARK    2  A    between atoms: C_6  and  O_7
REMARK    3  A    between atoms: O_7  and  C_8
REMARK    4  A    between atoms: C_8  and  C_9
REMARK    5  A    between atoms: C_13  and  C_14
REMARK                            x       y       z     vdW  Elec       q    Type
REMARK                         _______ _______ _______ _____ _____    ______ ____
ROOT
ATOM      1  C   UNL     1      46.070   5.040  13.372  0.00  0.00    +0.000 C 
ATOM      2  C   UNL     1      46.185   4.300  14.691  0.00  0.00    +0.000 C 
ATOM      3  C   UNL     1      47.296   4.213  13.702  0.00  0.00    +0.000 C 
ENDROOT
BRANCH   1   4
ATOM      4  C   UNL     1      45.138   4.609  12.257  0.00  0.00    +0.000 A 
ATOM      5  C   UNL     1      43.891   5.230  12.116  0.00  0.00    +0.000 A 
ATOM      6  C   UNL     1      43.174   5.131  10.928  0.00  0.00    +0.000 A 
ATOM      7  C   UNL     1      43.699   4.413   9.851  0.00  0.00    +0.000 A 
ATOM      8  C   UNL     1      44.928   3.744   9.948  0.00  0.00    +0.000 A 
ATOM      9  C   UNL     1      45.592   3.804  11.188  0.00  0.00    +0.000 A 
BRANCH   8  10
ATOM     10  C   UNL     1      45.576   3.130   8.761  0.00  0.00    +0.000 A 
ATOM     11  C   UNL     1      46.007   3.935   7.686  0.00  0.00    +0.000 A 
ATOM     12  C   UNL     1      46.676   3.394   6.584  0.00  0.00    +0.000 A 
ATOM     13  C   UNL     1      46.946   2.033   6.537  0.00  0.00    +0.000 A 
ATOM     14  C   UNL     1      46.539   1.211   7.585  0.00  0.00    +0.000 A 
ATOM     15  C   UNL     1      45.857   1.755   8.682  0.00  0.00    +0.000 A 
ENDBRANCH   8  10
ENDBRANCH   1   4
BRANCH   1  16
ATOM     16  O   UNL     1      46.033   6.465  13.627  0.00  0.00    +0.000 OA
BRANCH  16  20
ATOM     17  C   UNL     1      48.918   8.963  12.218  0.00  0.00    +0.000 A 
ATOM     18  C   UNL     1      48.672   7.831  11.458  0.00  0.00    +0.000 A 
ATOM     19  C   UNL     1      47.647   6.986  11.857  0.00  0.00    +0.000 A 
ATOM     20  C   UNL     1      46.927   7.281  13.006  0.00  0.00    +0.000 A 
ATOM     21  C   UNL     1      47.177   8.491  13.638  0.00  0.00    +0.000 A 
ATOM     22  N   UNL     1      48.163   9.341  13.277  0.00  0.00    +0.000 NA
BRANCH  17  24
ATOM     23  N   UNL     1      51.062  10.348  11.726  0.00  0.00    +0.000 NA
ATOM     24  C   UNL     1      50.081   9.756  11.965  0.00  0.00    +0.000 C 
ENDBRANCH  17  24
ENDBRANCH  16  20
ENDBRANCH   1  16
TORSDOF 5
ENDMDL
MODEL 7
REMARK VINA RESULT:    -5.646      3.552      5.815
REMARK INTER + INTRA:          -8.342
REMARK INTER:                  -7.147
REMARK INTRA:                  -1.195
REMARK UNBOUND:                -1.045
REMARK  Name = 
REMARK  5 active torsions:
REMARK  status: ('A' for Active; 'I' for Inactive)
REMARK    1  A    between atoms: C_2  and  C_3
REMARK    2  A    between atoms: C_6  and  O_7
REMARK    3  A    between atoms: O_7  and  C_8
REMARK    4  A    between atoms: C_8  and  C_9
REMARK    5  A    between atoms: C_13  and  C_14
REMARK                            x       y       z     vdW  Elec       q    Type
REMARK                         _______ _______ _______ _____ _____    ______ ____
ROOT
ATOM      1  C   UNL     1      49.130   7.432  14.408  0.00  0.00    +0.000 C 
ATOM      2  C   UNL     1      50.198   7.262  15.471  0.00  0.00    +0.000 C 
ATOM      3  C   UNL     1      48.805   7.597  15.879  0.00  0.00    +0.000 C 
ENDROOT
BRANCH   1   4
ATOM      4  C   UNL     1      49.070   8.626  13.476  0.00  0.00    +0.000 A 
ATOM      5  C   UNL     1      50.098   8.834  12.548  0.00  0.00    +0.000 A 
ATOM      6  C   UNL     1      49.915   9.679  11.458  0.00  0.00    +0.000 A 
ATOM      7  C   UNL     1      48.691  10.325  11.270  0.00  0.00    +0.000 A 
ATOM      8  C   UNL     1      47.639  10.179  12.185  0.00  0.00    +0.000 A 
ATOM      9  C   UNL     1      47.883   9.376  13.315  0.00  0.00    +0.000 A 
BRANCH   8  10
ATOM     10  C   UNL     1      46.283  10.716  11.905  0.00  0.00    +0.000 A 
ATOM     11  C   UNL     1      46.102  12.086  11.624  0.00  0.00    +0.000 A 
ATOM     12  C   UNL     1      44.848  12.610  11.295  0.00  0.00    +0.000 A 
ATOM     13  C   UNL     1      43.744  11.771  11.222  0.00  0.00    +0.000 A 
ATOM     14  C   UNL     1      43.890  10.412  11.488  0.00  0.00    +0.000 A 
ATOM     15  C   UNL     1      45.146   9.893  11.831  0.00  0.00    +0.000 A 
ENDBRANCH   8  10
ENDBRANCH   1   4
BRANCH   1  16
ATOM     16  O   UNL     1      48.927   6.169  13.729  0.00  0.00    +0.000 OA
BRANCH  16  20
ATOM     17  C   UNL     1      45.058   5.281  12.838  0.00  0.00    +0.000 A 
ATOM     18  C   UNL     1      45.724   6.082  11.922  0.00  0.00    +0.000 A 
ATOM     19  C   UNL     1      47.066   6.351  12.145  0.00  0.00    +0.000 A 
ATOM     20  C   UNL     1      47.686   5.842  13.277  0.00  0.00    +0.000 A 
ATOM     21  C   UNL     1      46.966   4.966  14.076  0.00  0.00    +0.000 A 
ATOM     22  N   UNL     1      45.660   4.676  13.890  0.00  0.00    +0.000 NA
BRANCH  17  24
ATOM     23  N   UNL     1      42.480   5.027  12.631  0.00  0.00    +0.000 NA
ATOM     24  C   UNL     1      43.638   5.137  12.763  0.00  0.00    +0.000 C 
ENDBRANCH  17  24
ENDBRANCH  16  20
ENDBRANCH   1  16
TORSDOF 5
ENDMDL
MODEL 8
REMARK VINA RESULT:    -5.582      2.648      4.303
REMARK INTER + INTRA:          -8.259
REMARK INTER:                  -7.250
REMARK INTRA:                  -1.009
REMARK UNBOUND:                -1.045
REMARK  Name = 
REMARK  5 active torsions:
REMARK  status: ('A' for Active; 'I' for Inactive)
REMARK    1  A    between atoms: C_2  and  C_3
REMARK    2  A    between atoms: C_6  and  O_7
REMARK    3  A    between atoms: O_7  and  C_8
REMARK    4  A    between atoms: C_8  and  C_9
REMARK    5  A    between atoms: C_13  and  C_14
REMARK                            x       y       z     vdW  Elec       q    Type
REMARK                         _______ _______ _______ _____ _____    ______ ____
ROOT
ATOM      1  C   UNL     1      45.609   7.765  12.451  0.00  0.00    +0.000 C 
ATOM      2  C   UNL     1      45.078   9.132  12.838  0.00  0.00    +0.000 C 
ATOM      3  C   UNL     1      45.115   8.740  11.401  0.00  0.00    +0.000 C 
ENDROOT
BRANCH   1   4
ATOM      4  C   UNL     1      47.078   7.396  12.516  0.00  0.00    +0.000 A 
ATOM      5  C   UNL     1      47.927   7.738  11.456  0.00  0.00    +0.000 A 
ATOM      6  C   UNL     1      49.308   7.748  11.623  0.00  0.00    +0.000 A 
ATOM      7  C   UNL     1      49.867   7.425  12.862  0.00  0.00    +0.000 A 
ATOM      8  C   UNL     1      49.065   7.045  13.948  0.00  0.00    +0.000 A 
ATOM      9  C   UNL     1      47.678   6.973  13.724  0.00  0.00    +0.000 A 
BRANCH   8  10
ATOM     10  C   UNL     1      49.631   6.872  15.311  0.00  0.00    +0.000 A 
ATOM     11  C   UNL     1      50.952   7.279  15.592  0.00  0.00    +0.000 A 
ATOM     12  C   UNL     1      51.491   7.188  16.879  0.00  0.00    +0.000 A 
ATOM     13  C   UNL     1      50.715   6.702  17.922  0.00  0.00    +0.000 A 
ATOM     14  C   UNL     1      49.404   6.297  17.679  0.00  0.00    +0.000 A 
ATOM     15  C   UNL     1      48.872   6.378  16.386  0.00  0.00    +0.000 A 
ENDBRANCH   8  10
ENDBRANCH   1   4
BRANCH   1  16
ATOM     16  O   UNL     1      44.740   6.744  12.998  0.00  0.00    +0.000 OA
BRANCH  16  20
ATOM     17  C   UNL     1      44.534   3.417  10.665  0.00  0.00    +0.000 A 
ATOM     18  C   UNL     1      45.110   3.248  11.913  0.00  0.00    +0.000 A 
ATOM     19  C   UNL     1      45.137   4.335  12.774  0.00  0.00    +0.000 A 
ATOM     20  C   UNL     1      44.619   5.552  12.353  0.00  0.00    +0.000 A 
ATOM     21  C   UNL     1      43.968   5.593  11.128  0.00  0.00    +0.000 A 
ATOM     22  N   UNL     1      43.918   4.556  10.265  0.00  0.00    +0.000 NA
BRANCH  17  24
ATOM     23  N   UNL     1      44.691   1.567   8.846  0.00  0.00    +0.000 NA
ATOM     24  C   UNL     1      44.657   2.393   9.674  0.00  0.00    +0.000 C 
ENDBRANCH  17  24
ENDBRANCH  16  20
ENDBRANCH   1  16
TORSDOF 5
ENDMDL
MODEL 9
REMARK VINA RESULT:    -5.306      3.335      5.964
REMARK INTER + INTRA:          -7.902
REMARK INTER:                  -6.972
REMARK INTRA:                  -0.930
REMARK UNBOUND:                -1.045
REMARK  Name = 
REMARK  5 active torsions:
REMARK  status: ('A' for Active; 'I' for Inactive)
REMARK    1  A    between atoms: C_2  and  C_3
REMARK    2  A    between atoms: C_6  and  O_7
REMARK    3  A    between atoms: O_7  and  C_8
REMARK    4  A    between atoms: C_8  and  C_9
REMARK    5  A    between atoms: C_13  and  C_14
REMARK                            x       y       z     vdW  Elec       q    Type
REMARK                         _______ _______ _______ _____ _____    ______ ____
ROOT
ATOM      1  C   UNL     1      49.005   7.446  13.555  0.00  0.00    +0.000 C 
ATOM      2  C   UNL     1      49.577   7.482  14.959  0.00  0.00    +0.000 C 
ATOM      3  C   UNL     1      48.358   8.279  14.644  0.00  0.00    +0.000 C 
ENDROOT
BRANCH   1   4
ATOM      4  C   UNL     1      49.667   8.123  12.372  0.00  0.00    +0.000 A 
ATOM      5  C   UNL     1      49.674   9.521  12.286  0.00  0.00    +0.000 A 
ATOM      6  C   UNL     1      50.557  10.179  11.437  0.00  0.00    +0.000 A 
ATOM      7  C   UNL     1      51.461   9.448  10.662  0.00  0.00    +0.000 A 
ATOM      8  C   UNL     1      51.475   8.046  10.684  0.00  0.00    +0.000 A 
ATOM      9  C   UNL     1      50.519   7.410  11.498  0.00  0.00    +0.000 A 
BRANCH   8  10
ATOM     10  C   UNL     1      52.542   7.267  10.005  0.00  0.00    +0.000 A 
ATOM     11  C   UNL     1      52.413   6.915   8.646  0.00  0.00    +0.000 A 
ATOM     12  C   UNL     1      53.428   6.238   7.962  0.00  0.00    +0.000 A 
ATOM     13  C   UNL     1      54.607   5.911   8.619  0.00  0.00    +0.000 A 
ATOM     14  C   UNL     1      54.769   6.250   9.960  0.00  0.00    +0.000 A 
ATOM     15  C   UNL     1      53.744   6.917  10.645  0.00  0.00    +0.000 A 
ENDBRANCH   8  10
ENDBRANCH   1   4
BRANCH   1  16
ATOM     16  O   UNL     1      48.547   6.104  13.262  0.00  0.00    +0.000 OA
BRANCH  16  20
ATOM     17  C   UNL     1      44.672   5.609  12.127  0.00  0.00    +0.000 A 
ATOM     18  C   UNL     1      45.439   6.437  11.323  0.00  0.00    +0.000 A 
ATOM     19  C   UNL     1      46.785   6.579  11.626  0.00  0.00    +0.000 A 
ATOM     20  C   UNL     1      47.310   5.919  12.728  0.00  0.00    +0.000 A 
ATOM     21  C   UNL     1      46.488   5.030  13.407  0.00  0.00    +0.000 A 
ATOM     22  N   UNL     1      45.175   4.862  13.140  0.00  0.00    +0.000 NA
BRANCH  17  24
ATOM     23  N   UNL     1      42.094   5.592  11.794  0.00  0.00    +0.000 NA
ATOM     24  C   UNL     1      43.250   5.584  11.979  0.00  0.00    +0.000 C 
ENDBRANCH  17  24
ENDBRANCH  16  20
ENDBRANCH   1  16
TORSDOF 5
ENDMDL
