MODEL 1
REMARK VINA RESULT:    -8.062      0.000      0.000
REMARK INTER + INTRA:         -12.039
REMARK INTER:                 -10.889
REMARK INTRA:                  -1.150
REMARK UNBOUND:                -1.150
REMARK  Name = 
REMARK  6 active torsions:
REMARK  status: ('A' for Active; 'I' for Inactive)
REMARK    1  A    between atoms: C_2  and  C_4
REMARK    2  A    between atoms: C_7  and  C_8
REMARK    3  A    between atoms: C_8  and  C_9
REMARK    4  A    between atoms: C_9  and  O_10
REMARK    5  A    between atoms: O_10  and  C_11
REMARK    6  A    between atoms: C_15  and  C_16
REMARK                            x       y       z     vdW  Elec       q    Type
REMARK                         _______ _______ _______ _____ _____    ______ ____
ROOT
ATOM      1  C   UNL     1      43.491   4.796  10.735  0.00  0.00    +0.000 C 
ENDROOT
BRANCH   1   2
ATOM      2  C   UNL     1      43.936   3.340  10.625  0.00  0.00    +0.000 C 
BRANCH   2   6
ATOM      3  C   UNL     1      46.562   2.727   7.251  0.00  0.00    +0.000 A 
ATOM      4  C   UNL     1      46.132   1.635   8.011  0.00  0.00    +0.000 A 
ATOM      5  C   UNL     1      45.281   1.836   9.101  0.00  0.00    +0.000 A 
ATOM      6  C   UNL     1      44.850   3.125   9.442  0.00  0.00    +0.000 A 
ATOM      7  C   UNL     1      45.314   4.218   8.696  0.00  0.00    +0.000 A 
ATOM      8  C   UNL     1      46.169   4.021   7.608  0.00  0.00    +0.000 A 
BRANCH   3  10
ATOM      9  N   UNL     1      48.794   2.488   6.306  0.00  0.00    +0.000 N 
ATOM     10  C   UNL     1      47.450   2.558   6.066  0.00  0.00    +0.000 C 
ATOM     11  O   UNL     1      47.000   2.441   4.936  0.00  0.00    +0.000 OA
ATOM     12  H   UNL     1      49.373   2.250   5.511  0.00  0.00    +0.000 HD
ATOM     13  H   UNL     1      49.170   2.315   7.227  0.00  0.00    +0.000 HD
ENDBRANCH   3  10
ENDBRANCH   2   6
ENDBRANCH   1   2
BRANCH   1  14
ATOM     14  O   UNL     1      43.783   5.278  12.050  0.00  0.00    +0.000 OA
BRANCH  14  15
ATOM     15  C   UNL     1      45.089   5.628  12.284  0.00  0.00    +0.000 A 
ATOM     16  C   UNL     1      45.846   6.494  11.496  0.00  0.00    +0.000 A 
ATOM     17  C   UNL     1      47.163   6.781  11.841  0.00  0.00    +0.000 A 
ATOM     18  C   UNL     1      47.723   6.219  12.989  0.00  0.00    +0.000 A 
ATOM     19  C   UNL     1      46.978   5.375  13.832  0.00  0.00    +0.000 A 
ATOM     20  C   UNL     1      45.663   5.064  13.431  0.00  0.00    +0.000 A 
BRANCH  19  21
ATOM     21  C   UNL     1      47.522   4.916  15.134  0.00  0.00    +0.000 A 
ATOM     22  C   UNL     1      47.263   3.610  15.594  0.00  0.00    +0.000 A 
ATOM     23  C   UNL     1      47.835   3.116  16.768  0.00  0.00    +0.000 A 
ATOM     24  C   UNL     1      48.691   3.920  17.513  0.00  0.00    +0.000 A 
ATOM     25  C   UNL     1      48.952   5.221  17.093  0.00  0.00    +0.000 A 
ATOM     26  C   UNL     1      48.366   5.717  15.922  0.00  0.00    +0.000 A 
ENDBRANCH  19  21
ENDBRANCH  14  15
ENDBRANCH   1  14
TORSDOF 6
ENDMDL
MODEL 2
REMARK VINA RESULT:    -8.017      1.905      3.852
REMARK INTER + INTRA:         -11.979
REMARK INTER:                 -10.998
REMARK INTRA:                  -0.982
REMARK UNBOUND:                -1.150
REMARK  Name = 
REMARK  6 active torsions:
REMARK  status: ('A' for Active; 'I' for Inactive)
REMARK    1  A    between atoms: C_2  and  C_4
REMARK    2  A    between atoms: C_7  and  C_8
REMARK    3  A    between atoms: C_8  and  C_9
REMARK    4  A    between atoms: C_9  and  O_10
REMARK    5  A    between atoms: O_10  and  C_11
REMARK    6  A    between atoms: C_15  and  C_16
REMARK                            x       y       z     vdW  Elec       q    Type
REMARK                         _______ _______ _______ _____ _____    ______ ____
ROOT
ATOM      1  C   UNL     1      43.259   3.552  11.403  0.00  0.00    +0.000 C 
ENDROOT
BRANCH   1   2
ATOM      2  C   UNL     1      43.652   4.429  10.217  0.00  0.00    +0.000 C 
BRANCH   2   6
ATOM      3  C   UNL     1      46.507   2.442   7.655  0.00  0.00    +0.000 A 
ATOM      4  C   UNL     1      45.708   1.695   8.526  0.00  0.00    +0.000 A 
ATOM      5  C   UNL     1      44.784   2.340   9.353  0.00  0.00    +0.000 A 
ATOM      6  C   UNL     1      44.647   3.734   9.318  0.00  0.00    +0.000 A 
ATOM      7  C   UNL     1      45.476   4.479   8.466  0.00  0.00    +0.000 A 
ATOM      8  C   UNL     1      46.403   3.837   7.642  0.00  0.00    +0.000 A 
BRANCH   3  10
ATOM      9  N   UNL     1      48.582   2.534   6.383  0.00  0.00    +0.000 N 
ATOM     10  C   UNL     1      47.487   1.795   6.739  0.00  0.00    +0.000 C 
ATOM     11  O   UNL     1      47.348   0.643   6.357  0.00  0.00    +0.000 OA
ATOM     12  H   UNL     1      49.297   2.041   5.864  0.00  0.00    +0.000 HD
ATOM     13  H   UNL     1      48.856   3.368   6.883  0.00  0.00    +0.000 HD
ENDBRANCH   3  10
ENDBRANCH   2   6
ENDBRANCH   1   2
BRANCH   1  14
ATOM     14  O   UNL     1      43.387   4.309  12.610  0.00  0.00    +0.000 OA
BRANCH  14  15
ATOM     15  C   UNL     1      44.637   4.810  12.875  0.00  0.00    +0.000 A 
ATOM     16  C   UNL     1      45.747   4.053  13.245  0.00  0.00    +0.000 A 
ATOM     17  C   UNL     1      46.969   4.675  13.481  0.00  0.00    +0.000 A 
ATOM     18  C   UNL     1      47.092   6.057  13.325  0.00  0.00    +0.000 A 
ATOM     19  C   UNL     1      46.005   6.848  12.911  0.00  0.00    +0.000 A 
ATOM     20  C   UNL     1      44.768   6.198  12.728  0.00  0.00    +0.000 A 
BRANCH  19  21
ATOM     21  C   UNL     1      46.182   8.285  12.587  0.00  0.00    +0.000 A 
ATOM     22  C   UNL     1      47.466   8.863  12.588  0.00  0.00    +0.000 A 
ATOM     23  C   UNL     1      47.679  10.187  12.198  0.00  0.00    +0.000 A 
ATOM     24  C   UNL     1      46.605  10.969  11.789  0.00  0.00    +0.000 A 
ATOM     25  C   UNL     1      45.321  10.432  11.794  0.00  0.00    +0.000 A 
ATOM     26  C   UNL     1      45.110   9.107  12.198  0.00  0.00    +0.000 A 
ENDBRANCH  19  21
ENDBRANCH  14  15
ENDBRANCH   1  14
TORSDOF 6
ENDMDL
MODEL 3
REMARK VINA RESULT:    -7.888      1.782      3.899
REMARK INTER + INTRA:         -11.805
REMARK INTER:                 -10.686
REMARK INTRA:                  -1.119
REMARK UNBOUND:                -1.150
REMARK  Name = 
REMARK  6 active torsions:
REMARK  status: ('A' for Active; 'I' for Inactive)
REMARK    1  A    between atoms: C_2  and  C_4
REMARK    2  A    between atoms: C_7  and  C_8
REMARK    3  A    between atoms: C_8  and  C_9
REMARK    4  A    between atoms: C_9  and  O_10
REMARK    5  A    between atoms: O_10  and  C_11
REMARK    6  A    between atoms: C_15  and  C_16
REMARK                            x       y       z     vdW  Elec       q    Type
REMARK                         _______ _______ _______ _____ _____    ______ ____
ROOT
ATOM      1  C   UNL     1      43.304   5.184  11.028  0.00  0.00    +0.000 C 
ENDROOT
BRANCH   1   2
ATOM      2  C   UNL     1      43.511   3.685  10.828  0.00  0.00    +0.000 C 
BRANCH   2   6
ATOM      3  C   UNL     1      46.391   2.879   7.711  0.00  0.00    +0.000 A 
ATOM      4  C   UNL     1      46.033   4.197   8.011  0.00  0.00    +0.000 A 
ATOM      5  C   UNL     1      45.102   4.455   9.021  0.00  0.00    +0.000 A 
ATOM      6  C   UNL     1      44.522   3.403   9.742  0.00  0.00    +0.000 A 
ATOM      7  C   UNL     1      44.860   2.083   9.411  0.00  0.00    +0.000 A 
ATOM      8  C   UNL     1      45.787   1.822   8.399  0.00  0.00    +0.000 A 
BRANCH   3  10
ATOM      9  N   UNL     1      47.279   3.221   5.469  0.00  0.00    +0.000 N 
ATOM     10  C   UNL     1      47.396   2.558   6.659  0.00  0.00    +0.000 C 
ATOM     11  O   UNL     1      48.311   1.775   6.861  0.00  0.00    +0.000 OA
ATOM     12  H   UNL     1      48.037   3.087   4.812  0.00  0.00    +0.000 HD
ATOM     13  H   UNL     1      46.711   4.051   5.367  0.00  0.00    +0.000 HD
ENDBRANCH   3  10
ENDBRANCH   2   6
ENDBRANCH   1   2
BRANCH   1  14
ATOM     14  O   UNL     1      43.508   5.506  12.406  0.00  0.00    +0.000 OA
BRANCH  14  15
ATOM     15  C   UNL     1      44.815   5.629  12.807  0.00  0.00    +0.000 A 
ATOM     16  C   UNL     1      45.539   4.664  13.505  0.00  0.00    +0.000 A 
ATOM     17  C   UNL     1      46.865   4.902  13.850  0.00  0.00    +0.000 A 
ATOM     18  C   UNL     1      47.482   6.098  13.480  0.00  0.00    +0.000 A 
ATOM     19  C   UNL     1      46.796   7.077  12.738  0.00  0.00    +0.000 A 
ATOM     20  C   UNL     1      45.440   6.830  12.445  0.00  0.00    +0.000 A 
BRANCH  19  21
ATOM     21  C   UNL     1      47.502   8.269  12.205  0.00  0.00    +0.000 A 
ATOM     22  C   UNL     1      46.848   9.514  12.139  0.00  0.00    +0.000 A 
ATOM     23  C   UNL     1      47.510  10.673  11.730  0.00  0.00    +0.000 A 
ATOM     24  C   UNL     1      48.854  10.615  11.379  0.00  0.00    +0.000 A 
ATOM     25  C   UNL     1      49.523   9.395  11.416  0.00  0.00    +0.000 A 
ATOM     26  C   UNL     1      48.852   8.233  11.815  0.00  0.00    +0.000 A 
ENDBRANCH  19  21
ENDBRANCH  14  15
ENDBRANCH   1  14
TORSDOF 6
ENDMDL
MODEL 4
REMARK VINA RESULT:    -7.627      2.957      7.789
REMARK INTER + INTRA:         -11.451
REMARK INTER:                 -10.286
REMARK INTRA:                  -1.165
REMARK UNBOUND:                -1.150
REMARK  Name = 
REMARK  6 active torsions:
REMARK  status: ('A' for Active; 'I' for Inactive)
REMARK    1  A    between atoms: C_2  and  C_4
REMARK    2  A    between atoms: C_7  and  C_8
REMARK    3  A    between atoms: C_8  and  C_9
REMARK    4  A    between atoms: C_9  and  O_10
REMARK    5  A    between atoms: O_10  and  C_11
REMARK    6  A    between atoms: C_15  and  C_16
REMARK                            x       y       z     vdW  Elec       q    Type
REMARK                         _______ _______ _______ _____ _____    ______ ____
ROOT
ATOM      1  C   UNL     1      45.271   7.095  11.985  0.00  0.00    +0.000 C 
ENDROOT
BRANCH   1   2
ATOM      2  C   UNL     1      46.774   6.878  12.143  0.00  0.00    +0.000 C 
BRANCH   2   6
ATOM      3  C   UNL     1      47.665   4.471  15.617  0.00  0.00    +0.000 A 
ATOM      4  C   UNL     1      46.757   4.010  14.659  0.00  0.00    +0.000 A 
ATOM      5  C   UNL     1      46.471   4.790  13.535  0.00  0.00    +0.000 A 
ATOM      6  C   UNL     1      47.089   6.035  13.355  0.00  0.00    +0.000 A 
ATOM      7  C   UNL     1      47.972   6.504  14.337  0.00  0.00    +0.000 A 
ATOM      8  C   UNL     1      48.256   5.729  15.464  0.00  0.00    +0.000 A 
BRANCH   3  10
ATOM      9  N   UNL     1      46.980   3.128  17.529  0.00  0.00    +0.000 N 
ATOM     10  C   UNL     1      48.018   3.662  16.817  0.00  0.00    +0.000 C 
ATOM     11  O   UNL     1      49.179   3.446  17.129  0.00  0.00    +0.000 OA
ATOM     12  H   UNL     1      47.235   2.482  18.265  0.00  0.00    +0.000 HD
ATOM     13  H   UNL     1      46.044   3.064  17.154  0.00  0.00    +0.000 HD
ENDBRANCH   3  10
ENDBRANCH   2   6
ENDBRANCH   1   2
BRANCH   1  14
ATOM     14  O   UNL     1      44.871   6.677  10.676  0.00  0.00    +0.000 OA
BRANCH  14  15
ATOM     15  C   UNL     1      44.643   5.333  10.519  0.00  0.00    +0.000 A 
ATOM     16  C   UNL     1      43.716   4.583  11.241  0.00  0.00    +0.000 A 
ATOM     17  C   UNL     1      43.568   3.223  10.986  0.00  0.00    +0.000 A 
ATOM     18  C   UNL     1      44.331   2.611   9.991  0.00  0.00    +0.000 A 
ATOM     19  C   UNL     1      45.246   3.344   9.213  0.00  0.00    +0.000 A 
ATOM     20  C   UNL     1      45.410   4.708   9.526  0.00  0.00    +0.000 A 
BRANCH  19  21
ATOM     21  C   UNL     1      45.930   2.727   8.049  0.00  0.00    +0.000 A 
ATOM     22  C   UNL     1      46.202   3.489   6.897  0.00  0.00    +0.000 A 
ATOM     23  C   UNL     1      46.926   2.967   5.822  0.00  0.00    +0.000 A 
ATOM     24  C   UNL     1      47.402   1.661   5.878  0.00  0.00    +0.000 A 
ATOM     25  C   UNL     1      47.133   0.878   6.996  0.00  0.00    +0.000 A 
ATOM     26  C   UNL     1      46.396   1.402   8.066  0.00  0.00    +0.000 A 
ENDBRANCH  19  21
ENDBRANCH  14  15
ENDBRANCH   1  14
TORSDOF 6
ENDMDL
MODEL 5
REMARK VINA RESULT:    -7.589      2.835      3.965
REMARK INTER + INTRA:         -11.400
REMARK INTER:                 -10.368
REMARK INTRA:                  -1.031
REMARK UNBOUND:                -1.150
REMARK  Name = 
REMARK  6 active torsions:
REMARK  status: ('A' for Active; 'I' for Inactive)
REMARK    1  A    between atoms: C_2  and  C_4
REMARK    2  A    between atoms: C_7  and  C_8
REMARK    3  A    between atoms: C_8  and  C_9
REMARK    4  A    between atoms: C_9  and  O_10
REMARK    5  A    between atoms: O_10  and  C_11
REMARK    6  A    between atoms: C_15  and  C_16
REMARK                            x       y       z     vdW  Elec       q    Type
REMARK                         _______ _______ _______ _____ _____    ______ ____
ROOT
ATOM      1  C   UNL     1      44.458   4.475  11.731  0.00  0.00    +0.000 C 
ENDROOT
BRANCH   1   2
ATOM      2  C   UNL     1      43.996   4.614  10.283  0.00  0.00    +0.000 C 
BRANCH   2   6
ATOM      3  C   UNL     1      46.597   2.464   7.586  0.00  0.00    +0.000 A 
ATOM      4  C   UNL     1      45.782   1.764   8.481  0.00  0.00    +0.000 A 
ATOM      5  C   UNL     1      44.941   2.462   9.352  0.00  0.00    +0.000 A 
ATOM      6  C   UNL     1      44.902   3.862   9.336  0.00  0.00    +0.000 A 
ATOM      7  C   UNL     1      45.747   4.557   8.460  0.00  0.00    +0.000 A 
ATOM      8  C   UNL     1      46.593   3.863   7.591  0.00  0.00    +0.000 A 
BRANCH   3  10
ATOM      9  N   UNL     1      48.522   2.487   6.094  0.00  0.00    +0.000 N 
ATOM     10  C   UNL     1      47.491   1.762   6.624  0.00  0.00    +0.000 C 
ATOM     11  O   UNL     1      47.343   0.580   6.352  0.00  0.00    +0.000 OA
ATOM     12  H   UNL     1      49.191   1.967   5.543  0.00  0.00    +0.000 HD
ATOM     13  H   UNL     1      48.825   3.364   6.494  0.00  0.00    +0.000 HD
ENDBRANCH   3  10
ENDBRANCH   2   6
ENDBRANCH   1   2
BRANCH   1  14
ATOM     14  O   UNL     1      45.826   4.880  11.828  0.00  0.00    +0.000 OA
BRANCH  14  15
ATOM     15  C   UNL     1      46.042   6.213  12.070  0.00  0.00    +0.000 A 
ATOM     16  C   UNL     1      45.142   7.076  12.695  0.00  0.00    +0.000 A 
ATOM     17  C   UNL     1      45.478   8.411  12.893  0.00  0.00    +0.000 A 
ATOM     18  C   UNL     1      46.726   8.886  12.486  0.00  0.00    +0.000 A 
ATOM     19  C   UNL     1      47.676   8.037  11.891  0.00  0.00    +0.000 A 
ATOM     20  C   UNL     1      47.290   6.701  11.659  0.00  0.00    +0.000 A 
BRANCH  19  21
ATOM     21  C   UNL     1      49.057   8.505  11.614  0.00  0.00    +0.000 A 
ATOM     22  C   UNL     1      50.107   7.578  11.467  0.00  0.00    +0.000 A 
ATOM     23  C   UNL     1      51.399   7.978  11.115  0.00  0.00    +0.000 A 
ATOM     24  C   UNL     1      51.671   9.324  10.895  0.00  0.00    +0.000 A 
ATOM     25  C   UNL     1      50.657  10.265  11.051  0.00  0.00    +0.000 A 
ATOM     26  C   UNL     1      49.367   9.861  11.417  0.00  0.00    +0.000 A 
ENDBRANCH  19  21
ENDBRANCH  14  15
ENDBRANCH   1  14
TORSDOF 6
ENDMDL
MODEL 6
REMARK VINA RESULT:    -7.145      3.486      7.477
REMARK INTER + INTRA:         -10.801
REMARK INTER:                  -9.685
REMARK INTRA:                  -1.116
REMARK UNBOUND:                -1.150
REMARK  Name = 
REMARK  6 active torsions:
REMARK  status: ('A' for Active; 'I' for Inactive)
REMARK    1  A    between atoms: C_2  and  C_4
REMARK    2  A    between atoms: C_7  and  C_8
REMARK    3  A    between atoms: C_8  and  C_9
REMARK    4  A    between atoms: C_9  and  O_10
REMARK    5  A    between atoms: O_10  and  C_11
REMARK    6  A    between atoms: C_15  and  C_16
REMARK                            x       y       z     vdW  Elec       q    Type
REMARK                         _______ _______ _______ _____ _____    ______ ____
ROOT
ATOM      1  C   UNL     1      46.136   4.706  13.936  0.00  0.00    +0.000 C 
ENDROOT
BRANCH   1   2
ATOM      2  C   UNL     1      47.279   5.196  13.050  0.00  0.00    +0.000 C 
BRANCH   2   6
ATOM      3  C   UNL     1      46.912   9.406  12.159  0.00  0.00    +0.000 A 
ATOM      4  C   UNL     1      45.831   8.709  12.706  0.00  0.00    +0.000 A 
ATOM      5  C   UNL     1      45.953   7.347  12.995  0.00  0.00    +0.000 A 
ATOM      6  C   UNL     1      47.153   6.669  12.743  0.00  0.00    +0.000 A 
ATOM      7  C   UNL     1      48.221   7.368  12.162  0.00  0.00    +0.000 A 
ATOM      8  C   UNL     1      48.100   8.728  11.868  0.00  0.00    +0.000 A 
BRANCH   3  10
ATOM      9  N   UNL     1      45.677  11.505  12.198  0.00  0.00    +0.000 N 
ATOM     10  C   UNL     1      46.835  10.863  11.857  0.00  0.00    +0.000 C 
ATOM     11  O   UNL     1      47.777  11.470  11.371  0.00  0.00    +0.000 OA
ATOM     12  H   UNL     1      45.685  12.512  12.103  0.00  0.00    +0.000 HD
ATOM     13  H   UNL     1      45.001  11.099  12.830  0.00  0.00    +0.000 HD
ENDBRANCH   3  10
ENDBRANCH   2   6
ENDBRANCH   1   2
BRANCH   1  14
ATOM     14  O   UNL     1      45.475   3.615  13.289  0.00  0.00    +0.000 OA
BRANCH  14  15
ATOM     15  C   UNL     1      44.883   3.901  12.085  0.00  0.00    +0.000 A 
ATOM     16  C   UNL     1      43.833   4.797  11.895  0.00  0.00    +0.000 A 
ATOM     17  C   UNL     1      43.319   5.010  10.620  0.00  0.00    +0.000 A 
ATOM     18  C   UNL     1      43.868   4.343   9.524  0.00  0.00    +0.000 A 
ATOM     19  C   UNL     1      44.956   3.464   9.670  0.00  0.00    +0.000 A 
ATOM     20  C   UNL     1      45.424   3.230  10.979  0.00  0.00    +0.000 A 
BRANCH  19  21
ATOM     21  C   UNL     1      45.642   2.888   8.487  0.00  0.00    +0.000 A 
ATOM     22  C   UNL     1      45.919   3.691   7.364  0.00  0.00    +0.000 A 
ATOM     23  C   UNL     1      46.644   3.206   6.272  0.00  0.00    +0.000 A 
ATOM     24  C   UNL     1      47.116   1.898   6.281  0.00  0.00    +0.000 A 
ATOM     25  C   UNL     1      46.842   1.075   7.369  0.00  0.00    +0.000 A 
ATOM     26  C   UNL     1      46.104   1.561   8.456  0.00  0.00    +0.000 A 
ENDBRANCH  19  21
ENDBRANCH  14  15
ENDBRANCH   1  14
TORSDOF 6
ENDMDL
MODEL 7
REMARK VINA RESULT:    -6.975      3.796      8.881
REMARK INTER + INTRA:         -10.571
REMARK INTER:                  -9.879
REMARK INTRA:                  -0.692
REMARK UNBOUND:                -1.150
REMARK  Name = 
REMARK  6 active torsions:
REMARK  status: ('A' for Active; 'I' for Inactive)
REMARK    1  A    between atoms: C_2  and  C_4
REMARK    2  A    between atoms: C_7  and  C_8
REMARK    3  A    between atoms: C_8  and  C_9
REMARK    4  A    between atoms: C_9  and  O_10
REMARK    5  A    between atoms: O_10  and  C_11
REMARK    6  A    between atoms: C_15  and  C_16
REMARK                            x       y       z     vdW  Elec       q    Type
REMARK                         _______ _______ _______ _____ _____    ______ ____
ROOT
ATOM      1  C   UNL     1      46.561   4.642  14.100  0.00  0.00    +0.000 C 
ENDROOT
BRANCH   1   2
ATOM      2  C   UNL     1      47.361   3.529  14.771  0.00  0.00    +0.000 C 
BRANCH   2   6
ATOM      3  C   UNL     1      48.473   4.574  18.812  0.00  0.00    +0.000 A 
ATOM      4  C   UNL     1      48.445   5.556  17.816  0.00  0.00    +0.000 A 
ATOM      5  C   UNL     1      48.083   5.216  16.510  0.00  0.00    +0.000 A 
ATOM      6  C   UNL     1      47.745   3.895  16.185  0.00  0.00    +0.000 A 
ATOM      7  C   UNL     1      47.810   2.911  17.181  0.00  0.00    +0.000 A 
ATOM      8  C   UNL     1      48.175   3.247  18.487  0.00  0.00    +0.000 A 
BRANCH   3  10
ATOM      9  N   UNL     1      49.992   4.361  20.704  0.00  0.00    +0.000 N 
ATOM     10  C   UNL     1      48.830   4.896  20.222  0.00  0.00    +0.000 C 
ATOM     11  O   UNL     1      48.143   5.640  20.905  0.00  0.00    +0.000 OA
ATOM     12  H   UNL     1      50.283   4.687  21.616  0.00  0.00    +0.000 HD
ATOM     13  H   UNL     1      50.700   3.973  20.096  0.00  0.00    +0.000 HD
ENDBRANCH   3  10
ENDBRANCH   2   6
ENDBRANCH   1   2
BRANCH   1  14
ATOM     14  O   UNL     1      45.183   4.262  14.045  0.00  0.00    +0.000 OA
BRANCH  14  15
ATOM     15  C   UNL     1      44.546   4.485  12.851  0.00  0.00    +0.000 A 
ATOM     16  C   UNL     1      43.445   5.321  12.667  0.00  0.00    +0.000 A 
ATOM     17  C   UNL     1      42.888   5.474  11.401  0.00  0.00    +0.000 A 
ATOM     18  C   UNL     1      43.444   4.808  10.308  0.00  0.00    +0.000 A 
ATOM     19  C   UNL     1      44.580   3.991  10.446  0.00  0.00    +0.000 A 
ATOM     20  C   UNL     1      45.092   3.816  11.747  0.00  0.00    +0.000 A 
BRANCH  19  21
ATOM     21  C   UNL     1      45.264   3.421   9.259  0.00  0.00    +0.000 A 
ATOM     22  C   UNL     1      45.800   4.268   8.270  0.00  0.00    +0.000 A 
ATOM     23  C   UNL     1      46.530   3.770   7.189  0.00  0.00    +0.000 A 
ATOM     24  C   UNL     1      46.748   2.401   7.073  0.00  0.00    +0.000 A 
ATOM     25  C   UNL     1      46.215   1.537   8.025  0.00  0.00    +0.000 A 
ATOM     26  C   UNL     1      45.473   2.040   9.101  0.00  0.00    +0.000 A 
ENDBRANCH  19  21
ENDBRANCH  14  15
ENDBRANCH   1  14
TORSDOF 6
ENDMDL
MODEL 8
REMARK VINA RESULT:    -6.971      2.742      4.977
REMARK INTER + INTRA:         -10.566
REMARK INTER:                  -9.735
REMARK INTRA:                  -0.831
REMARK UNBOUND:                -1.150
REMARK  Name = 
REMARK  6 active torsions:
REMARK  status: ('A' for Active; 'I' for Inactive)
REMARK    1  A    between atoms: C_2  and  C_4
REMARK    2  A    between atoms: C_7  and  C_8
REMARK    3  A    between atoms: C_8  and  C_9
REMARK    4  A    between atoms: C_9  and  O_10
REMARK    5  A    between atoms: O_10  and  C_11
REMARK    6  A    between atoms: C_15  and  C_16
REMARK                            x       y       z     vdW  Elec       q    Type
REMARK                         _______ _______ _______ _____ _____    ______ ____
ROOT
ATOM      1  C   UNL     1      44.504   5.424  10.754  0.00  0.00    +0.000 C 
ENDROOT
BRANCH   1   2
ATOM      2  C   UNL     1      43.996   4.060  10.294  0.00  0.00    +0.000 C 
BRANCH   2   6
ATOM      3  C   UNL     1      46.587   2.313   7.312  0.00  0.00    +0.000 A 
ATOM      4  C   UNL     1      46.374   3.695   7.333  0.00  0.00    +0.000 A 
ATOM      5  C   UNL     1      45.536   4.258   8.299  0.00  0.00    +0.000 A 
ATOM      6  C   UNL     1      44.906   3.449   9.255  0.00  0.00    +0.000 A 
ATOM      7  C   UNL     1      45.098   2.061   9.206  0.00  0.00    +0.000 A 
ATOM      8  C   UNL     1      45.931   1.495   8.237  0.00  0.00    +0.000 A 
BRANCH   3  10
ATOM      9  N   UNL     1      48.564   2.406   5.893  0.00  0.00    +0.000 N 
ATOM     10  C   UNL     1      47.490   1.673   6.315  0.00  0.00    +0.000 C 
ATOM     11  O   UNL     1      47.309   0.530   5.924  0.00  0.00    +0.000 OA
ATOM     12  H   UNL     1      49.234   1.915   5.315  0.00  0.00    +0.000 HD
ATOM     13  H   UNL     1      48.884   3.228   6.387  0.00  0.00    +0.000 HD
ENDBRANCH   3  10
ENDBRANCH   2   6
ENDBRANCH   1   2
BRANCH   1  14
ATOM     14  O   UNL     1      45.524   5.237  11.739  0.00  0.00    +0.000 OA
BRANCH  14  15
ATOM     15  C   UNL     1      46.214   6.364  12.110  0.00  0.00    +0.000 A 
ATOM     16  C   UNL     1      47.478   6.380  12.695  0.00  0.00    +0.000 A 
ATOM     17  C   UNL     1      48.082   7.590  13.021  0.00  0.00    +0.000 A 
ATOM     18  C   UNL     1      47.432   8.793  12.741  0.00  0.00    +0.000 A 
ATOM     19  C   UNL     1      46.174   8.819  12.112  0.00  0.00    +0.000 A 
ATOM     20  C   UNL     1      45.566   7.577  11.839  0.00  0.00    +0.000 A 
BRANCH  19  21
ATOM     21  C   UNL     1      45.565  10.097  11.667  0.00  0.00    +0.000 A 
ATOM     22  C   UNL     1      44.180  10.180  11.425  0.00  0.00    +0.000 A 
ATOM     23  C   UNL     1      43.560  11.387  11.096  0.00  0.00    +0.000 A 
ATOM     24  C   UNL     1      44.316  12.551  11.005  0.00  0.00    +0.000 A 
ATOM     25  C   UNL     1      45.690  12.497  11.220  0.00  0.00    +0.000 A 
ATOM     26  C   UNL     1      46.310  11.281  11.538  0.00  0.00    +0.000 A 
ENDBRANCH  19  21
ENDBRANCH  14  15
ENDBRANCH   1  14
TORSDOF 6
ENDMDL
MODEL 9
REMARK VINA RESULT:    -6.407      3.275      5.099
REMARK INTER + INTRA:          -9.803
REMARK INTER:                  -8.535
REMARK INTRA:                  -1.268
REMARK UNBOUND:                -1.150
REMARK  Name = 
REMARK  6 active torsions:
REMARK  status: ('A' for Active; 'I' for Inactive)
REMARK    1  A    between atoms: C_2  and  C_4
REMARK    2  A    between atoms: C_7  and  C_8
REMARK    3  A    between atoms: C_8  and  C_9
REMARK    4  A    between atoms: C_9  and  O_10
REMARK    5  A    between atoms: O_10  and  C_11
REMARK    6  A    between atoms: C_15  and  C_16
REMARK                            x       y       z     vdW  Elec       q    Type
REMARK                         _______ _______ _______ _____ _____    ______ ____
ROOT
ATOM      1  C   UNL     1      47.319   8.707  13.459  0.00  0.00    +0.000 C 
ENDROOT
BRANCH   1   2
ATOM      2  C   UNL     1      47.635   7.843  12.242  0.00  0.00    +0.000 C 
BRANCH   2   6
ATOM      3  C   UNL     1      45.119   4.335  12.076  0.00  0.00    +0.000 A 
ATOM      4  C   UNL     1      45.770   4.675  13.266  0.00  0.00    +0.000 A 
ATOM      5  C   UNL     1      46.583   5.811  13.317  0.00  0.00    +0.000 A 
ATOM      6  C   UNL     1      46.751   6.619  12.185  0.00  0.00    +0.000 A 
ATOM      7  C   UNL     1      46.122   6.252  10.987  0.00  0.00    +0.000 A 
ATOM      8  C   UNL     1      45.313   5.115  10.931  0.00  0.00    +0.000 A 
BRANCH   3  10
ATOM      9  N   UNL     1      44.162   2.515  10.771  0.00  0.00    +0.000 N 
ATOM     10  C   UNL     1      44.225   3.148  11.982  0.00  0.00    +0.000 C 
ATOM     11  O   UNL     1      43.609   2.727  12.950  0.00  0.00    +0.000 OA
ATOM     12  H   UNL     1      43.651   1.642  10.755  0.00  0.00    +0.000 HD
ATOM     13  H   UNL     1      44.846   2.671  10.045  0.00  0.00    +0.000 HD
ENDBRANCH   3  10
ENDBRANCH   2   6
ENDBRANCH   1   2
BRANCH   1  14
ATOM     14  O   UNL     1      48.520   8.922  14.206  0.00  0.00    +0.000 OA
BRANCH  14  15
ATOM     15  C   UNL     1      48.511   8.466  15.501  0.00  0.00    +0.000 A 
ATOM     16  C   UNL     1      48.118   9.207  16.614  0.00  0.00    +0.000 A 
ATOM     17  C   UNL     1      48.145   8.632  17.880  0.00  0.00    +0.000 A 
ATOM     18  C   UNL     1      48.543   7.304  18.037  0.00  0.00    +0.000 A 
ATOM     19  C   UNL     1      48.906   6.511  16.932  0.00  0.00    +0.000 A 
ATOM     20  C   UNL     1      48.916   7.135  15.669  0.00  0.00    +0.000 A 
BRANCH  19  21
ATOM     21  C   UNL     1      49.167   5.058  17.083  0.00  0.00    +0.000 A 
ATOM     22  C   UNL     1      48.178   4.117  16.737  0.00  0.00    +0.000 A 
ATOM     23  C   UNL     1      48.423   2.743  16.778  0.00  0.00    +0.000 A 
ATOM     24  C   UNL     1      49.673   2.273  17.166  0.00  0.00    +0.000 A 
ATOM     25  C   UNL     1      50.665   3.179  17.532  0.00  0.00    +0.000 A 
ATOM     26  C   UNL     1      50.411   4.556  17.501  0.00  0.00    +0.000 A 
ENDBRANCH  19  21
ENDBRANCH  14  15
ENDBRANCH   1  14
TORSDOF 6
ENDMDL
