MODEL 1
REMARK VINA RESULT:    -8.404      0.000      0.000
REMARK INTER + INTRA:         -13.728
REMARK INTER:                 -12.826
REMARK INTRA:                  -0.902
REMARK UNBOUND:                -0.902
REMARK  Name = 
REMARK  10 active torsions:
REMARK  status: ('A' for Active; 'I' for Inactive)
REMARK    1  A    between atoms: C_1  and  O_2
REMARK    2  A    between atoms: O_2  and  C_3
REMARK    3  A    between atoms: C_3  and  C_4
REMARK    4  A    between atoms: C_4  and  N_5
REMARK    5  A    between atoms: C_4  and  C_13
REMARK    6  A    between atoms: N_5  and  C_6
REMARK    7  A    between atoms: C_6  and  C_7
REMARK    8  A    between atoms: C_16  and  C_17
REMARK    9  A    between atoms: C_17  and  N_18
REMARK   10  A    between atoms: C_19  and  C_21
REMARK                            x       y       z     vdW  Elec       q    Type
REMARK                         _______ _______ _______ _____ _____    ______ ____
ROOT
ATOM      1  C   UNL     1      45.544   4.617  11.991  0.00  0.00    +0.000 A 
ATOM      2  C   UNL     1      46.102   5.745  11.362  0.00  0.00    +0.000 A 
ATOM      3  C   UNL     1      47.072   6.521  12.003  0.00  0.00    +0.000 A 
ATOM      4  C   UNL     1      47.556   6.151  13.261  0.00  0.00    +0.000 A 
ATOM      5  C   UNL     1      47.008   5.032  13.894  0.00  0.00    +0.000 A 
ATOM      6  C   UNL     1      46.006   4.284  13.275  0.00  0.00    +0.000 A 
ENDROOT
BRANCH   1   7
ATOM      7  C   UNL     1      44.397   3.853  11.319  0.00  0.00    +0.000 C 
BRANCH   7   8
ATOM      8  N   UNL     1      44.868   2.577  10.722  0.00  0.00    +0.000 NA
ATOM      9  H   UNL     1      44.511   1.796  11.267  0.00  0.00    +0.000 HD
BRANCH   8  10
ATOM     10  C   UNL     1      44.439   2.431   9.328  0.00  0.00    +0.000 C 
BRANCH  10  11
ATOM     11  C   UNL     1      45.558   2.362   8.317  0.00  0.00    +0.000 A 
ATOM     12  C   UNL     1      45.954   3.546   7.666  0.00  0.00    +0.000 A 
ATOM     13  C   UNL     1      47.046   3.556   6.801  0.00  0.00    +0.000 A 
ATOM     14  C   UNL     1      47.763   2.380   6.582  0.00  0.00    +0.000 A 
ATOM     15  C   UNL     1      47.384   1.203   7.222  0.00  0.00    +0.000 A 
ATOM     16  C   UNL     1      46.291   1.193   8.092  0.00  0.00    +0.000 A 
ENDBRANCH  10  11
ENDBRANCH   8  10
ENDBRANCH   7   8
BRANCH   7  17
ATOM     17  C   UNL     1      43.685   4.757  10.264  0.00  0.00    +0.000 C 
BRANCH  17  19
ATOM     18  C   UNL     1      42.399   5.309  12.152  0.00  0.00    +0.000 C 
ATOM     19  O   UNL     1      42.804   5.723  10.848  0.00  0.00    +0.000 OA
ENDBRANCH  17  19
ENDBRANCH   7  17
ENDBRANCH   1   7
BRANCH   4  20
ATOM     20  C   UNL     1      48.620   6.954  13.957  0.00  0.00    +0.000 C 
BRANCH  20  21
ATOM     21  N   UNL     1      48.338   7.092  15.362  0.00  0.00    +0.000 N 
ATOM     22  C   UNL     1      49.262   6.707  16.297  0.00  0.00    +0.000 C 
ATOM     23  O   UNL     1      50.368   6.278  15.976  0.00  0.00    +0.000 OA
ATOM     24  H   UNL     1      47.369   7.219  15.636  0.00  0.00    +0.000 HD
BRANCH  22  25
ATOM     25  C   UNL     1      48.894   6.886  17.705  0.00  0.00    +0.000 A 
ATOM     26  C   UNL     1      48.613   8.161  18.180  0.00  0.00    +0.000 A 
ATOM     27  S   UNL     1      48.149   8.193  19.818  0.00  0.00    +0.000 S 
ATOM     28  C   UNL     1      48.357   6.511  19.966  0.00  0.00    +0.000 A 
ATOM     29  N   UNL     1      48.141   5.883  21.152  0.00  0.00    +0.000 NA
ATOM     30  C   UNL     1      48.364   4.614  21.133  0.00  0.00    +0.000 A 
ATOM     31  N   UNL     1      48.783   3.911  20.032  0.00  0.00    +0.000 N 
ATOM     32  C   UNL     1      48.987   4.496  18.804  0.00  0.00    +0.000 A 
ATOM     33  O   UNL     1      49.327   3.831  17.831  0.00  0.00    +0.000 OA
ATOM     34  C   UNL     1      48.759   5.929  18.777  0.00  0.00    +0.000 A 
ATOM     35  H   UNL     1      48.933   2.914  20.083  0.00  0.00    +0.000 HD
ENDBRANCH  22  25
ENDBRANCH  20  21
ENDBRANCH   4  20
TORSDOF 9
ENDMDL
MODEL 2
REMARK VINA RESULT:    -8.322      1.507      2.409
REMARK INTER + INTRA:         -13.603
REMARK INTER:                 -12.350
REMARK INTRA:                  -1.254
REMARK UNBOUND:                -0.902
REMARK  Name = 
REMARK  10 active torsions:
REMARK  status: ('A' for Active; 'I' for Inactive)
REMARK    1  A    between atoms: C_1  and  O_2
REMARK    2  A    between atoms: O_2  and  C_3
REMARK    3  A    between atoms: C_3  and  C_4
REMARK    4  A    between atoms: C_4  and  N_5
REMARK    5  A    between atoms: C_4  and  C_13
REMARK    6  A    between atoms: N_5  and  C_6
REMARK    7  A    between atoms: C_6  and  C_7
REMARK    8  A    between atoms: C_16  and  C_17
REMARK    9  A    between atoms: C_17  and  N_18
REMARK   10  A    between atoms: C_19  and  C_21
REMARK                            x       y       z     vdW  Elec       q    Type
REMARK                         _______ _______ _______ _____ _____    ______ ____
ROOT
ATOM      1  C   UNL     1      45.852   5.399  11.690  0.00  0.00    +0.000 A 
ATOM      2  C   UNL     1      46.173   4.768  12.907  0.00  0.00    +0.000 A 
ATOM      3  C   UNL     1      47.112   5.324  13.781  0.00  0.00    +0.000 A 
ATOM      4  C   UNL     1      47.705   6.556  13.490  0.00  0.00    +0.000 A 
ATOM      5  C   UNL     1      47.393   7.190  12.285  0.00  0.00    +0.000 A 
ATOM      6  C   UNL     1      46.492   6.612  11.390  0.00  0.00    +0.000 A 
ENDROOT
BRANCH   1   7
ATOM      7  C   UNL     1      44.912   4.710  10.694  0.00  0.00    +0.000 C 
BRANCH   7   8
ATOM      8  N   UNL     1      45.273   5.036   9.290  0.00  0.00    +0.000 NA
ATOM      9  H   UNL     1      46.284   5.095   9.206  0.00  0.00    +0.000 HD
BRANCH   8  10
ATOM     10  C   UNL     1      44.765   4.036   8.346  0.00  0.00    +0.000 C 
BRANCH  10  11
ATOM     11  C   UNL     1      45.808   3.099   7.784  0.00  0.00    +0.000 A 
ATOM     12  C   UNL     1      45.889   1.791   8.298  0.00  0.00    +0.000 A 
ATOM     13  C   UNL     1      46.763   0.858   7.746  0.00  0.00    +0.000 A 
ATOM     14  C   UNL     1      47.565   1.221   6.663  0.00  0.00    +0.000 A 
ATOM     15  C   UNL     1      47.493   2.511   6.143  0.00  0.00    +0.000 A 
ATOM     16  C   UNL     1      46.614   3.445   6.695  0.00  0.00    +0.000 A 
ENDBRANCH  10  11
ENDBRANCH   8  10
ENDBRANCH   7   8
BRANCH   7  17
ATOM     17  C   UNL     1      43.426   5.073  11.008  0.00  0.00    +0.000 C 
BRANCH  17  19
ATOM     18  C   UNL     1      43.287   2.830  11.696  0.00  0.00    +0.000 C 
ATOM     19  O   UNL     1      42.796   4.153  11.907  0.00  0.00    +0.000 OA
ENDBRANCH  17  19
ENDBRANCH   7  17
ENDBRANCH   1   7
BRANCH   4  20
ATOM     20  C   UNL     1      48.696   7.186  14.429  0.00  0.00    +0.000 C 
BRANCH  20  21
ATOM     21  N   UNL     1      48.382   6.886  15.801  0.00  0.00    +0.000 N 
ATOM     22  C   UNL     1      49.307   6.279  16.609  0.00  0.00    +0.000 C 
ATOM     23  O   UNL     1      50.439   6.012  16.211  0.00  0.00    +0.000 OA
ATOM     24  H   UNL     1      47.404   6.884  16.070  0.00  0.00    +0.000 HD
BRANCH  22  25
ATOM     25  C   UNL     1      48.905   6.013  17.994  0.00  0.00    +0.000 A 
ATOM     26  C   UNL     1      49.060   4.737  18.517  0.00  0.00    +0.000 A 
ATOM     27  S   UNL     1      48.598   4.606  20.151  0.00  0.00    +0.000 S 
ATOM     28  C   UNL     1      48.125   6.240  20.204  0.00  0.00    +0.000 A 
ATOM     29  N   UNL     1      47.605   6.780  21.337  0.00  0.00    +0.000 NA
ATOM     30  C   UNL     1      47.260   8.017  21.231  0.00  0.00    +0.000 A 
ATOM     31  N   UNL     1      47.392   8.769  20.091  0.00  0.00    +0.000 N 
ATOM     32  C   UNL     1      47.939   8.277  18.929  0.00  0.00    +0.000 A 
ATOM     33  O   UNL     1      48.075   8.988  17.939  0.00  0.00    +0.000 OA
ATOM     34  C   UNL     1      48.332   6.881  18.995  0.00  0.00    +0.000 A 
ATOM     35  H   UNL     1      47.108   9.738  20.077  0.00  0.00    +0.000 HD
ENDBRANCH  22  25
ENDBRANCH  20  21
ENDBRANCH   4  20
TORSDOF 9
ENDMDL
MODEL 3
REMARK VINA RESULT:    -8.276      2.338      2.830
REMARK INTER + INTRA:         -13.532
REMARK INTER:                 -12.271
REMARK INTRA:                  -1.261
REMARK UNBOUND:                -0.902
REMARK  Name = 
REMARK  10 active torsions:
REMARK  status: ('A' for Active; 'I' for Inactive)
REMARK    1  A    between atoms: C_1  and  O_2
REMARK    2  A    between atoms: O_2  and  C_3
REMARK    3  A    between atoms: C_3  and  C_4
REMARK    4  A    between atoms: C_4  and  N_5
REMARK    5  A    between atoms: C_4  and  C_13
REMARK    6  A    between atoms: N_5  and  C_6
REMARK    7  A    between atoms: C_6  and  C_7
REMARK    8  A    between atoms: C_16  and  C_17
REMARK    9  A    between atoms: C_17  and  N_18
REMARK   10  A    between atoms: C_19  and  C_21
REMARK                            x       y       z     vdW  Elec       q    Type
REMARK                         _______ _______ _______ _____ _____    ______ ____
ROOT
ATOM      1  C   UNL     1      46.029   5.379  11.926  0.00  0.00    +0.000 A 
ATOM      2  C   UNL     1      46.647   6.609  11.630  0.00  0.00    +0.000 A 
ATOM      3  C   UNL     1      47.413   7.280  12.588  0.00  0.00    +0.000 A 
ATOM      4  C   UNL     1      47.635   6.706  13.844  0.00  0.00    +0.000 A 
ATOM      5  C   UNL     1      47.026   5.485  14.147  0.00  0.00    +0.000 A 
ATOM      6  C   UNL     1      46.222   4.839  13.208  0.00  0.00    +0.000 A 
ENDROOT
BRANCH   1   7
ATOM      7  C   UNL     1      45.096   4.723  10.902  0.00  0.00    +0.000 C 
BRANCH   7   8
ATOM      8  N   UNL     1      45.444   5.125   9.514  0.00  0.00    +0.000 NA
ATOM      9  H   UNL     1      46.454   5.146   9.411  0.00  0.00    +0.000 HD
BRANCH   8  10
ATOM     10  C   UNL     1      44.874   4.211   8.519  0.00  0.00    +0.000 C 
BRANCH  10  11
ATOM     11  C   UNL     1      45.843   3.204   7.946  0.00  0.00    +0.000 A 
ATOM     12  C   UNL     1      45.813   1.885   8.436  0.00  0.00    +0.000 A 
ATOM     13  C   UNL     1      46.614   0.894   7.871  0.00  0.00    +0.000 A 
ATOM     14  C   UNL     1      47.452   1.211   6.802  0.00  0.00    +0.000 A 
ATOM     15  C   UNL     1      47.489   2.512   6.307  0.00  0.00    +0.000 A 
ATOM     16  C   UNL     1      46.684   3.505   6.870  0.00  0.00    +0.000 A 
ENDBRANCH  10  11
ENDBRANCH   8  10
ENDBRANCH   7   8
BRANCH   7  17
ATOM     17  C   UNL     1      43.606   5.042  11.240  0.00  0.00    +0.000 C 
BRANCH  17  19
ATOM     18  C   UNL     1      43.521   2.744  11.727  0.00  0.00    +0.000 C 
ATOM     19  O   UNL     1      42.775   3.877  11.286  0.00  0.00    +0.000 OA
ENDBRANCH  17  19
ENDBRANCH   7  17
ENDBRANCH   1   7
BRANCH   4  20
ATOM     20  C   UNL     1      48.479   7.395  14.879  0.00  0.00    +0.000 C 
BRANCH  20  21
ATOM     21  N   UNL     1      49.476   6.508  15.418  0.00  0.00    +0.000 N 
ATOM     22  C   UNL     1      49.592   6.334  16.772  0.00  0.00    +0.000 C 
ATOM     23  O   UNL     1      48.831   6.885  17.564  0.00  0.00    +0.000 OA
ATOM     24  H   UNL     1      50.242   6.238  14.810  0.00  0.00    +0.000 HD
BRANCH  22  25
ATOM     25  C   UNL     1      50.633   5.409  17.233  0.00  0.00    +0.000 A 
ATOM     26  C   UNL     1      51.813   5.917  17.759  0.00  0.00    +0.000 A 
ATOM     27  S   UNL     1      52.894   4.716  18.299  0.00  0.00    +0.000 S 
ATOM     28  C   UNL     1      51.845   3.472  17.803  0.00  0.00    +0.000 A 
ATOM     29  N   UNL     1      52.186   2.167  17.960  0.00  0.00    +0.000 NA
ATOM     30  C   UNL     1      51.315   1.328  17.513  0.00  0.00    +0.000 A 
ATOM     31  N   UNL     1      50.127   1.677  16.924  0.00  0.00    +0.000 N 
ATOM     32  C   UNL     1      49.723   2.983  16.769  0.00  0.00    +0.000 A 
ATOM     33  O   UNL     1      48.637   3.258  16.270  0.00  0.00    +0.000 OA
ATOM     34  C   UNL     1      50.678   3.966  17.247  0.00  0.00    +0.000 A 
ATOM     35  H   UNL     1      49.484   0.969  16.601  0.00  0.00    +0.000 HD
ENDBRANCH  22  25
ENDBRANCH  20  21
ENDBRANCH   4  20
TORSDOF 9
ENDMDL
MODEL 4
REMARK VINA RESULT:    -7.831      2.102      2.648
REMARK INTER + INTRA:         -12.854
REMARK INTER:                 -11.545
REMARK INTRA:                  -1.308
REMARK UNBOUND:                -0.902
REMARK  Name = 
REMARK  10 active torsions:
REMARK  status: ('A' for Active; 'I' for Inactive)
REMARK    1  A    between atoms: C_1  and  O_2
REMARK    2  A    between atoms: O_2  and  C_3
REMARK    3  A    between atoms: C_3  and  C_4
REMARK    4  A    between atoms: C_4  and  N_5
REMARK    5  A    between atoms: C_4  and  C_13
REMARK    6  A    between atoms: N_5  and  C_6
REMARK    7  A    between atoms: C_6  and  C_7
REMARK    8  A    between atoms: C_16  and  C_17
REMARK    9  A    between atoms: C_17  and  N_18
REMARK   10  A    between atoms: C_19  and  C_21
REMARK                            x       y       z     vdW  Elec       q    Type
REMARK                         _______ _______ _______ _____ _____    ______ ____
ROOT
ATOM      1  C   UNL     1      45.814   5.048  11.924  0.00  0.00    +0.000 A 
ATOM      2  C   UNL     1      46.152   6.119  11.075  0.00  0.00    +0.000 A 
ATOM      3  C   UNL     1      47.168   7.016  11.418  0.00  0.00    +0.000 A 
ATOM      4  C   UNL     1      47.914   6.827  12.586  0.00  0.00    +0.000 A 
ATOM      5  C   UNL     1      47.585   5.767  13.434  0.00  0.00    +0.000 A 
ATOM      6  C   UNL     1      46.540   4.899  13.117  0.00  0.00    +0.000 A 
ENDROOT
BRANCH   1   7
ATOM      7  C   UNL     1      44.618   4.151  11.586  0.00  0.00    +0.000 C 
BRANCH   7   8
ATOM      8  N   UNL     1      45.055   2.872  10.968  0.00  0.00    +0.000 NA
ATOM      9  H   UNL     1      44.756   2.095  11.551  0.00  0.00    +0.000 HD
BRANCH   8  10
ATOM     10  C   UNL     1      44.510   2.701   9.618  0.00  0.00    +0.000 C 
BRANCH  10  11
ATOM     11  C   UNL     1      45.540   2.617   8.517  0.00  0.00    +0.000 A 
ATOM     12  C   UNL     1      46.175   1.384   8.278  0.00  0.00    +0.000 A 
ATOM     13  C   UNL     1      47.057   1.227   7.211  0.00  0.00    +0.000 A 
ATOM     14  C   UNL     1      47.311   2.305   6.363  0.00  0.00    +0.000 A 
ATOM     15  C   UNL     1      46.687   3.530   6.586  0.00  0.00    +0.000 A 
ATOM     16  C   UNL     1      45.800   3.687   7.654  0.00  0.00    +0.000 A 
ENDBRANCH  10  11
ENDBRANCH   8  10
ENDBRANCH   7   8
BRANCH   7  17
ATOM     17  C   UNL     1      43.603   4.915  10.679  0.00  0.00    +0.000 C 
BRANCH  17  19
ATOM     18  C   UNL     1      42.667   5.295  12.801  0.00  0.00    +0.000 C 
ATOM     19  O   UNL     1      42.463   5.405  11.394  0.00  0.00    +0.000 OA
ENDBRANCH  17  19
ENDBRANCH   7  17
ENDBRANCH   1   7
BRANCH   4  20
ATOM     20  C   UNL     1      49.030   7.763  12.960  0.00  0.00    +0.000 C 
BRANCH  20  21
ATOM     21  N   UNL     1      49.955   7.139  13.869  0.00  0.00    +0.000 N 
ATOM     22  C   UNL     1      50.583   7.878  14.837  0.00  0.00    +0.000 C 
ATOM     23  O   UNL     1      50.349   9.074  14.993  0.00  0.00    +0.000 OA
ATOM     24  H   UNL     1      50.327   6.231  13.611  0.00  0.00    +0.000 HD
BRANCH  22  25
ATOM     25  C   UNL     1      51.506   7.160  15.722  0.00  0.00    +0.000 A 
ATOM     26  C   UNL     1      52.864   7.444  15.667  0.00  0.00    +0.000 A 
ATOM     27  S   UNL     1      53.793   6.568  16.794  0.00  0.00    +0.000 S 
ATOM     28  C   UNL     1      52.420   5.740  17.362  0.00  0.00    +0.000 A 
ATOM     29  N   UNL     1      52.526   4.802  18.340  0.00  0.00    +0.000 NA
ATOM     30  C   UNL     1      51.415   4.229  18.654  0.00  0.00    +0.000 A 
ATOM     31  N   UNL     1      50.201   4.511  18.080  0.00  0.00    +0.000 N 
ATOM     32  C   UNL     1      50.039   5.471  17.109  0.00  0.00    +0.000 A 
ATOM     33  O   UNL     1      48.932   5.723  16.643  0.00  0.00    +0.000 OA
ATOM     34  C   UNL     1      51.265   6.137  16.712  0.00  0.00    +0.000 A 
ATOM     35  H   UNL     1      49.366   4.030  18.378  0.00  0.00    +0.000 HD
ENDBRANCH  22  25
ENDBRANCH  20  21
ENDBRANCH   4  20
TORSDOF 9
ENDMDL
MODEL 5
REMARK VINA RESULT:    -7.606      1.453      2.010
REMARK INTER + INTRA:         -12.510
REMARK INTER:                 -11.532
REMARK INTRA:                  -0.978
REMARK UNBOUND:                -0.902
REMARK  Name = 
REMARK  10 active torsions:
REMARK  status: ('A' for Active; 'I' for Inactive)
REMARK    1  A    between atoms: C_1  and  O_2
REMARK    2  A    between atoms: O_2  and  C_3
REMARK    3  A    between atoms: C_3  and  C_4
REMARK    4  A    between atoms: C_4  and  N_5
REMARK    5  A    between atoms: C_4  and  C_13
REMARK    6  A    between atoms: N_5  and  C_6
REMARK    7  A    between atoms: C_6  and  C_7
REMARK    8  A    between atoms: C_16  and  C_17
REMARK    9  A    between atoms: C_17  and  N_18
REMARK   10  A    between atoms: C_19  and  C_21
REMARK                            x       y       z     vdW  Elec       q    Type
REMARK                         _______ _______ _______ _____ _____    ______ ____
ROOT
ATOM      1  C   UNL     1      45.849   5.812  11.357  0.00  0.00    +0.000 A 
ATOM      2  C   UNL     1      45.840   5.734  12.762  0.00  0.00    +0.000 A 
ATOM      3  C   UNL     1      46.797   6.406  13.527  0.00  0.00    +0.000 A 
ATOM      4  C   UNL     1      47.748   7.226  12.909  0.00  0.00    +0.000 A 
ATOM      5  C   UNL     1      47.764   7.308  11.514  0.00  0.00    +0.000 A 
ATOM      6  C   UNL     1      46.838   6.600  10.748  0.00  0.00    +0.000 A 
ENDROOT
BRANCH   1   7
ATOM      7  C   UNL     1      44.865   4.970  10.536  0.00  0.00    +0.000 C 
BRANCH   7   8
ATOM      8  N   UNL     1      45.188   5.014   9.086  0.00  0.00    +0.000 NA
ATOM      9  H   UNL     1      46.192   5.114   8.967  0.00  0.00    +0.000 HD
BRANCH   8  10
ATOM     10  C   UNL     1      44.735   3.809   8.386  0.00  0.00    +0.000 C 
BRANCH  10  11
ATOM     11  C   UNL     1      45.825   3.016   7.705  0.00  0.00    +0.000 A 
ATOM     12  C   UNL     1      46.140   1.737   8.201  0.00  0.00    +0.000 A 
ATOM     13  C   UNL     1      47.065   0.924   7.549  0.00  0.00    +0.000 A 
ATOM     14  C   UNL     1      47.683   1.380   6.384  0.00  0.00    +0.000 A 
ATOM     15  C   UNL     1      47.377   2.642   5.881  0.00  0.00    +0.000 A 
ATOM     16  C   UNL     1      46.448   3.456   6.533  0.00  0.00    +0.000 A 
ENDBRANCH  10  11
ENDBRANCH   8  10
ENDBRANCH   7   8
BRANCH   7  17
ATOM     17  C   UNL     1      43.397   5.421  10.815  0.00  0.00    +0.000 C 
BRANCH  17  19
ATOM     18  C   UNL     1      43.278   3.224  11.640  0.00  0.00    +0.000 C 
ATOM     19  O   UNL     1      42.678   4.517  11.662  0.00  0.00    +0.000 OA
ENDBRANCH  17  19
ENDBRANCH   7  17
ENDBRANCH   1   7
BRANCH   4  20
ATOM     20  C   UNL     1      48.769   7.981  13.713  0.00  0.00    +0.000 C 
BRANCH  20  21
ATOM     21  N   UNL     1      48.978   7.371  15.000  0.00  0.00    +0.000 N 
ATOM     22  C   UNL     1      48.648   8.041  16.149  0.00  0.00    +0.000 C 
ATOM     23  O   UNL     1      48.126   9.153  16.123  0.00  0.00    +0.000 OA
ATOM     24  H   UNL     1      49.607   6.576  15.046  0.00  0.00    +0.000 HD
BRANCH  22  25
ATOM     25  C   UNL     1      48.892   7.343  17.415  0.00  0.00    +0.000 A 
ATOM     26  C   UNL     1      49.344   8.061  18.514  0.00  0.00    +0.000 A 
ATOM     27  S   UNL     1      49.525   7.118  19.921  0.00  0.00    +0.000 S 
ATOM     28  C   UNL     1      49.054   5.705  19.099  0.00  0.00    +0.000 A 
ATOM     29  N   UNL     1      49.015   4.506  19.737  0.00  0.00    +0.000 NA
ATOM     30  C   UNL     1      48.672   3.513  18.990  0.00  0.00    +0.000 A 
ATOM     31  N   UNL     1      48.359   3.610  17.658  0.00  0.00    +0.000 N 
ATOM     32  C   UNL     1      48.355   4.804  16.975  0.00  0.00    +0.000 A 
ATOM     33  O   UNL     1      48.034   4.859  15.792  0.00  0.00    +0.000 OA
ATOM     34  C   UNL     1      48.747   5.952  17.772  0.00  0.00    +0.000 A 
ATOM     35  H   UNL     1      48.091   2.792  17.130  0.00  0.00    +0.000 HD
ENDBRANCH  22  25
ENDBRANCH  20  21
ENDBRANCH   4  20
TORSDOF 9
ENDMDL
MODEL 6
REMARK VINA RESULT:    -7.231      3.930     10.089
REMARK INTER + INTRA:         -11.938
REMARK INTER:                  -9.795
REMARK INTRA:                  -2.143
REMARK UNBOUND:                -0.902
REMARK  Name = 
REMARK  10 active torsions:
REMARK  status: ('A' for Active; 'I' for Inactive)
REMARK    1  A    between atoms: C_1  and  O_2
REMARK    2  A    between atoms: O_2  and  C_3
REMARK    3  A    between atoms: C_3  and  C_4
REMARK    4  A    between atoms: C_4  and  N_5
REMARK    5  A    between atoms: C_4  and  C_13
REMARK    6  A    between atoms: N_5  and  C_6
REMARK    7  A    between atoms: C_6  and  C_7
REMARK    8  A    between atoms: C_16  and  C_17
REMARK    9  A    between atoms: C_17  and  N_18
REMARK   10  A    between atoms: C_19  and  C_21
REMARK                            x       y       z     vdW  Elec       q    Type
REMARK                         _______ _______ _______ _____ _____    ______ ____
ROOT
ATOM      1  C   UNL     1      51.342   4.868  17.824  0.00  0.00    +0.000 A 
ATOM      2  C   UNL     1      50.968   3.519  17.964  0.00  0.00    +0.000 A 
ATOM      3  C   UNL     1      49.703   3.077  17.566  0.00  0.00    +0.000 A 
ATOM      4  C   UNL     1      48.805   3.959  16.958  0.00  0.00    +0.000 A 
ATOM      5  C   UNL     1      49.168   5.301  16.815  0.00  0.00    +0.000 A 
ATOM      6  C   UNL     1      50.412   5.752  17.255  0.00  0.00    +0.000 A 
ENDROOT
BRANCH   1   7
ATOM      7  C   UNL     1      52.687   5.353  18.378  0.00  0.00    +0.000 C 
BRANCH   7   8
ATOM      8  N   UNL     1      52.534   6.608  19.159  0.00  0.00    +0.000 NA
ATOM      9  H   UNL     1      51.837   7.199  18.715  0.00  0.00    +0.000 HD
BRANCH   8  10
ATOM     10  C   UNL     1      52.136   6.347  20.545  0.00  0.00    +0.000 C 
BRANCH  10  11
ATOM     11  C   UNL     1      50.653   6.162  20.761  0.00  0.00    +0.000 A 
ATOM     12  C   UNL     1      49.784   7.211  20.409  0.00  0.00    +0.000 A 
ATOM     13  C   UNL     1      48.402   7.054  20.493  0.00  0.00    +0.000 A 
ATOM     14  C   UNL     1      47.871   5.838  20.926  0.00  0.00    +0.000 A 
ATOM     15  C   UNL     1      48.721   4.792  21.275  0.00  0.00    +0.000 A 
ATOM     16  C   UNL     1      50.105   4.947  21.187  0.00  0.00    +0.000 A 
ENDBRANCH  10  11
ENDBRANCH   8  10
ENDBRANCH   7   8
BRANCH   7  17
ATOM     17  C   UNL     1      53.726   5.513  17.223  0.00  0.00    +0.000 C 
BRANCH  17  19
ATOM     18  C   UNL     1      54.833   3.449  17.414  0.00  0.00    +0.000 C 
ATOM     19  O   UNL     1      54.975   4.866  17.491  0.00  0.00    +0.000 OA
ENDBRANCH  17  19
ENDBRANCH   7  17
ENDBRANCH   1   7
BRANCH   4  20
ATOM     20  C   UNL     1      47.450   3.499  16.496  0.00  0.00    +0.000 C 
BRANCH  20  21
ATOM     21  N   UNL     1      46.838   4.466  15.623  0.00  0.00    +0.000 N 
ATOM     22  C   UNL     1      46.765   4.235  14.274  0.00  0.00    +0.000 C 
ATOM     23  O   UNL     1      47.172   3.189  13.773  0.00  0.00    +0.000 OA
ATOM     24  H   UNL     1      46.715   5.408  15.978  0.00  0.00    +0.000 HD
BRANCH  22  25
ATOM     25  C   UNL     1      46.122   5.271  13.460  0.00  0.00    +0.000 A 
ATOM     26  C   UNL     1      46.787   6.467  13.227  0.00  0.00    +0.000 A 
ATOM     27  S   UNL     1      45.931   7.541  12.219  0.00  0.00    +0.000 S 
ATOM     28  C   UNL     1      44.617   6.467  12.099  0.00  0.00    +0.000 A 
ATOM     29  N   UNL     1      43.511   6.794  11.381  0.00  0.00    +0.000 NA
ATOM     30  C   UNL     1      42.579   5.904  11.399  0.00  0.00    +0.000 A 
ATOM     31  N   UNL     1      42.652   4.710  12.070  0.00  0.00    +0.000 N 
ATOM     32  C   UNL     1      43.760   4.322  12.786  0.00  0.00    +0.000 A 
ATOM     33  O   UNL     1      43.806   3.230  13.344  0.00  0.00    +0.000 OA
ATOM     34  C   UNL     1      44.835   5.297  12.806  0.00  0.00    +0.000 A 
ATOM     35  H   UNL     1      41.887   4.053  12.037  0.00  0.00    +0.000 HD
ENDBRANCH  22  25
ENDBRANCH  20  21
ENDBRANCH   4  20
TORSDOF 9
ENDMDL
MODEL 7
REMARK VINA RESULT:    -7.124      3.048      9.183
REMARK INTER + INTRA:         -11.774
REMARK INTER:                  -9.562
REMARK INTRA:                  -2.213
REMARK UNBOUND:                -0.902
REMARK  Name = 
REMARK  10 active torsions:
REMARK  status: ('A' for Active; 'I' for Inactive)
REMARK    1  A    between atoms: C_1  and  O_2
REMARK    2  A    between atoms: O_2  and  C_3
REMARK    3  A    between atoms: C_3  and  C_4
REMARK    4  A    between atoms: C_4  and  N_5
REMARK    5  A    between atoms: C_4  and  C_13
REMARK    6  A    between atoms: N_5  and  C_6
REMARK    7  A    between atoms: C_6  and  C_7
REMARK    8  A    between atoms: C_16  and  C_17
REMARK    9  A    between atoms: C_17  and  N_18
REMARK   10  A    between atoms: C_19  and  C_21
REMARK                            x       y       z     vdW  Elec       q    Type
REMARK                         _______ _______ _______ _____ _____    ______ ____
ROOT
ATOM      1  C   UNL     1      48.960   7.903  16.454  0.00  0.00    +0.000 A 
ATOM      2  C   UNL     1      49.328   6.831  15.619  0.00  0.00    +0.000 A 
ATOM      3  C   UNL     1      48.888   6.766  14.294  0.00  0.00    +0.000 A 
ATOM      4  C   UNL     1      48.123   7.804  13.751  0.00  0.00    +0.000 A 
ATOM      5  C   UNL     1      47.754   8.872  14.573  0.00  0.00    +0.000 A 
ATOM      6  C   UNL     1      48.153   8.914  15.908  0.00  0.00    +0.000 A 
ENDROOT
BRANCH   1   7
ATOM      7  C   UNL     1      49.354   7.891  17.935  0.00  0.00    +0.000 C 
BRANCH   7   8
ATOM      8  N   UNL     1      48.215   7.483  18.798  0.00  0.00    +0.000 NA
ATOM      9  H   UNL     1      47.376   7.396  18.232  0.00  0.00    +0.000 HD
BRANCH   8  10
ATOM     10  C   UNL     1      48.472   6.212  19.482  0.00  0.00    +0.000 C 
BRANCH  10  11
ATOM     11  C   UNL     1      48.424   4.988  18.598  0.00  0.00    +0.000 A 
ATOM     12  C   UNL     1      47.248   4.727  17.871  0.00  0.00    +0.000 A 
ATOM     13  C   UNL     1      47.187   3.670  16.965  0.00  0.00    +0.000 A 
ATOM     14  C   UNL     1      48.309   2.863  16.770  0.00  0.00    +0.000 A 
ATOM     15  C   UNL     1      49.479   3.113  17.482  0.00  0.00    +0.000 A 
ATOM     16  C   UNL     1      49.542   4.175  18.388  0.00  0.00    +0.000 A 
ENDBRANCH  10  11
ENDBRANCH   8  10
ENDBRANCH   7   8
BRANCH   7  17
ATOM     17  C   UNL     1      49.931   9.279  18.357  0.00  0.00    +0.000 C 
BRANCH  17  19
ATOM     18  C   UNL     1      48.971  11.363  18.859  0.00  0.00    +0.000 C 
ATOM     19  O   UNL     1      49.078   9.997  19.255  0.00  0.00    +0.000 OA
ENDBRANCH  17  19
ENDBRANCH   7  17
ENDBRANCH   1   7
BRANCH   4  20
ATOM     20  C   UNL     1      47.663   7.769  12.320  0.00  0.00    +0.000 C 
BRANCH  20  21
ATOM     21  N   UNL     1      46.978   6.539  12.019  0.00  0.00    +0.000 N 
ATOM     22  C   UNL     1      45.612   6.468  12.097  0.00  0.00    +0.000 C 
ATOM     23  O   UNL     1      44.927   7.448  12.378  0.00  0.00    +0.000 OA
ATOM     24  H   UNL     1      47.526   5.685  12.017  0.00  0.00    +0.000 HD
BRANCH  22  25
ATOM     25  C   UNL     1      44.998   5.177  11.770  0.00  0.00    +0.000 A 
ATOM     26  C   UNL     1      44.310   4.479  12.754  0.00  0.00    +0.000 A 
ATOM     27  S   UNL     1      43.609   3.029  12.201  0.00  0.00    +0.000 S 
ATOM     28  C   UNL     1      44.243   3.255  10.639  0.00  0.00    +0.000 A 
ATOM     29  N   UNL     1      44.027   2.339   9.658  0.00  0.00    +0.000 NA
ATOM     30  C   UNL     1      44.589   2.618   8.532  0.00  0.00    +0.000 A 
ATOM     31  N   UNL     1      45.348   3.735   8.294  0.00  0.00    +0.000 N 
ATOM     32  C   UNL     1      45.570   4.705   9.244  0.00  0.00    +0.000 A 
ATOM     33  O   UNL     1      46.223   5.711   8.985  0.00  0.00    +0.000 OA
ATOM     34  C   UNL     1      44.966   4.430  10.535  0.00  0.00    +0.000 A 
ATOM     35  H   UNL     1      45.755   3.898   7.385  0.00  0.00    +0.000 HD
ENDBRANCH  22  25
ENDBRANCH  20  21
ENDBRANCH   4  20
TORSDOF 9
ENDMDL
MODEL 8
REMARK VINA RESULT:    -6.972      3.491      8.617
REMARK INTER + INTRA:         -11.542
REMARK INTER:                  -9.651
REMARK INTRA:                  -1.892
REMARK UNBOUND:                -0.902
REMARK  Name = 
REMARK  10 active torsions:
REMARK  status: ('A' for Active; 'I' for Inactive)
REMARK    1  A    between atoms: C_1  and  O_2
REMARK    2  A    between atoms: O_2  and  C_3
REMARK    3  A    between atoms: C_3  and  C_4
REMARK    4  A    between atoms: C_4  and  N_5
REMARK    5  A    between atoms: C_4  and  C_13
REMARK    6  A    between atoms: N_5  and  C_6
REMARK    7  A    between atoms: C_6  and  C_7
REMARK    8  A    between atoms: C_16  and  C_17
REMARK    9  A    between atoms: C_17  and  N_18
REMARK   10  A    between atoms: C_19  and  C_21
REMARK                            x       y       z     vdW  Elec       q    Type
REMARK                         _______ _______ _______ _____ _____    ______ ____
ROOT
ATOM      1  C   UNL     1      49.444   7.747  17.972  0.00  0.00    +0.000 A 
ATOM      2  C   UNL     1      50.395   6.970  17.285  0.00  0.00    +0.000 A 
ATOM      3  C   UNL     1      50.377   6.877  15.890  0.00  0.00    +0.000 A 
ATOM      4  C   UNL     1      49.448   7.610  15.145  0.00  0.00    +0.000 A 
ATOM      5  C   UNL     1      48.500   8.384  15.819  0.00  0.00    +0.000 A 
ATOM      6  C   UNL     1      48.488   8.439  17.213  0.00  0.00    +0.000 A 
ENDROOT
BRANCH   1   7
ATOM      7  C   UNL     1      49.409   7.736  19.505  0.00  0.00    +0.000 C 
BRANCH   7   8
ATOM      8  N   UNL     1      49.519   6.355  20.043  0.00  0.00    +0.000 NA
ATOM      9  H   UNL     1      49.781   6.395  21.024  0.00  0.00    +0.000 HD
BRANCH   8  10
ATOM     10  C   UNL     1      48.263   5.612  19.907  0.00  0.00    +0.000 C 
BRANCH  10  11
ATOM     11  C   UNL     1      48.221   4.632  18.758  0.00  0.00    +0.000 A 
ATOM     12  C   UNL     1      47.193   4.753  17.805  0.00  0.00    +0.000 A 
ATOM     13  C   UNL     1      47.167   3.941  16.673  0.00  0.00    +0.000 A 
ATOM     14  C   UNL     1      48.176   2.998  16.478  0.00  0.00    +0.000 A 
ATOM     15  C   UNL     1      49.201   2.870  17.412  0.00  0.00    +0.000 A 
ATOM     16  C   UNL     1      49.229   3.686  18.545  0.00  0.00    +0.000 A 
ENDBRANCH  10  11
ENDBRANCH   8  10
ENDBRANCH   7   8
BRANCH   7  17
ATOM     17  C   UNL     1      48.127   8.459  20.026  0.00  0.00    +0.000 C 
BRANCH  17  19
ATOM     18  C   UNL     1      47.003   8.577  22.086  0.00  0.00    +0.000 C 
ATOM     19  O   UNL     1      48.220   8.859  21.398  0.00  0.00    +0.000 OA
ENDBRANCH  17  19
ENDBRANCH   7  17
ENDBRANCH   1   7
BRANCH   4  20
ATOM     20  C   UNL     1      49.428   7.548  13.643  0.00  0.00    +0.000 C 
BRANCH  20  21
ATOM     21  N   UNL     1      48.094   7.342  13.144  0.00  0.00    +0.000 N 
ATOM     22  C   UNL     1      47.590   6.075  13.011  0.00  0.00    +0.000 C 
ATOM     23  O   UNL     1      48.232   5.083  13.350  0.00  0.00    +0.000 OA
ATOM     24  H   UNL     1      47.652   8.112  12.652  0.00  0.00    +0.000 HD
BRANCH  22  25
ATOM     25  C   UNL     1      46.221   5.958  12.498  0.00  0.00    +0.000 A 
ATOM     26  C   UNL     1      45.564   7.092  12.040  0.00  0.00    +0.000 A 
ATOM     27  S   UNL     1      44.006   6.780  11.428  0.00  0.00    +0.000 S 
ATOM     28  C   UNL     1      44.132   5.125  11.801  0.00  0.00    +0.000 A 
ATOM     29  N   UNL     1      43.105   4.272  11.547  0.00  0.00    +0.000 NA
ATOM     30  C   UNL     1      43.321   3.053  11.907  0.00  0.00    +0.000 A 
ATOM     31  N   UNL     1      44.476   2.606  12.497  0.00  0.00    +0.000 N 
ATOM     32  C   UNL     1      45.553   3.424  12.747  0.00  0.00    +0.000 A 
ATOM     33  O   UNL     1      46.585   2.982  13.244  0.00  0.00    +0.000 OA
ATOM     34  C   UNL     1      45.354   4.811  12.370  0.00  0.00    +0.000 A 
ATOM     35  H   UNL     1      44.584   1.634  12.748  0.00  0.00    +0.000 HD
ENDBRANCH  22  25
ENDBRANCH  20  21
ENDBRANCH   4  20
TORSDOF 9
ENDMDL
MODEL 9
REMARK VINA RESULT:    -6.729      3.811     10.415
REMARK INTER + INTRA:         -11.172
REMARK INTER:                  -9.693
REMARK INTRA:                  -1.479
REMARK UNBOUND:                -0.902
REMARK  Name = 
REMARK  10 active torsions:
REMARK  status: ('A' for Active; 'I' for Inactive)
REMARK    1  A    between atoms: C_1  and  O_2
REMARK    2  A    between atoms: O_2  and  C_3
REMARK    3  A    between atoms: C_3  and  C_4
REMARK    4  A    between atoms: C_4  and  N_5
REMARK    5  A    between atoms: C_4  and  C_13
REMARK    6  A    between atoms: N_5  and  C_6
REMARK    7  A    between atoms: C_6  and  C_7
REMARK    8  A    between atoms: C_16  and  C_17
REMARK    9  A    between atoms: C_17  and  N_18
REMARK   10  A    between atoms: C_19  and  C_21
REMARK                            x       y       z     vdW  Elec       q    Type
REMARK                         _______ _______ _______ _____ _____    ______ ____
ROOT
ATOM      1  C   UNL     1      49.966   5.245  19.581  0.00  0.00    +0.000 A 
ATOM      2  C   UNL     1      50.115   5.645  18.239  0.00  0.00    +0.000 A 
ATOM      3  C   UNL     1      49.368   5.043  17.222  0.00  0.00    +0.000 A 
ATOM      4  C   UNL     1      48.409   4.073  17.528  0.00  0.00    +0.000 A 
ATOM      5  C   UNL     1      48.256   3.669  18.856  0.00  0.00    +0.000 A 
ATOM      6  C   UNL     1      49.033   4.235  19.866  0.00  0.00    +0.000 A 
ENDROOT
BRANCH   1   7
ATOM      7  C   UNL     1      50.881   5.833  20.661  0.00  0.00    +0.000 C 
BRANCH   7   8
ATOM      8  N   UNL     1      50.551   7.255  20.939  0.00  0.00    +0.000 NA
ATOM      9  H   UNL     1      50.457   7.758  20.061  0.00  0.00    +0.000 HD
BRANCH   8  10
ATOM     10  C   UNL     1      49.311   7.391  21.710  0.00  0.00    +0.000 C 
BRANCH  10  11
ATOM     11  C   UNL     1      48.266   8.287  21.089  0.00  0.00    +0.000 A 
ATOM     12  C   UNL     1      47.379   8.977  21.936  0.00  0.00    +0.000 A 
ATOM     13  C   UNL     1      46.464   9.893  21.421  0.00  0.00    +0.000 A 
ATOM     14  C   UNL     1      46.430  10.136  20.048  0.00  0.00    +0.000 A 
ATOM     15  C   UNL     1      47.305   9.461  19.199  0.00  0.00    +0.000 A 
ATOM     16  C   UNL     1      48.224   8.546  19.715  0.00  0.00    +0.000 A 
ENDBRANCH  10  11
ENDBRANCH   8  10
ENDBRANCH   7   8
BRANCH   7  17
ATOM     17  C   UNL     1      52.380   5.655  20.263  0.00  0.00    +0.000 C 
BRANCH  17  19
ATOM     18  C   UNL     1      53.341   3.995  21.620  0.00  0.00    +0.000 C 
ATOM     19  O   UNL     1      52.824   4.295  20.325  0.00  0.00    +0.000 OA
ENDBRANCH  17  19
ENDBRANCH   7  17
ENDBRANCH   1   7
BRANCH   4  20
ATOM     20  C   UNL     1      47.575   3.433  16.453  0.00  0.00    +0.000 C 
BRANCH  20  21
ATOM     21  N   UNL     1      46.957   4.423  15.610  0.00  0.00    +0.000 N 
ATOM     22  C   UNL     1      46.806   4.197  14.267  0.00  0.00    +0.000 C 
ATOM     23  O   UNL     1      47.147   3.137  13.747  0.00  0.00    +0.000 OA
ATOM     24  H   UNL     1      46.888   5.369  15.970  0.00  0.00    +0.000 HD
BRANCH  22  25
ATOM     25  C   UNL     1      46.163   5.257  13.486  0.00  0.00    +0.000 A 
ATOM     26  C   UNL     1      46.824   6.463  13.296  0.00  0.00    +0.000 A 
ATOM     27  S   UNL     1      45.968   7.567  12.321  0.00  0.00    +0.000 S 
ATOM     28  C   UNL     1      44.659   6.493  12.160  0.00  0.00    +0.000 A 
ATOM     29  N   UNL     1      43.555   6.840  11.448  0.00  0.00    +0.000 NA
ATOM     30  C   UNL     1      42.626   5.946  11.432  0.00  0.00    +0.000 A 
ATOM     31  N   UNL     1      42.701   4.731  12.062  0.00  0.00    +0.000 N 
ATOM     32  C   UNL     1      43.808   4.322  12.770  0.00  0.00    +0.000 A 
ATOM     33  O   UNL     1      43.855   3.213  13.291  0.00  0.00    +0.000 OA
ATOM     34  C   UNL     1      44.878   5.300  12.827  0.00  0.00    +0.000 A 
ATOM     35  H   UNL     1      41.939   4.072  12.004  0.00  0.00    +0.000 HD
ENDBRANCH  22  25
ENDBRANCH  20  21
ENDBRANCH   4  20
TORSDOF 9
ENDMDL
