MODEL 1
REMARK VINA RESULT:    -7.500      0.000      0.000
REMARK INTER + INTRA:         -11.065
REMARK INTER:                 -10.130
REMARK INTRA:                  -0.935
REMARK UNBOUND:                -0.935
REMARK  Name = 
REMARK  8 active torsions:
REMARK  status: ('A' for Active; 'I' for Inactive)
REMARK    1  A    between atoms: C_1  and  O_2
REMARK    2  A    between atoms: O_2  and  C_3
REMARK    3  A    between atoms: C_7  and  C_8
REMARK    4  A    between atoms: C_8  and  C_9
REMARK    5  A    between atoms: C_8  and  C_10
REMARK    6  A    between atoms: C_10  and  O_11
REMARK    7  A    between atoms: O_11  and  C_12
REMARK    8  A    between atoms: C_15  and  C_16
REMARK                            x       y       z     vdW  Elec       q    Type
REMARK                         _______ _______ _______ _____ _____    ______ ____
ROOT
ATOM      1  O   UNL     1      43.578   3.616  10.362  0.00  0.00    +0.000 OA
ENDROOT
BRANCH   1   2
ATOM      2  C   UNL     1      44.514   3.280   9.404  0.00  0.00    +0.000 A 
ATOM      3  C   UNL     1      45.054   4.314   8.658  0.00  0.00    +0.000 A 
ATOM      4  C   UNL     1      46.038   4.005   7.717  0.00  0.00    +0.000 A 
ATOM      5  C   UNL     1      46.451   2.676   7.551  0.00  0.00    +0.000 A 
ATOM      6  C   UNL     1      45.834   1.718   8.338  0.00  0.00    +0.000 A 
ATOM      7  N   UNL     1      44.878   1.987   9.256  0.00  0.00    +0.000 NA
BRANCH   5   8
ATOM      8  C   UNL     1      47.522   2.361   6.577  0.00  0.00    +0.000 C 
ATOM      9  N   UNL     1      47.439   2.869   5.309  0.00  0.00    +0.000 N 
ATOM     10  O   UNL     1      48.470   1.650   6.889  0.00  0.00    +0.000 OA
ATOM     11  H   UNL     1      46.710   3.463   4.946  0.00  0.00    +0.000 HD
ATOM     12  H   UNL     1      48.188   2.617   4.676  0.00  0.00    +0.000 HD
ENDBRANCH   5   8
ENDBRANCH   1   2
BRANCH   1  13
ATOM     13  C   UNL     1      43.619   5.011  10.689  0.00  0.00    +0.000 C 
BRANCH  13  14
ATOM     14  C   UNL     1      43.793   5.199  12.207  0.00  0.00    +0.000 C 
ATOM     15  C   UNL     1      43.407   3.926  12.969  0.00  0.00    +0.000 C 
BRANCH  14  20
ATOM     16  C   UNL     1      47.263   5.646  13.807  0.00  0.00    +0.000 A 
ATOM     17  C   UNL     1      47.918   6.378  12.819  0.00  0.00    +0.000 A 
ATOM     18  C   UNL     1      47.229   6.772  11.670  0.00  0.00    +0.000 A 
ATOM     19  C   UNL     1      45.887   6.425  11.499  0.00  0.00    +0.000 A 
ATOM     20  C   UNL     1      45.210   5.684  12.478  0.00  0.00    +0.000 A 
ATOM     21  C   UNL     1      45.915   5.314  13.635  0.00  0.00    +0.000 A 
BRANCH  16  23
ATOM     22  C   UNL     1      47.241   4.010  15.531  0.00  0.00    +0.000 C 
ATOM     23  O   UNL     1      47.820   5.178  14.966  0.00  0.00    +0.000 OA
ENDBRANCH  16  23
ENDBRANCH  14  20
ENDBRANCH  13  14
ENDBRANCH   1  13
TORSDOF 6
ENDMDL
MODEL 2
REMARK VINA RESULT:    -6.971      1.519      2.306
REMARK INTER + INTRA:         -10.350
REMARK INTER:                  -9.630
REMARK INTRA:                  -0.720
REMARK UNBOUND:                -0.935
REMARK  Name = 
REMARK  8 active torsions:
REMARK  status: ('A' for Active; 'I' for Inactive)
REMARK    1  A    between atoms: C_1  and  O_2
REMARK    2  A    between atoms: O_2  and  C_3
REMARK    3  A    between atoms: C_7  and  C_8
REMARK    4  A    between atoms: C_8  and  C_9
REMARK    5  A    between atoms: C_8  and  C_10
REMARK    6  A    between atoms: C_10  and  O_11
REMARK    7  A    between atoms: O_11  and  C_12
REMARK    8  A    between atoms: C_15  and  C_16
REMARK                            x       y       z     vdW  Elec       q    Type
REMARK                         _______ _______ _______ _____ _____    ______ ____
ROOT
ATOM      1  O   UNL     1      44.114   4.898   9.592  0.00  0.00    +0.000 OA
ENDROOT
BRANCH   1   2
ATOM      2  C   UNL     1      44.976   4.056   8.918  0.00  0.00    +0.000 A 
ATOM      3  C   UNL     1      44.887   2.703   9.198  0.00  0.00    +0.000 A 
ATOM      4  C   UNL     1      45.715   1.827   8.494  0.00  0.00    +0.000 A 
ATOM      5  C   UNL     1      46.604   2.328   7.533  0.00  0.00    +0.000 A 
ATOM      6  C   UNL     1      46.623   3.701   7.343  0.00  0.00    +0.000 A 
ATOM      7  N   UNL     1      45.834   4.573   8.011  0.00  0.00    +0.000 NA
BRANCH   5   8
ATOM      8  C   UNL     1      47.453   1.389   6.763  0.00  0.00    +0.000 C 
ATOM      9  N   UNL     1      48.539   1.876   6.087  0.00  0.00    +0.000 N 
ATOM     10  O   UNL     1      47.192   0.194   6.719  0.00  0.00    +0.000 OA
ATOM     11  H   UNL     1      48.847   2.834   6.056  0.00  0.00    +0.000 HD
ATOM     12  H   UNL     1      49.082   1.198   5.567  0.00  0.00    +0.000 HD
ENDBRANCH   5   8
ENDBRANCH   1   2
BRANCH   1  13
ATOM     13  C   UNL     1      43.693   4.346  10.846  0.00  0.00    +0.000 C 
BRANCH  13  14
ATOM     14  C   UNL     1      43.810   5.400  11.961  0.00  0.00    +0.000 C 
ATOM     15  C   UNL     1      42.882   5.068  13.135  0.00  0.00    +0.000 C 
BRANCH  14  20
ATOM     16  C   UNL     1      47.421   6.706  12.197  0.00  0.00    +0.000 A 
ATOM     17  C   UNL     1      47.905   5.958  13.268  0.00  0.00    +0.000 A 
ATOM     18  C   UNL     1      47.089   4.999  13.873  0.00  0.00    +0.000 A 
ATOM     19  C   UNL     1      45.784   4.795  13.419  0.00  0.00    +0.000 A 
ATOM     20  C   UNL     1      45.276   5.542  12.346  0.00  0.00    +0.000 A 
ATOM     21  C   UNL     1      46.118   6.487  11.738  0.00  0.00    +0.000 A 
BRANCH  16  23
ATOM     22  C   UNL     1      49.078   8.409  12.267  0.00  0.00    +0.000 C 
ATOM     23  O   UNL     1      48.101   7.688  11.529  0.00  0.00    +0.000 OA
ENDBRANCH  16  23
ENDBRANCH  14  20
ENDBRANCH  13  14
ENDBRANCH   1  13
TORSDOF 6
ENDMDL
MODEL 3
REMARK VINA RESULT:    -6.689      1.137      1.329
REMARK INTER + INTRA:          -9.970
REMARK INTER:                  -9.190
REMARK INTRA:                  -0.780
REMARK UNBOUND:                -0.935
REMARK  Name = 
REMARK  8 active torsions:
REMARK  status: ('A' for Active; 'I' for Inactive)
REMARK    1  A    between atoms: C_1  and  O_2
REMARK    2  A    between atoms: O_2  and  C_3
REMARK    3  A    between atoms: C_7  and  C_8
REMARK    4  A    between atoms: C_8  and  C_9
REMARK    5  A    between atoms: C_8  and  C_10
REMARK    6  A    between atoms: C_10  and  O_11
REMARK    7  A    between atoms: O_11  and  C_12
REMARK    8  A    between atoms: C_15  and  C_16
REMARK                            x       y       z     vdW  Elec       q    Type
REMARK                         _______ _______ _______ _____ _____    ______ ____
ROOT
ATOM      1  O   UNL     1      44.012   3.551  10.562  0.00  0.00    +0.000 OA
ENDROOT
BRANCH   1   2
ATOM      2  C   UNL     1      44.851   3.221   9.516  0.00  0.00    +0.000 A 
ATOM      3  C   UNL     1      45.364   4.263   8.763  0.00  0.00    +0.000 A 
ATOM      4  C   UNL     1      46.252   3.956   7.730  0.00  0.00    +0.000 A 
ATOM      5  C   UNL     1      46.601   2.622   7.483  0.00  0.00    +0.000 A 
ATOM      6  C   UNL     1      46.017   1.656   8.287  0.00  0.00    +0.000 A 
ATOM      7  N   UNL     1      45.153   1.922   9.293  0.00  0.00    +0.000 NA
BRANCH   5   8
ATOM      8  C   UNL     1      47.573   2.307   6.410  0.00  0.00    +0.000 C 
ATOM      9  N   UNL     1      47.673   3.148   5.335  0.00  0.00    +0.000 N 
ATOM     10  O   UNL     1      48.277   1.306   6.470  0.00  0.00    +0.000 OA
ATOM     11  H   UNL     1      47.148   3.995   5.184  0.00  0.00    +0.000 HD
ATOM     12  H   UNL     1      48.343   2.886   4.623  0.00  0.00    +0.000 HD
ENDBRANCH   5   8
ENDBRANCH   1   2
BRANCH   1  13
ATOM     13  C   UNL     1      43.579   4.916  10.494  0.00  0.00    +0.000 C 
BRANCH  13  14
ATOM     14  C   UNL     1      43.488   5.519  11.906  0.00  0.00    +0.000 C 
ATOM     15  C   UNL     1      43.304   4.424  12.964  0.00  0.00    +0.000 C 
BRANCH  14  20
ATOM     16  C   UNL     1      47.054   6.702  12.732  0.00  0.00    +0.000 A 
ATOM     17  C   UNL     1      47.003   8.024  12.295  0.00  0.00    +0.000 A 
ATOM     18  C   UNL     1      45.810   8.545  11.789  0.00  0.00    +0.000 A 
ATOM     19  C   UNL     1      44.669   7.745  11.707  0.00  0.00    +0.000 A 
ATOM     20  C   UNL     1      44.701   6.410  12.136  0.00  0.00    +0.000 A 
ATOM     21  C   UNL     1      45.904   5.909  12.659  0.00  0.00    +0.000 A 
BRANCH  16  23
ATOM     22  C   UNL     1      49.148   6.868  13.843  0.00  0.00    +0.000 C 
ATOM     23  O   UNL     1      48.156   6.059  13.226  0.00  0.00    +0.000 OA
ENDBRANCH  16  23
ENDBRANCH  14  20
ENDBRANCH  13  14
ENDBRANCH   1  13
TORSDOF 6
ENDMDL
MODEL 4
REMARK VINA RESULT:    -6.384      2.029      2.869
REMARK INTER + INTRA:          -9.557
REMARK INTER:                  -9.200
REMARK INTRA:                  -0.357
REMARK UNBOUND:                -0.935
REMARK  Name = 
REMARK  8 active torsions:
REMARK  status: ('A' for Active; 'I' for Inactive)
REMARK    1  A    between atoms: C_1  and  O_2
REMARK    2  A    between atoms: O_2  and  C_3
REMARK    3  A    between atoms: C_7  and  C_8
REMARK    4  A    between atoms: C_8  and  C_9
REMARK    5  A    between atoms: C_8  and  C_10
REMARK    6  A    between atoms: C_10  and  O_11
REMARK    7  A    between atoms: O_11  and  C_12
REMARK    8  A    between atoms: C_15  and  C_16
REMARK                            x       y       z     vdW  Elec       q    Type
REMARK                         _______ _______ _______ _____ _____    ______ ____
ROOT
ATOM      1  O   UNL     1      44.204   4.790   9.983  0.00  0.00    +0.000 OA
ENDROOT
BRANCH   1   2
ATOM      2  C   UNL     1      45.062   4.074   9.172  0.00  0.00    +0.000 A 
ATOM      3  C   UNL     1      45.013   2.694   9.261  0.00  0.00    +0.000 A 
ATOM      4  C   UNL     1      45.837   1.948   8.416  0.00  0.00    +0.000 A 
ATOM      5  C   UNL     1      46.681   2.603   7.509  0.00  0.00    +0.000 A 
ATOM      6  C   UNL     1      46.662   3.988   7.513  0.00  0.00    +0.000 A 
ATOM      7  N   UNL     1      45.877   4.736   8.321  0.00  0.00    +0.000 NA
BRANCH   5   8
ATOM      8  C   UNL     1      47.525   1.805   6.589  0.00  0.00    +0.000 C 
ATOM      9  N   UNL     1      48.683   2.351   6.106  0.00  0.00    +0.000 N 
ATOM     10  O   UNL     1      47.197   0.673   6.253  0.00  0.00    +0.000 OA
ATOM     11  H   UNL     1      49.049   3.265   6.316  0.00  0.00    +0.000 HD
ATOM     12  H   UNL     1      49.220   1.771   5.472  0.00  0.00    +0.000 HD
ENDBRANCH   5   8
ENDBRANCH   1   2
BRANCH   1  13
ATOM     13  C   UNL     1      43.764   4.022  11.111  0.00  0.00    +0.000 C 
BRANCH  13  14
ATOM     14  C   UNL     1      44.587   4.385  12.359  0.00  0.00    +0.000 C 
ATOM     15  C   UNL     1      45.545   3.250  12.739  0.00  0.00    +0.000 C 
BRANCH  14  20
ATOM     16  C   UNL     1      45.201   8.164  11.979  0.00  0.00    +0.000 A 
ATOM     17  C   UNL     1      46.593   8.204  11.944  0.00  0.00    +0.000 A 
ATOM     18  C   UNL     1      47.326   7.017  11.986  0.00  0.00    +0.000 A 
ATOM     19  C   UNL     1      46.672   5.787  12.077  0.00  0.00    +0.000 A 
ATOM     20  C   UNL     1      45.271   5.724  12.120  0.00  0.00    +0.000 A 
ATOM     21  C   UNL     1      44.551   6.927  12.056  0.00  0.00    +0.000 A 
BRANCH  16  23
ATOM     22  C   UNL     1      43.993   9.758  10.695  0.00  0.00    +0.000 C 
ATOM     23  O   UNL     1      44.363   9.246  11.967  0.00  0.00    +0.000 OA
ENDBRANCH  16  23
ENDBRANCH  14  20
ENDBRANCH  13  14
ENDBRANCH   1  13
TORSDOF 6
ENDMDL
MODEL 5
REMARK VINA RESULT:    -6.092      3.588      7.902
REMARK INTER + INTRA:          -9.163
REMARK INTER:                  -8.633
REMARK INTRA:                  -0.530
REMARK UNBOUND:                -0.935
REMARK  Name = 
REMARK  8 active torsions:
REMARK  status: ('A' for Active; 'I' for Inactive)
REMARK    1  A    between atoms: C_1  and  O_2
REMARK    2  A    between atoms: O_2  and  C_3
REMARK    3  A    between atoms: C_7  and  C_8
REMARK    4  A    between atoms: C_8  and  C_9
REMARK    5  A    between atoms: C_8  and  C_10
REMARK    6  A    between atoms: C_10  and  O_11
REMARK    7  A    between atoms: O_11  and  C_12
REMARK    8  A    between atoms: C_15  and  C_16
REMARK                            x       y       z     vdW  Elec       q    Type
REMARK                         _______ _______ _______ _____ _____    ______ ____
ROOT
ATOM      1  O   UNL     1      47.293   4.960  13.669  0.00  0.00    +0.000 OA
ENDROOT
BRANCH   1   2
ATOM      2  C   UNL     1      47.654   4.831  14.996  0.00  0.00    +0.000 A 
ATOM      3  C   UNL     1      47.208   3.704  15.666  0.00  0.00    +0.000 A 
ATOM      4  C   UNL     1      47.601   3.528  16.994  0.00  0.00    +0.000 A 
ATOM      5  C   UNL     1      48.426   4.479  17.610  0.00  0.00    +0.000 A 
ATOM      6  C   UNL     1      48.801   5.577  16.852  0.00  0.00    +0.000 A 
ATOM      7  N   UNL     1      48.435   5.775  15.565  0.00  0.00    +0.000 NA
BRANCH   5   8
ATOM      8  C   UNL     1      48.869   4.266  19.007  0.00  0.00    +0.000 C 
ATOM      9  N   UNL     1      48.358   3.212  19.714  0.00  0.00    +0.000 N 
ATOM     10  O   UNL     1      49.677   5.021  19.535  0.00  0.00    +0.000 OA
ATOM     11  H   UNL     1      47.694   2.531  19.382  0.00  0.00    +0.000 HD
ATOM     12  H   UNL     1      48.682   3.114  20.668  0.00  0.00    +0.000 HD
ENDBRANCH   5   8
ENDBRANCH   1   2
BRANCH   1  13
ATOM     13  C   UNL     1      45.901   5.267  13.518  0.00  0.00    +0.000 C 
BRANCH  13  14
ATOM     14  C   UNL     1      45.663   6.044  12.211  0.00  0.00    +0.000 C 
ATOM     15  C   UNL     1      46.910   6.840  11.807  0.00  0.00    +0.000 C 
BRANCH  14  20
ATOM     16  C   UNL     1      45.229   4.196   8.865  0.00  0.00    +0.000 A 
ATOM     17  C   UNL     1      44.464   3.102   9.263  0.00  0.00    +0.000 A 
ATOM     18  C   UNL     1      44.046   2.991  10.591  0.00  0.00    +0.000 A 
ATOM     19  C   UNL     1      44.400   3.965  11.526  0.00  0.00    +0.000 A 
ATOM     20  C   UNL     1      45.174   5.072  11.147  0.00  0.00    +0.000 A 
ATOM     21  C   UNL     1      45.569   5.176   9.804  0.00  0.00    +0.000 A 
BRANCH  16  23
ATOM     22  C   UNL     1      46.764   3.560   7.166  0.00  0.00    +0.000 C 
ATOM     23  O   UNL     1      45.723   4.419   7.608  0.00  0.00    +0.000 OA
ENDBRANCH  16  23
ENDBRANCH  14  20
ENDBRANCH  13  14
ENDBRANCH   1  13
TORSDOF 6
ENDMDL
MODEL 6
REMARK VINA RESULT:    -6.014      3.220      7.029
REMARK INTER + INTRA:          -9.058
REMARK INTER:                  -8.492
REMARK INTRA:                  -0.566
REMARK UNBOUND:                -0.935
REMARK  Name = 
REMARK  8 active torsions:
REMARK  status: ('A' for Active; 'I' for Inactive)
REMARK    1  A    between atoms: C_1  and  O_2
REMARK    2  A    between atoms: O_2  and  C_3
REMARK    3  A    between atoms: C_7  and  C_8
REMARK    4  A    between atoms: C_8  and  C_9
REMARK    5  A    between atoms: C_8  and  C_10
REMARK    6  A    between atoms: C_10  and  O_11
REMARK    7  A    between atoms: O_11  and  C_12
REMARK    8  A    between atoms: C_15  and  C_16
REMARK                            x       y       z     vdW  Elec       q    Type
REMARK                         _______ _______ _______ _____ _____    ______ ____
ROOT
ATOM      1  O   UNL     1      45.630   3.918  13.309  0.00  0.00    +0.000 OA
ENDROOT
BRANCH   1   2
ATOM      2  C   UNL     1      46.575   4.507  14.126  0.00  0.00    +0.000 A 
ATOM      3  C   UNL     1      47.181   5.662  13.662  0.00  0.00    +0.000 A 
ATOM      4  C   UNL     1      48.105   6.301  14.491  0.00  0.00    +0.000 A 
ATOM      5  C   UNL     1      48.392   5.770  15.756  0.00  0.00    +0.000 A 
ATOM      6  C   UNL     1      47.740   4.601  16.114  0.00  0.00    +0.000 A 
ATOM      7  N   UNL     1      46.843   3.959  15.332  0.00  0.00    +0.000 NA
BRANCH   5   8
ATOM      8  C   UNL     1      49.345   6.474  16.645  0.00  0.00    +0.000 C 
ATOM      9  N   UNL     1      48.958   7.642  17.244  0.00  0.00    +0.000 N 
ATOM     10  O   UNL     1      50.470   6.030  16.843  0.00  0.00    +0.000 OA
ATOM     11  H   UNL     1      48.062   8.095  17.154  0.00  0.00    +0.000 HD
ATOM     12  H   UNL     1      49.647   8.092  17.834  0.00  0.00    +0.000 HD
ENDBRANCH   5   8
ENDBRANCH   1   2
BRANCH   1  13
ATOM     13  C   UNL     1      45.058   4.855  12.386  0.00  0.00    +0.000 C 
BRANCH  13  14
ATOM     14  C   UNL     1      44.125   4.131  11.400  0.00  0.00    +0.000 C 
ATOM     15  C   UNL     1      42.863   4.957  11.125  0.00  0.00    +0.000 C 
BRANCH  14  20
ATOM     16  C   UNL     1      45.767   2.119   8.560  0.00  0.00    +0.000 A 
ATOM     17  C   UNL     1      46.157   3.144   7.701  0.00  0.00    +0.000 A 
ATOM     18  C   UNL     1      45.942   4.476   8.061  0.00  0.00    +0.000 A 
ATOM     19  C   UNL     1      45.325   4.788   9.274  0.00  0.00    +0.000 A 
ATOM     20  C   UNL     1      44.919   3.772  10.152  0.00  0.00    +0.000 A 
ATOM     21  C   UNL     1      45.162   2.439   9.781  0.00  0.00    +0.000 A 
BRANCH  16  23
ATOM     22  C   UNL     1      46.921   0.379   7.426  0.00  0.00    +0.000 C 
ATOM     23  O   UNL     1      45.896   0.778   8.325  0.00  0.00    +0.000 OA
ENDBRANCH  16  23
ENDBRANCH  14  20
ENDBRANCH  13  14
ENDBRANCH   1  13
TORSDOF 6
ENDMDL
MODEL 7
REMARK VINA RESULT:    -5.892      3.329      6.132
REMARK INTER + INTRA:          -8.894
REMARK INTER:                  -8.402
REMARK INTRA:                  -0.492
REMARK UNBOUND:                -0.935
REMARK  Name = 
REMARK  8 active torsions:
REMARK  status: ('A' for Active; 'I' for Inactive)
REMARK    1  A    between atoms: C_1  and  O_2
REMARK    2  A    between atoms: O_2  and  C_3
REMARK    3  A    between atoms: C_7  and  C_8
REMARK    4  A    between atoms: C_8  and  C_9
REMARK    5  A    between atoms: C_8  and  C_10
REMARK    6  A    between atoms: C_10  and  O_11
REMARK    7  A    between atoms: O_11  and  C_12
REMARK    8  A    between atoms: C_15  and  C_16
REMARK                            x       y       z     vdW  Elec       q    Type
REMARK                         _______ _______ _______ _____ _____    ______ ____
ROOT
ATOM      1  O   UNL     1      47.764   4.705  14.658  0.00  0.00    +0.000 OA
ENDROOT
BRANCH   1   2
ATOM      2  C   UNL     1      46.739   4.749  13.733  0.00  0.00    +0.000 A 
ATOM      3  C   UNL     1      46.393   5.992  13.231  0.00  0.00    +0.000 A 
ATOM      4  C   UNL     1      45.393   6.056  12.259  0.00  0.00    +0.000 A 
ATOM      5  C   UNL     1      44.772   4.879  11.818  0.00  0.00    +0.000 A 
ATOM      6  C   UNL     1      45.184   3.690  12.398  0.00  0.00    +0.000 A 
ATOM      7  N   UNL     1      46.149   3.598  13.342  0.00  0.00    +0.000 NA
BRANCH   5   8
ATOM      8  C   UNL     1      43.738   4.951  10.759  0.00  0.00    +0.000 C 
ATOM      9  N   UNL     1      44.034   4.484   9.508  0.00  0.00    +0.000 N 
ATOM     10  O   UNL     1      42.633   5.427  10.988  0.00  0.00    +0.000 OA
ATOM     11  H   UNL     1      44.904   4.072   9.210  0.00  0.00    +0.000 HD
ATOM     12  H   UNL     1      43.300   4.564   8.815  0.00  0.00    +0.000 HD
ENDBRANCH   5   8
ENDBRANCH   1   2
BRANCH   1  13
ATOM     13  C   UNL     1      47.310   4.261  15.943  0.00  0.00    +0.000 C 
BRANCH  13  14
ATOM     14  C   UNL     1      47.979   5.082  17.059  0.00  0.00    +0.000 C 
ATOM     15  C   UNL     1      47.079   5.169  18.297  0.00  0.00    +0.000 C 
BRANCH  14  20
ATOM     16  C   UNL     1      50.895   2.599  17.428  0.00  0.00    +0.000 A 
ATOM     17  C   UNL     1      51.970   3.473  17.575  0.00  0.00    +0.000 A 
ATOM     18  C   UNL     1      51.748   4.851  17.611  0.00  0.00    +0.000 A 
ATOM     19  C   UNL     1      50.455   5.361  17.487  0.00  0.00    +0.000 A 
ATOM     20  C   UNL     1      49.359   4.499  17.332  0.00  0.00    +0.000 A 
ATOM     21  C   UNL     1      49.600   3.116  17.318  0.00  0.00    +0.000 A 
BRANCH  16  23
ATOM     22  C   UNL     1      52.196   0.637  17.752  0.00  0.00    +0.000 C 
ATOM     23  O   UNL     1      50.970   1.235  17.355  0.00  0.00    +0.000 OA
ENDBRANCH  16  23
ENDBRANCH  14  20
ENDBRANCH  13  14
ENDBRANCH   1  13
TORSDOF 6
ENDMDL
MODEL 8
REMARK VINA RESULT:    -5.887      3.559      7.708
REMARK INTER + INTRA:          -8.887
REMARK INTER:                  -8.372
REMARK INTRA:                  -0.515
REMARK UNBOUND:                -0.935
REMARK  Name = 
REMARK  8 active torsions:
REMARK  status: ('A' for Active; 'I' for Inactive)
REMARK    1  A    between atoms: C_1  and  O_2
REMARK    2  A    between atoms: O_2  and  C_3
REMARK    3  A    between atoms: C_7  and  C_8
REMARK    4  A    between atoms: C_8  and  C_9
REMARK    5  A    between atoms: C_8  and  C_10
REMARK    6  A    between atoms: C_10  and  O_11
REMARK    7  A    between atoms: O_11  and  C_12
REMARK    8  A    between atoms: C_15  and  C_16
REMARK                            x       y       z     vdW  Elec       q    Type
REMARK                         _______ _______ _______ _____ _____    ______ ____
ROOT
ATOM      1  O   UNL     1      46.751   4.167  13.888  0.00  0.00    +0.000 OA
ENDROOT
BRANCH   1   2
ATOM      2  C   UNL     1      47.264   4.294  15.164  0.00  0.00    +0.000 A 
ATOM      3  C   UNL     1      47.942   5.464  15.460  0.00  0.00    +0.000 A 
ATOM      4  C   UNL     1      48.427   5.635  16.758  0.00  0.00    +0.000 A 
ATOM      5  C   UNL     1      48.220   4.635  17.718  0.00  0.00    +0.000 A 
ATOM      6  C   UNL     1      47.543   3.497  17.310  0.00  0.00    +0.000 A 
ATOM      7  N   UNL     1      47.063   3.303  16.061  0.00  0.00    +0.000 NA
BRANCH   5   8
ATOM      8  C   UNL     1      48.705   4.840  19.103  0.00  0.00    +0.000 C 
ATOM      9  N   UNL     1      48.565   3.828  20.013  0.00  0.00    +0.000 N 
ATOM     10  O   UNL     1      49.219   5.899  19.441  0.00  0.00    +0.000 OA
ATOM     11  H   UNL     1      48.162   2.920  19.845  0.00  0.00    +0.000 HD
ATOM     12  H   UNL     1      48.902   4.019  20.949  0.00  0.00    +0.000 HD
ENDBRANCH   5   8
ENDBRANCH   1   2
BRANCH   1  13
ATOM     13  C   UNL     1      45.654   5.061  13.658  0.00  0.00    +0.000 C 
BRANCH  13  14
ATOM     14  C   UNL     1      44.539   4.347  12.874  0.00  0.00    +0.000 C 
ATOM     15  C   UNL     1      43.188   5.045  13.075  0.00  0.00    +0.000 C 
BRANCH  14  20
ATOM     16  C   UNL     1      45.174   2.931   9.354  0.00  0.00    +0.000 A 
ATOM     17  C   UNL     1      45.510   4.091   8.658  0.00  0.00    +0.000 A 
ATOM     18  C   UNL     1      45.584   5.312   9.332  0.00  0.00    +0.000 A 
ATOM     19  C   UNL     1      45.312   5.380  10.700  0.00  0.00    +0.000 A 
ATOM     20  C   UNL     1      44.967   4.225  11.418  0.00  0.00    +0.000 A 
ATOM     21  C   UNL     1      44.916   3.004  10.726  0.00  0.00    +0.000 A 
BRANCH  16  23
ATOM     22  C   UNL     1      46.171   1.155   8.129  0.00  0.00    +0.000 C 
ATOM     23  O   UNL     1      45.044   1.680   8.817  0.00  0.00    +0.000 OA
ENDBRANCH  16  23
ENDBRANCH  14  20
ENDBRANCH  13  14
ENDBRANCH   1  13
TORSDOF 6
ENDMDL
MODEL 9
REMARK VINA RESULT:    -5.721      4.113      7.966
REMARK INTER + INTRA:          -8.662
REMARK INTER:                  -8.148
REMARK INTRA:                  -0.514
REMARK UNBOUND:                -0.935
REMARK  Name = 
REMARK  8 active torsions:
REMARK  status: ('A' for Active; 'I' for Inactive)
REMARK    1  A    between atoms: C_1  and  O_2
REMARK    2  A    between atoms: O_2  and  C_3
REMARK    3  A    between atoms: C_7  and  C_8
REMARK    4  A    between atoms: C_8  and  C_9
REMARK    5  A    between atoms: C_8  and  C_10
REMARK    6  A    between atoms: C_10  and  O_11
REMARK    7  A    between atoms: O_11  and  C_12
REMARK    8  A    between atoms: C_15  and  C_16
REMARK                            x       y       z     vdW  Elec       q    Type
REMARK                         _______ _______ _______ _____ _____    ______ ____
ROOT
ATOM      1  O   UNL     1      46.895   3.827  15.910  0.00  0.00    +0.000 OA
ENDROOT
BRANCH   1   2
ATOM      2  C   UNL     1      48.145   3.682  16.477  0.00  0.00    +0.000 A 
ATOM      3  C   UNL     1      48.629   2.393  16.621  0.00  0.00    +0.000 A 
ATOM      4  C   UNL     1      49.911   2.223  17.147  0.00  0.00    +0.000 A 
ATOM      5  C   UNL     1      50.669   3.344  17.513  0.00  0.00    +0.000 A 
ATOM      6  C   UNL     1      50.082   4.588  17.342  0.00  0.00    +0.000 A 
ATOM      7  N   UNL     1      48.843   4.782  16.836  0.00  0.00    +0.000 NA
BRANCH   5   8
ATOM      8  C   UNL     1      52.042   3.158  18.036  0.00  0.00    +0.000 C 
ATOM      9  N   UNL     1      52.442   1.909  18.428  0.00  0.00    +0.000 N 
ATOM     10  O   UNL     1      52.815   4.104  18.128  0.00  0.00    +0.000 OA
ATOM     11  H   UNL     1      51.893   1.065  18.394  0.00  0.00    +0.000 HD
ATOM     12  H   UNL     1      53.385   1.834  18.788  0.00  0.00    +0.000 HD
ENDBRANCH   5   8
ENDBRANCH   1   2
BRANCH   1  13
ATOM     13  C   UNL     1      46.958   3.902  14.479  0.00  0.00    +0.000 C 
BRANCH  13  14
ATOM     14  C   UNL     1      46.335   5.219  13.985  0.00  0.00    +0.000 C 
ATOM     15  C   UNL     1      47.416   6.205  13.527  0.00  0.00    +0.000 C 
BRANCH  14  20
ATOM     16  C   UNL     1      44.500   3.534  11.054  0.00  0.00    +0.000 A 
ATOM     17  C   UNL     1      43.248   4.141  11.140  0.00  0.00    +0.000 A 
ATOM     18  C   UNL     1      43.017   5.127  12.102  0.00  0.00    +0.000 A 
ATOM     19  C   UNL     1      44.029   5.500  12.988  0.00  0.00    +0.000 A 
ATOM     20  C   UNL     1      45.294   4.897  12.922  0.00  0.00    +0.000 A 
ATOM     21  C   UNL     1      45.514   3.923  11.935  0.00  0.00    +0.000 A 
BRANCH  16  23
ATOM     22  C   UNL     1      44.499   2.733   8.816  0.00  0.00    +0.000 C 
ATOM     23  O   UNL     1      44.856   2.545  10.179  0.00  0.00    +0.000 OA
ENDBRANCH  16  23
ENDBRANCH  14  20
ENDBRANCH  13  14
ENDBRANCH   1  13
TORSDOF 6
ENDMDL
