MODEL 1
REMARK VINA RESULT:    -7.884      0.000      0.000
REMARK INTER + INTRA:         -13.287
REMARK INTER:                 -12.032
REMARK INTRA:                  -1.255
REMARK UNBOUND:                -1.255
REMARK  Name = 
REMARK  11 active torsions:
REMARK  status: ('A' for Active; 'I' for Inactive)
REMARK    1  A    between atoms: C_1  and  O_2
REMARK    2  A    between atoms: O_2  and  C_3
REMARK    3  A    between atoms: C_6  and  C_7
REMARK    4  A    between atoms: C_7  and  O_8
REMARK    5  A    between atoms: O_8  and  C_9
REMARK    6  A    between atoms: C_9  and  C_10
REMARK    7  A    between atoms: C_13  and  C_14
REMARK    8  A    between atoms: C_14  and  N_15
REMARK    9  A    between atoms: C_16  and  C_18
REMARK   10  A    between atoms: C_25  and  O_26
REMARK   11  A    between atoms: O_26  and  C_27
REMARK                            x       y       z     vdW  Elec       q    Type
REMARK                         _______ _______ _______ _____ _____    ______ ____
ROOT
ATOM      1  C   UNL     1      44.564   5.567  11.717  0.00  0.00    +0.000 A 
ATOM      2  C   UNL     1      44.837   5.013  12.975  0.00  0.00    +0.000 A 
ATOM      3  C   UNL     1      46.044   5.282  13.630  0.00  0.00    +0.000 A 
ATOM      4  C   UNL     1      46.997   6.128  13.048  0.00  0.00    +0.000 A 
ATOM      5  C   UNL     1      46.725   6.676  11.788  0.00  0.00    +0.000 A 
ATOM      6  C   UNL     1      45.525   6.396  11.127  0.00  0.00    +0.000 A 
ENDROOT
BRANCH   1   7
ATOM      7  C   UNL     1      43.266   5.262  11.010  0.00  0.00    +0.000 C 
BRANCH   7   8
ATOM      8  O   UNL     1      43.548   4.655   9.753  0.00  0.00    +0.000 OA
BRANCH   8   9
ATOM      9  C   UNL     1      43.980   3.303   9.904  0.00  0.00    +0.000 C 
BRANCH   9  13
ATOM     10  C   UNL     1      47.128   2.351   7.085  0.00  0.00    +0.000 A 
ATOM     11  C   UNL     1      46.683   3.665   7.219  0.00  0.00    +0.000 A 
ATOM     12  C   UNL     1      45.661   3.974   8.123  0.00  0.00    +0.000 A 
ATOM     13  C   UNL     1      45.059   2.975   8.901  0.00  0.00    +0.000 A 
ATOM     14  C   UNL     1      45.527   1.661   8.776  0.00  0.00    +0.000 A 
ATOM     15  C   UNL     1      46.549   1.354   7.871  0.00  0.00    +0.000 A 
BRANCH  10  17
ATOM     16  C   UNL     1      47.732   1.708   4.879  0.00  0.00    +0.000 C 
ATOM     17  O   UNL     1      48.108   1.915   6.235  0.00  0.00    +0.000 OA
ENDBRANCH  10  17
ENDBRANCH   9  13
ENDBRANCH   8   9
ENDBRANCH   7   8
ENDBRANCH   1   7
BRANCH   4  18
ATOM     18  C   UNL     1      48.304   6.420  13.742  0.00  0.00    +0.000 C 
BRANCH  18  19
ATOM     19  N   UNL     1      48.097   6.758  15.129  0.00  0.00    +0.000 N 
ATOM     20  C   UNL     1      49.127   6.743  16.033  0.00  0.00    +0.000 C 
ATOM     21  O   UNL     1      50.289   6.534  15.695  0.00  0.00    +0.000 OA
ATOM     22  H   UNL     1      47.150   6.752  15.482  0.00  0.00    +0.000 HD
BRANCH  20  23
ATOM     23  C   UNL     1      48.774   7.067  17.423  0.00  0.00    +0.000 A 
ATOM     24  C   UNL     1      48.444   8.378  17.742  0.00  0.00    +0.000 A 
ATOM     25  S   UNL     1      47.968   8.585  19.360  0.00  0.00    +0.000 S 
ATOM     26  C   UNL     1      48.247   6.946  19.705  0.00  0.00    +0.000 A 
ATOM     27  N   UNL     1      48.028   6.491  20.955  0.00  0.00    +0.000 NA
ATOM     28  C   UNL     1      48.305   5.192  21.129  0.00  0.00    +0.000 A 
ATOM     29  C   UNL     1      48.789   4.344  20.153  0.00  0.00    +0.000 A 
ATOM     30  C   UNL     1      49.004   4.845  18.867  0.00  0.00    +0.000 A 
ATOM     31  C   UNL     1      48.705   6.214  18.608  0.00  0.00    +0.000 A 
BRANCH  30  32
ATOM     32  O   UNL     1      49.498   4.090  17.834  0.00  0.00    +0.000 OA
ATOM     33  C   UNL     1      48.753   2.946  17.430  0.00  0.00    +0.000 C 
ENDBRANCH  30  32
ENDBRANCH  20  23
ENDBRANCH  18  19
ENDBRANCH   4  18
TORSDOF 9
ENDMDL
MODEL 2
REMARK VINA RESULT:    -7.806      1.274      2.416
REMARK INTER + INTRA:         -13.168
REMARK INTER:                 -11.821
REMARK INTRA:                  -1.347
REMARK UNBOUND:                -1.255
REMARK  Name = 
REMARK  11 active torsions:
REMARK  status: ('A' for Active; 'I' for Inactive)
REMARK    1  A    between atoms: C_1  and  O_2
REMARK    2  A    between atoms: O_2  and  C_3
REMARK    3  A    between atoms: C_6  and  C_7
REMARK    4  A    between atoms: C_7  and  O_8
REMARK    5  A    between atoms: O_8  and  C_9
REMARK    6  A    between atoms: C_9  and  C_10
REMARK    7  A    between atoms: C_13  and  C_14
REMARK    8  A    between atoms: C_14  and  N_15
REMARK    9  A    between atoms: C_16  and  C_18
REMARK   10  A    between atoms: C_25  and  O_26
REMARK   11  A    between atoms: O_26  and  C_27
REMARK                            x       y       z     vdW  Elec       q    Type
REMARK                         _______ _______ _______ _____ _____    ______ ____
ROOT
ATOM      1  C   UNL     1      44.750   5.295  11.571  0.00  0.00    +0.000 A 
ATOM      2  C   UNL     1      45.571   6.289  11.022  0.00  0.00    +0.000 A 
ATOM      3  C   UNL     1      46.682   6.770  11.725  0.00  0.00    +0.000 A 
ATOM      4  C   UNL     1      47.007   6.252  12.984  0.00  0.00    +0.000 A 
ATOM      5  C   UNL     1      46.181   5.264  13.535  0.00  0.00    +0.000 A 
ATOM      6  C   UNL     1      45.063   4.793  12.840  0.00  0.00    +0.000 A 
ENDROOT
BRANCH   1   7
ATOM      7  C   UNL     1      43.545   4.791  10.815  0.00  0.00    +0.000 C 
BRANCH   7   8
ATOM      8  O   UNL     1      43.964   4.265   9.560  0.00  0.00    +0.000 OA
BRANCH   8   9
ATOM      9  C   UNL     1      44.428   2.921   9.680  0.00  0.00    +0.000 C 
BRANCH   9  13
ATOM     10  C   UNL     1      47.185   1.944   6.484  0.00  0.00    +0.000 A 
ATOM     11  C   UNL     1      46.638   3.223   6.570  0.00  0.00    +0.000 A 
ATOM     12  C   UNL     1      45.742   3.539   7.596  0.00  0.00    +0.000 A 
ATOM     13  C   UNL     1      45.368   2.580   8.549  0.00  0.00    +0.000 A 
ATOM     14  C   UNL     1      45.939   1.304   8.469  0.00  0.00    +0.000 A 
ATOM     15  C   UNL     1      46.835   0.990   7.442  0.00  0.00    +0.000 A 
BRANCH  10  17
ATOM     16  C   UNL     1      47.499   1.071   4.298  0.00  0.00    +0.000 C 
ATOM     17  O   UNL     1      48.062   1.505   5.530  0.00  0.00    +0.000 OA
ENDBRANCH  10  17
ENDBRANCH   9  13
ENDBRANCH   8   9
ENDBRANCH   7   8
ENDBRANCH   1   7
BRANCH   4  18
ATOM     18  C   UNL     1      48.197   6.767  13.753  0.00  0.00    +0.000 C 
BRANCH  18  19
ATOM     19  N   UNL     1      48.026   6.576  15.173  0.00  0.00    +0.000 N 
ATOM     20  C   UNL     1      49.098   6.395  16.008  0.00  0.00    +0.000 C 
ATOM     21  O   UNL     1      50.256   6.477  15.609  0.00  0.00    +0.000 OA
ATOM     22  H   UNL     1      47.108   6.319  15.510  0.00  0.00    +0.000 HD
BRANCH  20  23
ATOM     23  C   UNL     1      48.784   6.170  17.427  0.00  0.00    +0.000 A 
ATOM     24  C   UNL     1      48.985   4.906  17.965  0.00  0.00    +0.000 A 
ATOM     25  S   UNL     1      48.670   4.818  19.632  0.00  0.00    +0.000 S 
ATOM     26  C   UNL     1      48.193   6.447  19.679  0.00  0.00    +0.000 A 
ATOM     27  N   UNL     1      47.793   6.981  20.850  0.00  0.00    +0.000 NA
ATOM     28  C   UNL     1      47.411   8.263  20.774  0.00  0.00    +0.000 A 
ATOM     29  C   UNL     1      47.397   9.022  19.620  0.00  0.00    +0.000 A 
ATOM     30  C   UNL     1      47.820   8.441  18.423  0.00  0.00    +0.000 A 
ATOM     31  C   UNL     1      48.262   7.086  18.439  0.00  0.00    +0.000 A 
BRANCH  30  32
ATOM     32  O   UNL     1      47.827   9.102  17.222  0.00  0.00    +0.000 OA
ATOM     33  C   UNL     1      48.853  10.061  16.996  0.00  0.00    +0.000 C 
ENDBRANCH  30  32
ENDBRANCH  20  23
ENDBRANCH  18  19
ENDBRANCH   4  18
TORSDOF 9
ENDMDL
MODEL 3
REMARK VINA RESULT:    -7.803      0.925      1.446
REMARK INTER + INTRA:         -13.163
REMARK INTER:                 -12.084
REMARK INTRA:                  -1.080
REMARK UNBOUND:                -1.255
REMARK  Name = 
REMARK  11 active torsions:
REMARK  status: ('A' for Active; 'I' for Inactive)
REMARK    1  A    between atoms: C_1  and  O_2
REMARK    2  A    between atoms: O_2  and  C_3
REMARK    3  A    between atoms: C_6  and  C_7
REMARK    4  A    between atoms: C_7  and  O_8
REMARK    5  A    between atoms: O_8  and  C_9
REMARK    6  A    between atoms: C_9  and  C_10
REMARK    7  A    between atoms: C_13  and  C_14
REMARK    8  A    between atoms: C_14  and  N_15
REMARK    9  A    between atoms: C_16  and  C_18
REMARK   10  A    between atoms: C_25  and  O_26
REMARK   11  A    between atoms: O_26  and  C_27
REMARK                            x       y       z     vdW  Elec       q    Type
REMARK                         _______ _______ _______ _____ _____    ______ ____
ROOT
ATOM      1  C   UNL     1      44.381   4.874  12.232  0.00  0.00    +0.000 A 
ATOM      2  C   UNL     1      44.322   6.245  11.947  0.00  0.00    +0.000 A 
ATOM      3  C   UNL     1      45.368   7.099  12.316  0.00  0.00    +0.000 A 
ATOM      4  C   UNL     1      46.505   6.596  12.960  0.00  0.00    +0.000 A 
ATOM      5  C   UNL     1      46.560   5.226  13.249  0.00  0.00    +0.000 A 
ATOM      6  C   UNL     1      45.509   4.375  12.894  0.00  0.00    +0.000 A 
ENDROOT
BRANCH   1   7
ATOM      7  C   UNL     1      43.243   3.961  11.845  0.00  0.00    +0.000 C 
BRANCH   7   8
ATOM      8  O   UNL     1      43.629   3.181  10.718  0.00  0.00    +0.000 OA
BRANCH   8   9
ATOM      9  C   UNL     1      43.966   4.001   9.599  0.00  0.00    +0.000 C 
BRANCH   9  13
ATOM     10  C   UNL     1      47.103   2.195   7.219  0.00  0.00    +0.000 A 
ATOM     11  C   UNL     1      46.333   1.408   8.075  0.00  0.00    +0.000 A 
ATOM     12  C   UNL     1      45.325   1.991   8.850  0.00  0.00    +0.000 A 
ATOM     13  C   UNL     1      45.074   3.369   8.792  0.00  0.00    +0.000 A 
ATOM     14  C   UNL     1      45.837   4.148   7.913  0.00  0.00    +0.000 A 
ATOM     15  C   UNL     1      46.845   3.564   7.139  0.00  0.00    +0.000 A 
BRANCH  10  17
ATOM     16  C   UNL     1      47.768   1.361   5.096  0.00  0.00    +0.000 C 
ATOM     17  O   UNL     1      48.120   1.754   6.417  0.00  0.00    +0.000 OA
ENDBRANCH  10  17
ENDBRANCH   9  13
ENDBRANCH   8   9
ENDBRANCH   7   8
ENDBRANCH   1   7
BRANCH   4  18
ATOM     18  C   UNL     1      47.635   7.507  13.367  0.00  0.00    +0.000 C 
BRANCH  18  19
ATOM     19  N   UNL     1      47.771   7.564  14.802  0.00  0.00    +0.000 N 
ATOM     20  C   UNL     1      48.883   7.078  15.439  0.00  0.00    +0.000 C 
ATOM     21  O   UNL     1      49.856   6.655  14.820  0.00  0.00    +0.000 OA
ATOM     22  H   UNL     1      46.938   7.726  15.351  0.00  0.00    +0.000 HD
BRANCH  20  23
ATOM     23  C   UNL     1      48.877   7.159  16.907  0.00  0.00    +0.000 A 
ATOM     24  C   UNL     1      48.959   8.409  17.508  0.00  0.00    +0.000 A 
ATOM     25  S   UNL     1      48.846   8.356  19.203  0.00  0.00    +0.000 S 
ATOM     26  C   UNL     1      48.750   6.661  19.194  0.00  0.00    +0.000 A 
ATOM     27  N   UNL     1      48.645   6.003  20.367  0.00  0.00    +0.000 NA
ATOM     28  C   UNL     1      48.605   4.669  20.252  0.00  0.00    +0.000 A 
ATOM     29  C   UNL     1      48.672   3.970  19.064  0.00  0.00    +0.000 A 
ATOM     30  C   UNL     1      48.778   4.680  17.865  0.00  0.00    +0.000 A 
ATOM     31  C   UNL     1      48.802   6.104  17.915  0.00  0.00    +0.000 A 
BRANCH  30  32
ATOM     32  O   UNL     1      48.869   4.080  16.636  0.00  0.00    +0.000 OA
ATOM     33  C   UNL     1      47.690   3.500  16.089  0.00  0.00    +0.000 C 
ENDBRANCH  30  32
ENDBRANCH  20  23
ENDBRANCH  18  19
ENDBRANCH   4  18
TORSDOF 9
ENDMDL
MODEL 4
REMARK VINA RESULT:    -7.446      2.249      2.611
REMARK INTER + INTRA:         -12.620
REMARK INTER:                 -10.968
REMARK INTRA:                  -1.652
REMARK UNBOUND:                -1.255
REMARK  Name = 
REMARK  11 active torsions:
REMARK  status: ('A' for Active; 'I' for Inactive)
REMARK    1  A    between atoms: C_1  and  O_2
REMARK    2  A    between atoms: O_2  and  C_3
REMARK    3  A    between atoms: C_6  and  C_7
REMARK    4  A    between atoms: C_7  and  O_8
REMARK    5  A    between atoms: O_8  and  C_9
REMARK    6  A    between atoms: C_9  and  C_10
REMARK    7  A    between atoms: C_13  and  C_14
REMARK    8  A    between atoms: C_14  and  N_15
REMARK    9  A    between atoms: C_16  and  C_18
REMARK   10  A    between atoms: C_25  and  O_26
REMARK   11  A    between atoms: O_26  and  C_27
REMARK                            x       y       z     vdW  Elec       q    Type
REMARK                         _______ _______ _______ _____ _____    ______ ____
ROOT
ATOM      1  C   UNL     1      44.646   5.547  12.873  0.00  0.00    +0.000 A 
ATOM      2  C   UNL     1      44.731   6.875  12.433  0.00  0.00    +0.000 A 
ATOM      3  C   UNL     1      45.967   7.529  12.360  0.00  0.00    +0.000 A 
ATOM      4  C   UNL     1      47.147   6.860  12.707  0.00  0.00    +0.000 A 
ATOM      5  C   UNL     1      47.060   5.535  13.152  0.00  0.00    +0.000 A 
ATOM      6  C   UNL     1      45.825   4.886  13.239  0.00  0.00    +0.000 A 
ENDROOT
BRANCH   1   7
ATOM      7  C   UNL     1      43.309   4.853  12.963  0.00  0.00    +0.000 C 
BRANCH   7   8
ATOM      8  O   UNL     1      42.915   4.421  11.665  0.00  0.00    +0.000 OA
BRANCH   8   9
ATOM      9  C   UNL     1      43.476   3.149  11.339  0.00  0.00    +0.000 C 
BRANCH   9  13
ATOM     10  C   UNL     1      46.012   3.408   7.836  0.00  0.00    +0.000 A 
ATOM     11  C   UNL     1      45.637   4.566   8.516  0.00  0.00    +0.000 A 
ATOM     12  C   UNL     1      44.812   4.486   9.643  0.00  0.00    +0.000 A 
ATOM     13  C   UNL     1      44.338   3.249  10.104  0.00  0.00    +0.000 A 
ATOM     14  C   UNL     1      44.737   2.089   9.429  0.00  0.00    +0.000 A 
ATOM     15  C   UNL     1      45.562   2.171   8.303  0.00  0.00    +0.000 A 
BRANCH  10  17
ATOM     16  C   UNL     1      47.874   2.413   6.748  0.00  0.00    +0.000 C 
ATOM     17  O   UNL     1      46.803   3.348   6.722  0.00  0.00    +0.000 OA
ENDBRANCH  10  17
ENDBRANCH   9  13
ENDBRANCH   8   9
ENDBRANCH   7   8
ENDBRANCH   1   7
BRANCH   4  18
ATOM     18  C   UNL     1      48.484   7.555  12.638  0.00  0.00    +0.000 C 
BRANCH  18  19
ATOM     19  N   UNL     1      49.405   7.016  13.608  0.00  0.00    +0.000 N 
ATOM     20  C   UNL     1      49.719   7.695  14.757  0.00  0.00    +0.000 C 
ATOM     21  O   UNL     1      49.166   8.747  15.063  0.00  0.00    +0.000 OA
ATOM     22  H   UNL     1      50.012   6.262  13.317  0.00  0.00    +0.000 HD
BRANCH  20  23
ATOM     23  C   UNL     1      50.704   7.053  15.641  0.00  0.00    +0.000 A 
ATOM     24  C   UNL     1      52.030   7.461  15.573  0.00  0.00    +0.000 A 
ATOM     25  S   UNL     1      53.033   6.702  16.715  0.00  0.00    +0.000 S 
ATOM     26  C   UNL     1      51.746   5.759  17.294  0.00  0.00    +0.000 A 
ATOM     27  N   UNL     1      51.971   4.881  18.292  0.00  0.00    +0.000 NA
ATOM     28  C   UNL     1      50.898   4.167  18.656  0.00  0.00    +0.000 A 
ATOM     29  C   UNL     1      49.644   4.268  18.087  0.00  0.00    +0.000 A 
ATOM     30  C   UNL     1      49.442   5.188  17.056  0.00  0.00    +0.000 A 
ATOM     31  C   UNL     1      50.537   5.998  16.637  0.00  0.00    +0.000 A 
BRANCH  30  32
ATOM     32  O   UNL     1      48.241   5.352  16.413  0.00  0.00    +0.000 OA
ATOM     33  C   UNL     1      47.227   4.380  16.640  0.00  0.00    +0.000 C 
ENDBRANCH  30  32
ENDBRANCH  20  23
ENDBRANCH  18  19
ENDBRANCH   4  18
TORSDOF 9
ENDMDL
MODEL 5
REMARK VINA RESULT:    -7.022      2.213      3.059
REMARK INTER + INTRA:         -11.972
REMARK INTER:                 -10.850
REMARK INTRA:                  -1.122
REMARK UNBOUND:                -1.255
REMARK  Name = 
REMARK  11 active torsions:
REMARK  status: ('A' for Active; 'I' for Inactive)
REMARK    1  A    between atoms: C_1  and  O_2
REMARK    2  A    between atoms: O_2  and  C_3
REMARK    3  A    between atoms: C_6  and  C_7
REMARK    4  A    between atoms: C_7  and  O_8
REMARK    5  A    between atoms: O_8  and  C_9
REMARK    6  A    between atoms: C_9  and  C_10
REMARK    7  A    between atoms: C_13  and  C_14
REMARK    8  A    between atoms: C_14  and  N_15
REMARK    9  A    between atoms: C_16  and  C_18
REMARK   10  A    between atoms: C_25  and  O_26
REMARK   11  A    between atoms: O_26  and  C_27
REMARK                            x       y       z     vdW  Elec       q    Type
REMARK                         _______ _______ _______ _____ _____    ______ ____
ROOT
ATOM      1  C   UNL     1      44.407   5.774  11.753  0.00  0.00    +0.000 A 
ATOM      2  C   UNL     1      44.967   7.006  11.388  0.00  0.00    +0.000 A 
ATOM      3  C   UNL     1      46.070   7.524  12.077  0.00  0.00    +0.000 A 
ATOM      4  C   UNL     1      46.647   6.812  13.135  0.00  0.00    +0.000 A 
ATOM      5  C   UNL     1      46.082   5.584  13.503  0.00  0.00    +0.000 A 
ATOM      6  C   UNL     1      44.973   5.072  12.824  0.00  0.00    +0.000 A 
ENDROOT
BRANCH   1   7
ATOM      7  C   UNL     1      43.210   5.227  11.015  0.00  0.00    +0.000 C 
BRANCH   7   8
ATOM      8  O   UNL     1      43.635   4.670   9.776  0.00  0.00    +0.000 OA
BRANCH   8   9
ATOM      9  C   UNL     1      43.995   3.296   9.909  0.00  0.00    +0.000 C 
BRANCH   9  13
ATOM     10  C   UNL     1      47.115   2.282   7.080  0.00  0.00    +0.000 A 
ATOM     11  C   UNL     1      46.548   1.291   7.881  0.00  0.00    +0.000 A 
ATOM     12  C   UNL     1      45.545   1.618   8.801  0.00  0.00    +0.000 A 
ATOM     13  C   UNL     1      45.099   2.939   8.944  0.00  0.00    +0.000 A 
ATOM     14  C   UNL     1      45.659   3.924   8.121  0.00  0.00    +0.000 A 
ATOM     15  C   UNL     1      46.661   3.596   7.202  0.00  0.00    +0.000 A 
BRANCH  10  17
ATOM     16  C   UNL     1      47.687   1.850   4.815  0.00  0.00    +0.000 C 
ATOM     17  O   UNL     1      48.103   2.099   6.153  0.00  0.00    +0.000 OA
ENDBRANCH  10  17
ENDBRANCH   9  13
ENDBRANCH   8   9
ENDBRANCH   7   8
ENDBRANCH   1   7
BRANCH   4  18
ATOM     18  C   UNL     1      47.831   7.363  13.889  0.00  0.00    +0.000 C 
BRANCH  18  19
ATOM     19  N   UNL     1      48.432   6.357  14.730  0.00  0.00    +0.000 N 
ATOM     20  C   UNL     1      48.827   6.634  16.013  0.00  0.00    +0.000 C 
ATOM     21  O   UNL     1      48.607   7.720  16.542  0.00  0.00    +0.000 OA
ATOM     22  H   UNL     1      48.796   5.524  14.287  0.00  0.00    +0.000 HD
BRANCH  20  23
ATOM     23  C   UNL     1      49.463   5.532  16.748  0.00  0.00    +0.000 A 
ATOM     24  C   UNL     1      48.687   4.445  17.128  0.00  0.00    +0.000 A 
ATOM     25  S   UNL     1      49.572   3.208  17.885  0.00  0.00    +0.000 S 
ATOM     26  C   UNL     1      51.009   4.108  17.789  0.00  0.00    +0.000 A 
ATOM     27  N   UNL     1      52.147   3.584  18.285  0.00  0.00    +0.000 NA
ATOM     28  C   UNL     1      53.216   4.385  18.186  0.00  0.00    +0.000 A 
ATOM     29  C   UNL     1      53.212   5.654  17.641  0.00  0.00    +0.000 A 
ATOM     30  C   UNL     1      52.017   6.168  17.132  0.00  0.00    +0.000 A 
ATOM     31  C   UNL     1      50.846   5.357  17.186  0.00  0.00    +0.000 A 
BRANCH  30  32
ATOM     32  O   UNL     1      51.904   7.422  16.588  0.00  0.00    +0.000 OA
ATOM     33  C   UNL     1      52.430   7.630  15.282  0.00  0.00    +0.000 C 
ENDBRANCH  30  32
ENDBRANCH  20  23
ENDBRANCH  18  19
ENDBRANCH   4  18
TORSDOF 9
ENDMDL
MODEL 6
REMARK VINA RESULT:    -6.814      1.496      1.951
REMARK INTER + INTRA:         -11.655
REMARK INTER:                 -10.483
REMARK INTRA:                  -1.172
REMARK UNBOUND:                -1.255
REMARK  Name = 
REMARK  11 active torsions:
REMARK  status: ('A' for Active; 'I' for Inactive)
REMARK    1  A    between atoms: C_1  and  O_2
REMARK    2  A    between atoms: O_2  and  C_3
REMARK    3  A    between atoms: C_6  and  C_7
REMARK    4  A    between atoms: C_7  and  O_8
REMARK    5  A    between atoms: O_8  and  C_9
REMARK    6  A    between atoms: C_9  and  C_10
REMARK    7  A    between atoms: C_13  and  C_14
REMARK    8  A    between atoms: C_14  and  N_15
REMARK    9  A    between atoms: C_16  and  C_18
REMARK   10  A    between atoms: C_25  and  O_26
REMARK   11  A    between atoms: O_26  and  C_27
REMARK                            x       y       z     vdW  Elec       q    Type
REMARK                         _______ _______ _______ _____ _____    ______ ____
ROOT
ATOM      1  C   UNL     1      45.410   6.669  12.150  0.00  0.00    +0.000 A 
ATOM      2  C   UNL     1      46.409   5.880  12.738  0.00  0.00    +0.000 A 
ATOM      3  C   UNL     1      47.393   6.457  13.549  0.00  0.00    +0.000 A 
ATOM      4  C   UNL     1      47.388   7.834  13.806  0.00  0.00    +0.000 A 
ATOM      5  C   UNL     1      46.393   8.622  13.212  0.00  0.00    +0.000 A 
ATOM      6  C   UNL     1      45.418   8.048  12.390  0.00  0.00    +0.000 A 
ENDROOT
BRANCH   1   7
ATOM      7  C   UNL     1      44.360   6.044  11.265  0.00  0.00    +0.000 C 
BRANCH   7   8
ATOM      8  O   UNL     1      44.703   4.684  11.018  0.00  0.00    +0.000 OA
BRANCH   8   9
ATOM      9  C   UNL     1      44.077   4.187   9.836  0.00  0.00    +0.000 C 
BRANCH   9  13
ATOM     10  C   UNL     1      46.902   2.122   7.282  0.00  0.00    +0.000 A 
ATOM     11  C   UNL     1      46.162   1.411   8.226  0.00  0.00    +0.000 A 
ATOM     12  C   UNL     1      45.255   2.077   9.057  0.00  0.00    +0.000 A 
ATOM     13  C   UNL     1      45.078   3.465   8.967  0.00  0.00    +0.000 A 
ATOM     14  C   UNL     1      45.809   4.169   8.002  0.00  0.00    +0.000 A 
ATOM     15  C   UNL     1      46.716   3.502   7.172  0.00  0.00    +0.000 A 
BRANCH  10  17
ATOM     16  C   UNL     1      47.710   1.976   5.053  0.00  0.00    +0.000 C 
ATOM     17  O   UNL     1      47.824   1.597   6.419  0.00  0.00    +0.000 OA
ENDBRANCH  10  17
ENDBRANCH   9  13
ENDBRANCH   8   9
ENDBRANCH   7   8
ENDBRANCH   1   7
BRANCH   4  18
ATOM     18  C   UNL     1      48.446   8.467  14.673  0.00  0.00    +0.000 C 
BRANCH  18  19
ATOM     19  N   UNL     1      48.052   8.474  16.060  0.00  0.00    +0.000 N 
ATOM     20  C   UNL     1      48.713   9.232  16.992  0.00  0.00    +0.000 C 
ATOM     21  O   UNL     1      49.610  10.011  16.680  0.00  0.00    +0.000 OA
ATOM     22  H   UNL     1      47.457   7.725  16.388  0.00  0.00    +0.000 HD
BRANCH  20  23
ATOM     23  C   UNL     1      48.237   9.117  18.378  0.00  0.00    +0.000 A 
ATOM     24  C   UNL     1      47.769  10.256  19.021  0.00  0.00    +0.000 A 
ATOM     25  S   UNL     1      47.165   9.955  20.581  0.00  0.00    +0.000 S 
ATOM     26  C   UNL     1      47.567   8.309  20.474  0.00  0.00    +0.000 A 
ATOM     27  N   UNL     1      47.303   7.499  21.519  0.00  0.00    +0.000 NA
ATOM     28  C   UNL     1      47.684   6.226  21.345  0.00  0.00    +0.000 A 
ATOM     29  C   UNL     1      48.308   5.730  20.218  0.00  0.00    +0.000 A 
ATOM     30  C   UNL     1      48.566   6.594  19.151  0.00  0.00    +0.000 A 
ATOM     31  C   UNL     1      48.164   7.957  19.262  0.00  0.00    +0.000 A 
BRANCH  30  32
ATOM     32  O   UNL     1      49.196   6.203  17.997  0.00  0.00    +0.000 OA
ATOM     33  C   UNL     1      48.583   5.183  17.217  0.00  0.00    +0.000 C 
ENDBRANCH  30  32
ENDBRANCH  20  23
ENDBRANCH  18  19
ENDBRANCH   4  18
TORSDOF 9
ENDMDL
MODEL 7
REMARK VINA RESULT:    -6.600      4.067      6.473
REMARK INTER + INTRA:         -11.327
REMARK INTER:                 -10.336
REMARK INTRA:                  -0.992
REMARK UNBOUND:                -1.255
REMARK  Name = 
REMARK  11 active torsions:
REMARK  status: ('A' for Active; 'I' for Inactive)
REMARK    1  A    between atoms: C_1  and  O_2
REMARK    2  A    between atoms: O_2  and  C_3
REMARK    3  A    between atoms: C_6  and  C_7
REMARK    4  A    between atoms: C_7  and  O_8
REMARK    5  A    between atoms: O_8  and  C_9
REMARK    6  A    between atoms: C_9  and  C_10
REMARK    7  A    between atoms: C_13  and  C_14
REMARK    8  A    between atoms: C_14  and  N_15
REMARK    9  A    between atoms: C_16  and  C_18
REMARK   10  A    between atoms: C_25  and  O_26
REMARK   11  A    between atoms: O_26  and  C_27
REMARK                            x       y       z     vdW  Elec       q    Type
REMARK                         _______ _______ _______ _____ _____    ______ ____
ROOT
ATOM      1  C   UNL     1      45.273   4.904  11.944  0.00  0.00    +0.000 A 
ATOM      2  C   UNL     1      45.895   6.008  11.344  0.00  0.00    +0.000 A 
ATOM      3  C   UNL     1      47.029   6.593  11.920  0.00  0.00    +0.000 A 
ATOM      4  C   UNL     1      47.577   6.072  13.099  0.00  0.00    +0.000 A 
ATOM      5  C   UNL     1      46.951   4.973  13.701  0.00  0.00    +0.000 A 
ATOM      6  C   UNL     1      45.810   4.398  13.134  0.00  0.00    +0.000 A 
ENDROOT
BRANCH   1   7
ATOM      7  C   UNL     1      44.042   4.288  11.326  0.00  0.00    +0.000 C 
BRANCH   7   8
ATOM      8  O   UNL     1      44.435   3.335  10.344  0.00  0.00    +0.000 OA
BRANCH   8   9
ATOM      9  C   UNL     1      44.581   3.933   9.057  0.00  0.00    +0.000 C 
BRANCH   9  13
ATOM     10  C   UNL     1      47.141   1.541   6.508  0.00  0.00    +0.000 A 
ATOM     11  C   UNL     1      46.682   1.027   7.719  0.00  0.00    +0.000 A 
ATOM     12  C   UNL     1      45.862   1.800   8.548  0.00  0.00    +0.000 A 
ATOM     13  C   UNL     1      45.494   3.103   8.186  0.00  0.00    +0.000 A 
ATOM     14  C   UNL     1      45.941   3.605   6.957  0.00  0.00    +0.000 A 
ATOM     15  C   UNL     1      46.761   2.831   6.130  0.00  0.00    +0.000 A 
BRANCH  10  17
ATOM     16  C   UNL     1      47.366   0.529   4.371  0.00  0.00    +0.000 C 
ATOM     17  O   UNL     1      47.951   0.897   5.614  0.00  0.00    +0.000 OA
ENDBRANCH  10  17
ENDBRANCH   9  13
ENDBRANCH   8   9
ENDBRANCH   7   8
ENDBRANCH   1   7
BRANCH   4  18
ATOM     18  C   UNL     1      48.795   6.697  13.732  0.00  0.00    +0.000 C 
BRANCH  18  19
ATOM     19  N   UNL     1      49.685   7.237  12.733  0.00  0.00    +0.000 N 
ATOM     20  C   UNL     1      50.345   8.423  12.924  0.00  0.00    +0.000 C 
ATOM     21  O   UNL     1      50.285   9.038  13.985  0.00  0.00    +0.000 OA
ATOM     22  H   UNL     1      49.621   6.871  11.793  0.00  0.00    +0.000 HD
BRANCH  20  23
ATOM     23  C   UNL     1      51.190   8.882  11.812  0.00  0.00    +0.000 A 
ATOM     24  C   UNL     1      52.341   8.167  11.508  0.00  0.00    +0.000 A 
ATOM     25  S   UNL     1      53.166   8.756  10.144  0.00  0.00    +0.000 S 
ATOM     26  C   UNL     1      52.050  10.021   9.953  0.00  0.00    +0.000 A 
ATOM     27  N   UNL     1      52.218  10.898   8.942  0.00  0.00    +0.000 NA
ATOM     28  C   UNL     1      51.301  11.874   8.896  0.00  0.00    +0.000 A 
ATOM     29  C   UNL     1      50.257  12.027   9.787  0.00  0.00    +0.000 A 
ATOM     30  C   UNL     1      50.109  11.101  10.822  0.00  0.00    +0.000 A 
ATOM     31  C   UNL     1      51.037  10.024  10.914  0.00  0.00    +0.000 A 
BRANCH  30  32
ATOM     32  O   UNL     1      49.117  11.175  11.767  0.00  0.00    +0.000 OA
ATOM     33  C   UNL     1      47.831  10.673  11.423  0.00  0.00    +0.000 C 
ENDBRANCH  30  32
ENDBRANCH  20  23
ENDBRANCH  18  19
ENDBRANCH   4  18
TORSDOF 9
ENDMDL
MODEL 8
REMARK VINA RESULT:    -6.208      2.770      3.975
REMARK INTER + INTRA:         -10.730
REMARK INTER:                 -10.673
REMARK INTRA:                  -0.057
REMARK UNBOUND:                -1.255
REMARK  Name = 
REMARK  11 active torsions:
REMARK  status: ('A' for Active; 'I' for Inactive)
REMARK    1  A    between atoms: C_1  and  O_2
REMARK    2  A    between atoms: O_2  and  C_3
REMARK    3  A    between atoms: C_6  and  C_7
REMARK    4  A    between atoms: C_7  and  O_8
REMARK    5  A    between atoms: O_8  and  C_9
REMARK    6  A    between atoms: C_9  and  C_10
REMARK    7  A    between atoms: C_13  and  C_14
REMARK    8  A    between atoms: C_14  and  N_15
REMARK    9  A    between atoms: C_16  and  C_18
REMARK   10  A    between atoms: C_25  and  O_26
REMARK   11  A    between atoms: O_26  and  C_27
REMARK                            x       y       z     vdW  Elec       q    Type
REMARK                         _______ _______ _______ _____ _____    ______ ____
ROOT
ATOM      1  C   UNL     1      44.494   4.405  11.327  0.00  0.00    +0.000 A 
ATOM      2  C   UNL     1      43.994   5.662  10.961  0.00  0.00    +0.000 A 
ATOM      3  C   UNL     1      44.511   6.832  11.530  0.00  0.00    +0.000 A 
ATOM      4  C   UNL     1      45.553   6.770  12.463  0.00  0.00    +0.000 A 
ATOM      5  C   UNL     1      46.047   5.512  12.832  0.00  0.00    +0.000 A 
ATOM      6  C   UNL     1      45.522   4.342  12.275  0.00  0.00    +0.000 A 
ENDROOT
BRANCH   1   7
ATOM      7  C   UNL     1      43.922   3.146  10.721  0.00  0.00    +0.000 C 
BRANCH   7   8
ATOM      8  O   UNL     1      44.109   3.177   9.310  0.00  0.00    +0.000 OA
BRANCH   8   9
ATOM      9  C   UNL     1      45.377   3.728   8.957  0.00  0.00    +0.000 C 
BRANCH   9  13
ATOM     10  C   UNL     1      47.218   1.319   5.862  0.00  0.00    +0.000 A 
ATOM     11  C   UNL     1      46.953   0.766   7.114  0.00  0.00    +0.000 A 
ATOM     12  C   UNL     1      46.366   1.544   8.118  0.00  0.00    +0.000 A 
ATOM     13  C   UNL     1      46.042   2.890   7.892  0.00  0.00    +0.000 A 
ATOM     14  C   UNL     1      46.292   3.431   6.625  0.00  0.00    +0.000 A 
ATOM     15  C   UNL     1      46.879   2.652   5.623  0.00  0.00    +0.000 A 
BRANCH  10  17
ATOM     16  C   UNL     1      46.912   0.150   3.817  0.00  0.00    +0.000 C 
ATOM     17  O   UNL     1      47.794   0.673   4.803  0.00  0.00    +0.000 OA
ENDBRANCH  10  17
ENDBRANCH   9  13
ENDBRANCH   8   9
ENDBRANCH   7   8
ENDBRANCH   1   7
BRANCH   4  18
ATOM     18  C   UNL     1      46.114   8.023  13.087  0.00  0.00    +0.000 C 
BRANCH  18  19
ATOM     19  N   UNL     1      47.114   7.711  14.079  0.00  0.00    +0.000 N 
ATOM     20  C   UNL     1      48.430   7.529  13.742  0.00  0.00    +0.000 C 
ATOM     21  O   UNL     1      48.840   7.712  12.599  0.00  0.00    +0.000 OA
ATOM     22  H   UNL     1      46.800   7.374  14.979  0.00  0.00    +0.000 HD
BRANCH  20  23
ATOM     23  C   UNL     1      49.338   7.176  14.842  0.00  0.00    +0.000 A 
ATOM     24  C   UNL     1      48.859   6.385  15.878  0.00  0.00    +0.000 A 
ATOM     25  S   UNL     1      50.042   5.979  17.028  0.00  0.00    +0.000 S 
ATOM     26  C   UNL     1      51.218   6.897  16.216  0.00  0.00    +0.000 A 
ATOM     27  N   UNL     1      52.467   6.959  16.719  0.00  0.00    +0.000 NA
ATOM     28  C   UNL     1      53.310   7.731  16.020  0.00  0.00    +0.000 A 
ATOM     29  C   UNL     1      52.982   8.437  14.880  0.00  0.00    +0.000 A 
ATOM     30  C   UNL     1      51.680   8.351  14.381  0.00  0.00    +0.000 A 
ATOM     31  C   UNL     1      50.739   7.526  15.065  0.00  0.00    +0.000 A 
BRANCH  30  32
ATOM     32  O   UNL     1      51.250   9.026  13.268  0.00  0.00    +0.000 OA
ATOM     33  C   UNL     1      51.193  10.447  13.332  0.00  0.00    +0.000 C 
ENDBRANCH  30  32
ENDBRANCH  20  23
ENDBRANCH  18  19
ENDBRANCH   4  18
TORSDOF 9
ENDMDL
MODEL 9
REMARK VINA RESULT:    -6.137      1.396      2.035
REMARK INTER + INTRA:         -10.621
REMARK INTER:                  -9.547
REMARK INTRA:                  -1.073
REMARK UNBOUND:                -1.255
REMARK  Name = 
REMARK  11 active torsions:
REMARK  status: ('A' for Active; 'I' for Inactive)
REMARK    1  A    between atoms: C_1  and  O_2
REMARK    2  A    between atoms: O_2  and  C_3
REMARK    3  A    between atoms: C_6  and  C_7
REMARK    4  A    between atoms: C_7  and  O_8
REMARK    5  A    between atoms: O_8  and  C_9
REMARK    6  A    between atoms: C_9  and  C_10
REMARK    7  A    between atoms: C_13  and  C_14
REMARK    8  A    between atoms: C_14  and  N_15
REMARK    9  A    between atoms: C_16  and  C_18
REMARK   10  A    between atoms: C_25  and  O_26
REMARK   11  A    between atoms: O_26  and  C_27
REMARK                            x       y       z     vdW  Elec       q    Type
REMARK                         _______ _______ _______ _____ _____    ______ ____
ROOT
ATOM      1  C   UNL     1      45.724   7.053  12.249  0.00  0.00    +0.000 A 
ATOM      2  C   UNL     1      46.661   6.013  12.169  0.00  0.00    +0.000 A 
ATOM      3  C   UNL     1      47.910   6.124  12.790  0.00  0.00    +0.000 A 
ATOM      4  C   UNL     1      48.241   7.270  13.524  0.00  0.00    +0.000 A 
ATOM      5  C   UNL     1      47.307   8.311  13.598  0.00  0.00    +0.000 A 
ATOM      6  C   UNL     1      46.065   8.207  12.965  0.00  0.00    +0.000 A 
ENDROOT
BRANCH   1   7
ATOM      7  C   UNL     1      44.385   6.933  11.564  0.00  0.00    +0.000 C 
BRANCH   7   8
ATOM      8  O   UNL     1      43.737   5.744  12.003  0.00  0.00    +0.000 OA
BRANCH   8   9
ATOM      9  C   UNL     1      43.013   5.116  10.945  0.00  0.00    +0.000 C 
BRANCH   9  13
ATOM     10  C   UNL     1      45.575   2.566   8.557  0.00  0.00    +0.000 A 
ATOM     11  C   UNL     1      44.837   2.027   9.609  0.00  0.00    +0.000 A 
ATOM     12  C   UNL     1      44.015   2.850  10.387  0.00  0.00    +0.000 A 
ATOM     13  C   UNL     1      43.923   4.226  10.134  0.00  0.00    +0.000 A 
ATOM     14  C   UNL     1      44.652   4.755   9.061  0.00  0.00    +0.000 A 
ATOM     15  C   UNL     1      45.473   3.932   8.285  0.00  0.00    +0.000 A 
BRANCH  10  17
ATOM     16  C   UNL     1      47.376   2.646   7.010  0.00  0.00    +0.000 C 
ATOM     17  O   UNL     1      46.419   1.878   7.730  0.00  0.00    +0.000 OA
ENDBRANCH  10  17
ENDBRANCH   9  13
ENDBRANCH   8   9
ENDBRANCH   7   8
ENDBRANCH   1   7
BRANCH   4  18
ATOM     18  C   UNL     1      49.586   7.403  14.193  0.00  0.00    +0.000 C 
BRANCH  18  19
ATOM     19  N   UNL     1      49.456   7.439  15.629  0.00  0.00    +0.000 N 
ATOM     20  C   UNL     1      50.465   7.014  16.453  0.00  0.00    +0.000 C 
ATOM     21  O   UNL     1      51.560   6.670  16.018  0.00  0.00    +0.000 OA
ATOM     22  H   UNL     1      48.528   7.534  16.018  0.00  0.00    +0.000 HD
BRANCH  20  23
ATOM     23  C   UNL     1      50.188   7.064  17.896  0.00  0.00    +0.000 A 
ATOM     24  C   UNL     1      50.453   8.239  18.588  0.00  0.00    +0.000 A 
ATOM     25  S   UNL     1      49.997   8.182  20.224  0.00  0.00    +0.000 S 
ATOM     26  C   UNL     1      49.491   6.568  20.079  0.00  0.00    +0.000 A 
ATOM     27  N   UNL     1      48.997   5.934  21.162  0.00  0.00    +0.000 NA
ATOM     28  C   UNL     1      48.654   4.657  20.949  0.00  0.00    +0.000 A 
ATOM     29  C   UNL     1      48.782   3.988  19.748  0.00  0.00    +0.000 A 
ATOM     30  C   UNL     1      49.295   4.673  18.643  0.00  0.00    +0.000 A 
ATOM     31  C   UNL     1      49.657   6.042  18.796  0.00  0.00    +0.000 A 
BRANCH  30  32
ATOM     32  O   UNL     1      49.478   4.094  17.413  0.00  0.00    +0.000 OA
ATOM     33  C   UNL     1      49.893   2.734  17.373  0.00  0.00    +0.000 C 
ENDBRANCH  30  32
ENDBRANCH  20  23
ENDBRANCH  18  19
ENDBRANCH   4  18
TORSDOF 9
ENDMDL
