MODEL 1
REMARK VINA RESULT:    -7.242      0.000      0.000
REMARK INTER + INTRA:          -9.759
REMARK INTER:                  -9.359
REMARK INTRA:                  -0.400
REMARK UNBOUND:                -0.400
REMARK  Name = 
REMARK  10 active torsions:
REMARK  status: ('A' for Active; 'I' for Inactive)
REMARK    1  A    between atoms: C_1  and  C_2
REMARK    2  A    between atoms: C_4  and  C_5
REMARK    3  A    between atoms: N_8  and  C_9
REMARK    4  A    between atoms: C_9  and  C_10
REMARK    5  A    between atoms: C_14  and  C_15
REMARK    6  A    between atoms: C_20  and  O_22
REMARK    7  A    between atoms: O_22  and  C_23
REMARK    8  A    between atoms: C_23  and  C_24
REMARK    9  A    between atoms: C_23  and  C_25
REMARK   10  A    between atoms: C_23  and  C_26
REMARK                            x       y       z     vdW  Elec       q    Type
REMARK                         _______ _______ _______ _____ _____    ______ ____
ROOT
ATOM      1  C   UNL     1      47.115   7.505  13.293  0.00  0.00    +0.000 A 
ATOM      2  C   UNL     1      47.847   6.452  13.865  0.00  0.00    +0.000 A 
ATOM      3  C   UNL     1      47.316   5.175  13.957  0.00  0.00    +0.000 A 
ATOM      4  C   UNL     1      46.022   4.935  13.493  0.00  0.00    +0.000 A 
ATOM      5  C   UNL     1      45.253   5.941  12.889  0.00  0.00    +0.000 A 
ATOM      6  C   UNL     1      45.841   7.209  12.763  0.00  0.00    +0.000 A 
ENDROOT
BRANCH   5   7
ATOM      7  C   UNL     1      43.803   5.739  12.442  0.00  0.00    +0.000 C 
ATOM      8  C   UNL     1      43.138   4.520  13.109  0.00  0.00    +0.000 C 
ATOM      9  C   UNL     1      43.576   3.176  12.512  0.00  0.00    +0.000 C 
ATOM     10  C   UNL     1      43.645   3.161  10.974  0.00  0.00    +0.000 C 
ATOM     11  N   UNL     1      44.172   4.402  10.409  0.00  0.00    +0.000 N 
ATOM     12  C   UNL     1      45.248   4.525   9.543  0.00  0.00    +0.000 C 
ATOM     13  O   UNL     1      45.583   5.607   9.078  0.00  0.00    +0.000 OA
ATOM     14  C   UNL     1      43.597   5.635  10.924  0.00  0.00    +0.000 C 
BRANCH  12  15
ATOM     15  O   UNL     1      45.928   3.366   9.317  0.00  0.00    +0.000 OA
BRANCH  15  16
ATOM     16  C   UNL     1      45.961   2.850   7.952  0.00  0.00    +0.000 C 
ATOM     17  C   UNL     1      47.081   3.500   7.121  0.00  0.00    +0.000 C 
ATOM     18  C   UNL     1      46.282   1.350   8.067  0.00  0.00    +0.000 C 
ATOM     19  C   UNL     1      44.589   2.979   7.272  0.00  0.00    +0.000 C 
ENDBRANCH  15  16
ENDBRANCH  12  15
ENDBRANCH   5   7
BRANCH   1  20
ATOM     20  C   UNL     1      47.649   8.932  13.357  0.00  0.00    +0.000 C 
ATOM     21  C   UNL     1      48.545   9.317  14.531  0.00  0.00    +0.000 C 
ATOM     22  C   UNL     1      49.155   9.056  13.198  0.00  0.00    +0.000 C 
BRANCH  20  30
ATOM     23  C   UNL     1      49.082  12.405   9.370  0.00  0.00    +0.000 C 
ATOM     24  C   UNL     1      47.821  11.918  10.017  0.00  0.00    +0.000 A 
ATOM     25  C   UNL     1      46.571  12.266   9.517  0.00  0.00    +0.000 A 
ATOM     26  C   UNL     1      45.435  11.816  10.182  0.00  0.00    +0.000 A 
ATOM     27  C   UNL     1      44.062  12.167   9.694  0.00  0.00    +0.000 C 
ATOM     28  N   UNL     1      45.502  11.046  11.297  0.00  0.00    +0.000 NA
ATOM     29  C   UNL     1      46.715  10.694  11.773  0.00  0.00    +0.000 A 
ATOM     30  N   UNL     1      46.685   9.971  12.970  0.00  0.00    +0.000 N 
ATOM     31  C   UNL     1      47.885  11.108  11.156  0.00  0.00    +0.000 A 
ATOM     32  H   UNL     1      45.703   9.752  13.126  0.00  0.00    +0.000 HD
ENDBRANCH  20  30
ENDBRANCH   1  20
TORSDOF 5
ENDMDL
MODEL 2
REMARK VINA RESULT:    -7.042      2.312      3.754
REMARK INTER + INTRA:          -9.501
REMARK INTER:                  -8.794
REMARK INTRA:                  -0.707
REMARK UNBOUND:                -0.400
REMARK  Name = 
REMARK  10 active torsions:
REMARK  status: ('A' for Active; 'I' for Inactive)
REMARK    1  A    between atoms: C_1  and  C_2
REMARK    2  A    between atoms: C_4  and  C_5
REMARK    3  A    between atoms: N_8  and  C_9
REMARK    4  A    between atoms: C_9  and  C_10
REMARK    5  A    between atoms: C_14  and  C_15
REMARK    6  A    between atoms: C_20  and  O_22
REMARK    7  A    between atoms: O_22  and  C_23
REMARK    8  A    between atoms: C_23  and  C_24
REMARK    9  A    between atoms: C_23  and  C_25
REMARK   10  A    between atoms: C_23  and  C_26
REMARK                            x       y       z     vdW  Elec       q    Type
REMARK                         _______ _______ _______ _____ _____    ______ ____
ROOT
ATOM      1  C   UNL     1      47.458   7.176  12.900  0.00  0.00    +0.000 A 
ATOM      2  C   UNL     1      48.032   6.270  13.807  0.00  0.00    +0.000 A 
ATOM      3  C   UNL     1      47.325   5.170  14.268  0.00  0.00    +0.000 A 
ATOM      4  C   UNL     1      46.011   4.971  13.842  0.00  0.00    +0.000 A 
ATOM      5  C   UNL     1      45.394   5.828  12.918  0.00  0.00    +0.000 A 
ATOM      6  C   UNL     1      46.156   6.901  12.430  0.00  0.00    +0.000 A 
ENDROOT
BRANCH   5   7
ATOM      7  C   UNL     1      43.932   5.691  12.488  0.00  0.00    +0.000 C 
ATOM      8  C   UNL     1      43.226   4.492  13.151  0.00  0.00    +0.000 C 
ATOM      9  C   UNL     1      43.600   3.138  12.534  0.00  0.00    +0.000 C 
ATOM     10  C   UNL     1      43.648   3.138  10.995  0.00  0.00    +0.000 C 
ATOM     11  N   UNL     1      44.219   4.362  10.436  0.00  0.00    +0.000 N 
ATOM     12  C   UNL     1      45.287   4.450   9.558  0.00  0.00    +0.000 C 
ATOM     13  O   UNL     1      45.661   5.523   9.099  0.00  0.00    +0.000 OA
ATOM     14  C   UNL     1      43.702   5.612  10.972  0.00  0.00    +0.000 C 
BRANCH  12  15
ATOM     15  O   UNL     1      45.917   3.267   9.309  0.00  0.00    +0.000 OA
BRANCH  15  16
ATOM     16  C   UNL     1      45.971   2.800   7.928  0.00  0.00    +0.000 C 
ATOM     17  C   UNL     1      47.075   3.510   7.127  0.00  0.00    +0.000 C 
ATOM     18  C   UNL     1      46.333   1.307   7.994  0.00  0.00    +0.000 C 
ATOM     19  C   UNL     1      44.598   2.913   7.246  0.00  0.00    +0.000 C 
ENDBRANCH  15  16
ENDBRANCH  12  15
ENDBRANCH   5   7
BRANCH   1  20
ATOM     20  C   UNL     1      48.188   8.466  12.541  0.00  0.00    +0.000 C 
ATOM     21  C   UNL     1      47.400   9.772  12.562  0.00  0.00    +0.000 C 
ATOM     22  C   UNL     1      48.327   9.458  13.684  0.00  0.00    +0.000 C 
BRANCH  20  30
ATOM     23  C   UNL     1      53.474   9.508  13.533  0.00  0.00    +0.000 C 
ATOM     24  C   UNL     1      52.660   8.775  12.509  0.00  0.00    +0.000 A 
ATOM     25  C   UNL     1      53.265   7.998  11.528  0.00  0.00    +0.000 A 
ATOM     26  C   UNL     1      52.460   7.371  10.581  0.00  0.00    +0.000 A 
ATOM     27  C   UNL     1      53.057   6.530   9.494  0.00  0.00    +0.000 C 
ATOM     28  N   UNL     1      51.109   7.485  10.585  0.00  0.00    +0.000 NA
ATOM     29  C   UNL     1      50.521   8.224  11.549  0.00  0.00    +0.000 A 
ATOM     30  N   UNL     1      49.134   8.351  11.423  0.00  0.00    +0.000 N 
ATOM     31  C   UNL     1      51.266   8.874  12.522  0.00  0.00    +0.000 A 
ATOM     32  H   UNL     1      48.873   7.707  10.680  0.00  0.00    +0.000 HD
ENDBRANCH  20  30
ENDBRANCH   1  20
TORSDOF 5
ENDMDL
MODEL 3
REMARK VINA RESULT:    -6.954      2.186      4.453
REMARK INTER + INTRA:          -9.387
REMARK INTER:                  -8.543
REMARK INTRA:                  -0.844
REMARK UNBOUND:                -0.400
REMARK  Name = 
REMARK  10 active torsions:
REMARK  status: ('A' for Active; 'I' for Inactive)
REMARK    1  A    between atoms: C_1  and  C_2
REMARK    2  A    between atoms: C_4  and  C_5
REMARK    3  A    between atoms: N_8  and  C_9
REMARK    4  A    between atoms: C_9  and  C_10
REMARK    5  A    between atoms: C_14  and  C_15
REMARK    6  A    between atoms: C_20  and  O_22
REMARK    7  A    between atoms: O_22  and  C_23
REMARK    8  A    between atoms: C_23  and  C_24
REMARK    9  A    between atoms: C_23  and  C_25
REMARK   10  A    between atoms: C_23  and  C_26
REMARK                            x       y       z     vdW  Elec       q    Type
REMARK                         _______ _______ _______ _____ _____    ______ ____
ROOT
ATOM      1  C   UNL     1      47.542   7.041  13.328  0.00  0.00    +0.000 A 
ATOM      2  C   UNL     1      48.055   5.994  14.112  0.00  0.00    +0.000 A 
ATOM      3  C   UNL     1      47.299   4.866  14.389  0.00  0.00    +0.000 A 
ATOM      4  C   UNL     1      45.996   4.776  13.899  0.00  0.00    +0.000 A 
ATOM      5  C   UNL     1      45.438   5.778  13.090  0.00  0.00    +0.000 A 
ATOM      6  C   UNL     1      46.249   6.881  12.784  0.00  0.00    +0.000 A 
ENDROOT
BRANCH   5   7
ATOM      7  C   UNL     1      43.988   5.755  12.600  0.00  0.00    +0.000 C 
ATOM      8  C   UNL     1      43.182   4.576  13.180  0.00  0.00    +0.000 C 
ATOM      9  C   UNL     1      43.495   3.229  12.513  0.00  0.00    +0.000 C 
ATOM     10  C   UNL     1      43.604   3.295  10.979  0.00  0.00    +0.000 C 
ATOM     11  N   UNL     1      44.272   4.504  10.500  0.00  0.00    +0.000 N 
ATOM     12  C   UNL     1      45.377   4.562   9.666  0.00  0.00    +0.000 C 
ATOM     13  O   UNL     1      45.835   5.628   9.273  0.00  0.00    +0.000 OA
ATOM     14  C   UNL     1      43.814   5.759  11.075  0.00  0.00    +0.000 C 
BRANCH  12  15
ATOM     15  O   UNL     1      45.941   3.353   9.385  0.00  0.00    +0.000 OA
BRANCH  15  16
ATOM     16  C   UNL     1      45.907   2.890   8.002  0.00  0.00    +0.000 C 
ATOM     17  C   UNL     1      47.028   3.522   7.159  0.00  0.00    +0.000 C 
ATOM     18  C   UNL     1      46.163   1.374   8.050  0.00  0.00    +0.000 C 
ATOM     19  C   UNL     1      44.521   3.105   7.374  0.00  0.00    +0.000 C 
ENDBRANCH  15  16
ENDBRANCH  12  15
ENDBRANCH   5   7
BRANCH   1  20
ATOM     20  C   UNL     1      48.323   8.341  13.180  0.00  0.00    +0.000 C 
ATOM     21  C   UNL     1      48.539   8.899  11.776  0.00  0.00    +0.000 C 
ATOM     22  C   UNL     1      47.510   9.516  12.659  0.00  0.00    +0.000 C 
BRANCH  20  30
ATOM     23  C   UNL     1      47.559  10.529  18.144  0.00  0.00    +0.000 C 
ATOM     24  C   UNL     1      48.565   9.652  17.461  0.00  0.00    +0.000 A 
ATOM     25  C   UNL     1      49.601   9.054  18.168  0.00  0.00    +0.000 A 
ATOM     26  C   UNL     1      50.527   8.282  17.473  0.00  0.00    +0.000 A 
ATOM     27  C   UNL     1      51.670   7.620  18.182  0.00  0.00    +0.000 C 
ATOM     28  N   UNL     1      50.452   8.087  16.134  0.00  0.00    +0.000 NA
ATOM     29  C   UNL     1      49.437   8.654  15.449  0.00  0.00    +0.000 A 
ATOM     30  N   UNL     1      49.489   8.467  14.064  0.00  0.00    +0.000 N 
ATOM     31  C   UNL     1      48.480   9.434  16.082  0.00  0.00    +0.000 A 
ATOM     32  H   UNL     1      50.240   7.797  13.913  0.00  0.00    +0.000 HD
ENDBRANCH  20  30
ENDBRANCH   1  20
TORSDOF 5
ENDMDL
MODEL 4
REMARK VINA RESULT:    -6.710      3.448      7.505
REMARK INTER + INTRA:          -9.071
REMARK INTER:                  -8.550
REMARK INTRA:                  -0.521
REMARK UNBOUND:                -0.400
REMARK  Name = 
REMARK  10 active torsions:
REMARK  status: ('A' for Active; 'I' for Inactive)
REMARK    1  A    between atoms: C_1  and  C_2
REMARK    2  A    between atoms: C_4  and  C_5
REMARK    3  A    between atoms: N_8  and  C_9
REMARK    4  A    between atoms: C_9  and  C_10
REMARK    5  A    between atoms: C_14  and  C_15
REMARK    6  A    between atoms: C_20  and  O_22
REMARK    7  A    between atoms: O_22  and  C_23
REMARK    8  A    between atoms: C_23  and  C_24
REMARK    9  A    between atoms: C_23  and  C_25
REMARK   10  A    between atoms: C_23  and  C_26
REMARK                            x       y       z     vdW  Elec       q    Type
REMARK                         _______ _______ _______ _____ _____    ______ ____
ROOT
ATOM      1  C   UNL     1      46.952   7.959  12.744  0.00  0.00    +0.000 A 
ATOM      2  C   UNL     1      47.918   7.383  11.902  0.00  0.00    +0.000 A 
ATOM      3  C   UNL     1      49.229   7.218  12.319  0.00  0.00    +0.000 A 
ATOM      4  C   UNL     1      49.604   7.653  13.591  0.00  0.00    +0.000 A 
ATOM      5  C   UNL     1      48.679   8.212  14.486  0.00  0.00    +0.000 A 
ATOM      6  C   UNL     1      47.348   8.315  14.051  0.00  0.00    +0.000 A 
ENDROOT
BRANCH   5   7
ATOM      7  C   UNL     1      49.065   8.774  15.856  0.00  0.00    +0.000 C 
ATOM      8  C   UNL     1      50.561   9.133  15.953  0.00  0.00    +0.000 C 
ATOM      9  C   UNL     1      51.477   7.913  16.124  0.00  0.00    +0.000 C 
ATOM     10  C   UNL     1      50.957   6.870  17.129  0.00  0.00    +0.000 C 
ATOM     11  N   UNL     1      49.511   6.675  17.061  0.00  0.00    +0.000 N 
ATOM     12  C   UNL     1      48.847   5.474  16.868  0.00  0.00    +0.000 C 
ATOM     13  O   UNL     1      47.624   5.402  16.880  0.00  0.00    +0.000 OA
ATOM     14  C   UNL     1      48.701   7.884  17.053  0.00  0.00    +0.000 C 
BRANCH  12  15
ATOM     15  O   UNL     1      49.659   4.414  16.598  0.00  0.00    +0.000 OA
BRANCH  15  16
ATOM     16  C   UNL     1      49.450   3.184  17.355  0.00  0.00    +0.000 C 
ATOM     17  C   UNL     1      48.876   3.464  18.754  0.00  0.00    +0.000 C 
ATOM     18  C   UNL     1      48.399   2.374  16.577  0.00  0.00    +0.000 C 
ATOM     19  C   UNL     1      50.733   2.340  17.416  0.00  0.00    +0.000 C 
ENDBRANCH  15  16
ENDBRANCH  12  15
ENDBRANCH   5   7
BRANCH   1  20
ATOM     20  C   UNL     1      45.564   8.286  12.207  0.00  0.00    +0.000 C 
ATOM     21  C   UNL     1      44.978   9.662  12.506  0.00  0.00    +0.000 C 
ATOM     22  C   UNL     1      45.531   9.380  11.152  0.00  0.00    +0.000 C 
BRANCH  20  30
ATOM     23  C   UNL     1      45.687   4.442   8.305  0.00  0.00    +0.000 C 
ATOM     24  C   UNL     1      45.177   4.583   9.708  0.00  0.00    +0.000 A 
ATOM     25  C   UNL     1      44.656   3.496  10.401  0.00  0.00    +0.000 A 
ATOM     26  C   UNL     1      44.163   3.697  11.686  0.00  0.00    +0.000 A 
ATOM     27  C   UNL     1      43.581   2.564  12.477  0.00  0.00    +0.000 C 
ATOM     28  N   UNL     1      44.176   4.911  12.289  0.00  0.00    +0.000 NA
ATOM     29  C   UNL     1      44.697   5.963  11.624  0.00  0.00    +0.000 A 
ATOM     30  N   UNL     1      44.592   7.187  12.291  0.00  0.00    +0.000 N 
ATOM     31  C   UNL     1      45.206   5.830  10.341  0.00  0.00    +0.000 A 
ATOM     32  H   UNL     1      44.259   6.955  13.225  0.00  0.00    +0.000 HD
ENDBRANCH  20  30
ENDBRANCH   1  20
TORSDOF 5
ENDMDL
MODEL 5
REMARK VINA RESULT:    -6.557      4.931      8.253
REMARK INTER + INTRA:          -8.874
REMARK INTER:                  -7.849
REMARK INTRA:                  -1.025
REMARK UNBOUND:                -0.400
REMARK  Name = 
REMARK  10 active torsions:
REMARK  status: ('A' for Active; 'I' for Inactive)
REMARK    1  A    between atoms: C_1  and  C_2
REMARK    2  A    between atoms: C_4  and  C_5
REMARK    3  A    between atoms: N_8  and  C_9
REMARK    4  A    between atoms: C_9  and  C_10
REMARK    5  A    between atoms: C_14  and  C_15
REMARK    6  A    between atoms: C_20  and  O_22
REMARK    7  A    between atoms: O_22  and  C_23
REMARK    8  A    between atoms: C_23  and  C_24
REMARK    9  A    between atoms: C_23  and  C_25
REMARK   10  A    between atoms: C_23  and  C_26
REMARK                            x       y       z     vdW  Elec       q    Type
REMARK                         _______ _______ _______ _____ _____    ______ ____
ROOT
ATOM      1  C   UNL     1      48.494   5.540  17.257  0.00  0.00    +0.000 A 
ATOM      2  C   UNL     1      48.238   6.553  18.195  0.00  0.00    +0.000 A 
ATOM      3  C   UNL     1      48.262   7.891  17.834  0.00  0.00    +0.000 A 
ATOM      4  C   UNL     1      48.568   8.240  16.518  0.00  0.00    +0.000 A 
ATOM      5  C   UNL     1      48.808   7.271  15.531  0.00  0.00    +0.000 A 
ATOM      6  C   UNL     1      48.723   5.926  15.919  0.00  0.00    +0.000 A 
ENDROOT
BRANCH   5   7
ATOM      7  C   UNL     1      49.225   7.614  14.099  0.00  0.00    +0.000 C 
ATOM      8  C   UNL     1      48.737   9.005  13.652  0.00  0.00    +0.000 C 
ATOM      9  C   UNL     1      47.245   9.048  13.294  0.00  0.00    +0.000 C 
ATOM     10  C   UNL     1      46.762   7.852  12.455  0.00  0.00    +0.000 C 
ATOM     11  N   UNL     1      47.365   6.583  12.860  0.00  0.00    +0.000 N 
ATOM     12  C   UNL     1      46.693   5.427  13.223  0.00  0.00    +0.000 C 
ATOM     13  O   UNL     1      47.287   4.392  13.495  0.00  0.00    +0.000 OA
ATOM     14  C   UNL     1      48.810   6.588  13.035  0.00  0.00    +0.000 C 
BRANCH  12  15
ATOM     15  O   UNL     1      45.340   5.563  13.316  0.00  0.00    +0.000 OA
BRANCH  15  16
ATOM     16  C   UNL     1      44.515   4.864  12.336  0.00  0.00    +0.000 C 
ATOM     17  C   UNL     1      44.544   3.340  12.547  0.00  0.00    +0.000 C 
ATOM     18  C   UNL     1      43.071   5.337  12.573  0.00  0.00    +0.000 C 
ATOM     19  C   UNL     1      44.900   5.254  10.900  0.00  0.00    +0.000 C 
ENDBRANCH  15  16
ENDBRANCH  12  15
ENDBRANCH   5   7
BRANCH   1  20
ATOM     20  C   UNL     1      48.631   4.091  17.712  0.00  0.00    +0.000 C 
ATOM     21  C   UNL     1      47.407   3.185  17.618  0.00  0.00    +0.000 C 
ATOM     22  C   UNL     1      48.491   3.060  16.604  0.00  0.00    +0.000 C 
BRANCH  20  30
ATOM     23  C   UNL     1      54.072   4.591  17.314  0.00  0.00    +0.000 C 
ATOM     24  C   UNL     1      53.028   4.652  18.387  0.00  0.00    +0.000 A 
ATOM     25  C   UNL     1      53.347   5.037  19.684  0.00  0.00    +0.000 A 
ATOM     26  C   UNL     1      52.343   5.037  20.648  0.00  0.00    +0.000 A 
ATOM     27  C   UNL     1      52.630   5.434  22.064  0.00  0.00    +0.000 C 
ATOM     28  N   UNL     1      51.065   4.683  20.367  0.00  0.00    +0.000 NA
ATOM     29  C   UNL     1      50.751   4.326  19.104  0.00  0.00    +0.000 A 
ATOM     30  N   UNL     1      49.431   3.897  18.928  0.00  0.00    +0.000 N 
ATOM     31  C   UNL     1      51.704   4.305  18.097  0.00  0.00    +0.000 A 
ATOM     32  H   UNL     1      48.964   4.103  19.809  0.00  0.00    +0.000 HD
ENDBRANCH  20  30
ENDBRANCH   1  20
TORSDOF 5
ENDMDL
MODEL 6
REMARK VINA RESULT:    -6.498      1.814      3.857
REMARK INTER + INTRA:          -8.798
REMARK INTER:                  -8.623
REMARK INTRA:                  -0.176
REMARK UNBOUND:                -0.400
REMARK  Name = 
REMARK  10 active torsions:
REMARK  status: ('A' for Active; 'I' for Inactive)
REMARK    1  A    between atoms: C_1  and  C_2
REMARK    2  A    between atoms: C_4  and  C_5
REMARK    3  A    between atoms: N_8  and  C_9
REMARK    4  A    between atoms: C_9  and  C_10
REMARK    5  A    between atoms: C_14  and  C_15
REMARK    6  A    between atoms: C_20  and  O_22
REMARK    7  A    between atoms: O_22  and  C_23
REMARK    8  A    between atoms: C_23  and  C_24
REMARK    9  A    between atoms: C_23  and  C_25
REMARK   10  A    between atoms: C_23  and  C_26
REMARK                            x       y       z     vdW  Elec       q    Type
REMARK                         _______ _______ _______ _____ _____    ______ ____
ROOT
ATOM      1  C   UNL     1      46.957   7.415  13.212  0.00  0.00    +0.000 A 
ATOM      2  C   UNL     1      47.699   6.409  13.853  0.00  0.00    +0.000 A 
ATOM      3  C   UNL     1      47.204   5.121  13.978  0.00  0.00    +0.000 A 
ATOM      4  C   UNL     1      45.936   4.821  13.479  0.00  0.00    +0.000 A 
ATOM      5  C   UNL     1      45.160   5.778  12.807  0.00  0.00    +0.000 A 
ATOM      6  C   UNL     1      45.713   7.057  12.650  0.00  0.00    +0.000 A 
ENDROOT
BRANCH   5   7
ATOM      7  C   UNL     1      43.735   5.512  12.316  0.00  0.00    +0.000 C 
ATOM      8  C   UNL     1      43.111   4.254  12.952  0.00  0.00    +0.000 C 
ATOM      9  C   UNL     1      43.629   2.939  12.354  0.00  0.00    +0.000 C 
ATOM     10  C   UNL     1      43.742   2.946  10.819  0.00  0.00    +0.000 C 
ATOM     11  N   UNL     1      44.224   4.216  10.282  0.00  0.00    +0.000 N 
ATOM     12  C   UNL     1      45.316   4.400   9.448  0.00  0.00    +0.000 C 
ATOM     13  O   UNL     1      45.612   5.502   9.003  0.00  0.00    +0.000 OA
ATOM     14  C   UNL     1      43.576   5.415  10.792  0.00  0.00    +0.000 C 
BRANCH  12  15
ATOM     15  O   UNL     1      46.058   3.278   9.229  0.00  0.00    +0.000 OA
BRANCH  15  16
ATOM     16  C   UNL     1      46.080   2.728   7.878  0.00  0.00    +0.000 C 
ATOM     17  C   UNL     1      47.304   3.215   7.082  0.00  0.00    +0.000 C 
ATOM     18  C   UNL     1      46.208   1.204   8.037  0.00  0.00    +0.000 C 
ATOM     19  C   UNL     1      44.762   3.008   7.139  0.00  0.00    +0.000 C 
ENDBRANCH  15  16
ENDBRANCH  12  15
ENDBRANCH   5   7
BRANCH   1  20
ATOM     20  C   UNL     1      47.444   8.860  13.237  0.00  0.00    +0.000 C 
ATOM     21  C   UNL     1      48.393   9.322  12.135  0.00  0.00    +0.000 C 
ATOM     22  C   UNL     1      46.957   9.716  12.079  0.00  0.00    +0.000 C 
BRANCH  20  30
ATOM     23  C   UNL     1      52.410   7.760  15.271  0.00  0.00    +0.000 C 
ATOM     24  C   UNL     1      51.316   8.760  15.495  0.00  0.00    +0.000 A 
ATOM     25  C   UNL     1      51.492   9.844  16.347  0.00  0.00    +0.000 A 
ATOM     26  C   UNL     1      50.427  10.718  16.545  0.00  0.00    +0.000 A 
ATOM     27  C   UNL     1      50.555  11.898  17.460  0.00  0.00    +0.000 C 
ATOM     28  N   UNL     1      49.229  10.556  15.932  0.00  0.00    +0.000 NA
ATOM     29  C   UNL     1      49.064   9.513  15.090  0.00  0.00    +0.000 A 
ATOM     30  N   UNL     1      47.773   9.380  14.571  0.00  0.00    +0.000 N 
ATOM     31  C   UNL     1      50.085   8.607  14.849  0.00  0.00    +0.000 A 
ATOM     32  H   UNL     1      47.281  10.225  14.856  0.00  0.00    +0.000 HD
ENDBRANCH  20  30
ENDBRANCH   1  20
TORSDOF 5
ENDMDL
MODEL 7
REMARK VINA RESULT:    -6.359      3.643      7.988
REMARK INTER + INTRA:          -8.618
REMARK INTER:                  -7.858
REMARK INTRA:                  -0.759
REMARK UNBOUND:                -0.400
REMARK  Name = 
REMARK  10 active torsions:
REMARK  status: ('A' for Active; 'I' for Inactive)
REMARK    1  A    between atoms: C_1  and  C_2
REMARK    2  A    between atoms: C_4  and  C_5
REMARK    3  A    between atoms: N_8  and  C_9
REMARK    4  A    between atoms: C_9  and  C_10
REMARK    5  A    between atoms: C_14  and  C_15
REMARK    6  A    between atoms: C_20  and  O_22
REMARK    7  A    between atoms: O_22  and  C_23
REMARK    8  A    between atoms: C_23  and  C_24
REMARK    9  A    between atoms: C_23  and  C_25
REMARK   10  A    between atoms: C_23  and  C_26
REMARK                            x       y       z     vdW  Elec       q    Type
REMARK                         _______ _______ _______ _____ _____    ______ ____
ROOT
ATOM      1  C   UNL     1      48.003   8.277  12.679  0.00  0.00    +0.000 A 
ATOM      2  C   UNL     1      49.091   7.976  11.843  0.00  0.00    +0.000 A 
ATOM      3  C   UNL     1      50.397   8.084  12.295  0.00  0.00    +0.000 A 
ATOM      4  C   UNL     1      50.638   8.522  13.598  0.00  0.00    +0.000 A 
ATOM      5  C   UNL     1      49.591   8.813  14.487  0.00  0.00    +0.000 A 
ATOM      6  C   UNL     1      48.281   8.641  14.014  0.00  0.00    +0.000 A 
ENDROOT
BRANCH   5   7
ATOM      7  C   UNL     1      49.813   9.372  15.895  0.00  0.00    +0.000 C 
ATOM      8  C   UNL     1      51.287   9.726  16.170  0.00  0.00    +0.000 C 
ATOM      9  C   UNL     1      52.173   8.505  16.447  0.00  0.00    +0.000 C 
ATOM     10  C   UNL     1      51.535   7.461  17.382  0.00  0.00    +0.000 C 
ATOM     11  N   UNL     1      50.106   7.270  17.141  0.00  0.00    +0.000 N 
ATOM     12  C   UNL     1      49.467   6.071  16.867  0.00  0.00    +0.000 C 
ATOM     13  O   UNL     1      48.252   6.001  16.734  0.00  0.00    +0.000 OA
ATOM     14  C   UNL     1      49.306   8.481  17.038  0.00  0.00    +0.000 C 
BRANCH  12  15
ATOM     15  O   UNL     1      50.303   5.009  16.695  0.00  0.00    +0.000 OA
BRANCH  15  16
ATOM     16  C   UNL     1      50.311   3.973  17.722  0.00  0.00    +0.000 C 
ATOM     17  C   UNL     1      49.445   2.765  17.323  0.00  0.00    +0.000 C 
ATOM     18  C   UNL     1      51.765   3.484  17.828  0.00  0.00    +0.000 C 
ATOM     19  C   UNL     1      49.913   4.541  19.093  0.00  0.00    +0.000 C 
ENDBRANCH  15  16
ENDBRANCH  12  15
ENDBRANCH   5   7
BRANCH   1  20
ATOM     20  C   UNL     1      46.589   8.317  12.111  0.00  0.00    +0.000 C 
ATOM     21  C   UNL     1      45.476   8.892  12.983  0.00  0.00    +0.000 C 
ATOM     22  C   UNL     1      46.037   9.714  11.874  0.00  0.00    +0.000 C 
BRANCH  20  30
ATOM     23  C   UNL     1      47.221   3.409  14.462  0.00  0.00    +0.000 C 
ATOM     24  C   UNL     1      46.420   4.010  13.346  0.00  0.00    +0.000 A 
ATOM     25  C   UNL     1      45.437   3.281  12.688  0.00  0.00    +0.000 A 
ATOM     26  C   UNL     1      44.753   3.879  11.635  0.00  0.00    +0.000 A 
ATOM     27  C   UNL     1      43.689   3.138  10.883  0.00  0.00    +0.000 C 
ATOM     28  N   UNL     1      45.005   5.148  11.230  0.00  0.00    +0.000 NA
ATOM     29  C   UNL     1      45.948   5.863  11.880  0.00  0.00    +0.000 A 
ATOM     30  N   UNL     1      46.197   7.129  11.341  0.00  0.00    +0.000 N 
ATOM     31  C   UNL     1      46.665   5.326  12.939  0.00  0.00    +0.000 A 
ATOM     32  H   UNL     1      45.472   7.269  10.641  0.00  0.00    +0.000 HD
ENDBRANCH  20  30
ENDBRANCH   1  20
TORSDOF 5
ENDMDL
MODEL 8
REMARK VINA RESULT:    -6.286      4.157      7.634
REMARK INTER + INTRA:          -8.524
REMARK INTER:                  -7.417
REMARK INTRA:                  -1.106
REMARK UNBOUND:                -0.400
REMARK  Name = 
REMARK  10 active torsions:
REMARK  status: ('A' for Active; 'I' for Inactive)
REMARK    1  A    between atoms: C_1  and  C_2
REMARK    2  A    between atoms: C_4  and  C_5
REMARK    3  A    between atoms: N_8  and  C_9
REMARK    4  A    between atoms: C_9  and  C_10
REMARK    5  A    between atoms: C_14  and  C_15
REMARK    6  A    between atoms: C_20  and  O_22
REMARK    7  A    between atoms: O_22  and  C_23
REMARK    8  A    between atoms: C_23  and  C_24
REMARK    9  A    between atoms: C_23  and  C_25
REMARK   10  A    between atoms: C_23  and  C_26
REMARK                            x       y       z     vdW  Elec       q    Type
REMARK                         _______ _______ _______ _____ _____    ______ ____
ROOT
ATOM      1  C   UNL     1      48.479   8.046  14.431  0.00  0.00    +0.000 A 
ATOM      2  C   UNL     1      49.778   7.571  14.185  0.00  0.00    +0.000 A 
ATOM      3  C   UNL     1      50.684   7.388  15.218  0.00  0.00    +0.000 A 
ATOM      4  C   UNL     1      50.307   7.700  16.525  0.00  0.00    +0.000 A 
ATOM      5  C   UNL     1      49.015   8.153  16.835  0.00  0.00    +0.000 A 
ATOM      6  C   UNL     1      48.107   8.277  15.772  0.00  0.00    +0.000 A 
ENDROOT
BRANCH   5   7
ATOM      7  C   UNL     1      48.588   8.583  18.240  0.00  0.00    +0.000 C 
ATOM      8  C   UNL     1      49.787   8.858  19.169  0.00  0.00    +0.000 C 
ATOM      9  C   UNL     1      50.464   7.585  19.695  0.00  0.00    +0.000 C 
ATOM     10  C   UNL     1      49.482   6.491  20.152  0.00  0.00    +0.000 C 
ATOM     11  N   UNL     1      48.308   6.374  19.288  0.00  0.00    +0.000 N 
ATOM     12  C   UNL     1      47.861   5.227  18.652  0.00  0.00    +0.000 C 
ATOM     13  O   UNL     1      46.831   5.214  17.990  0.00  0.00    +0.000 OA
ATOM     14  C   UNL     1      47.631   7.618  18.955  0.00  0.00    +0.000 C 
BRANCH  12  15
ATOM     15  O   UNL     1      48.692   4.153  18.769  0.00  0.00    +0.000 OA
BRANCH  15  16
ATOM     16  C   UNL     1      49.504   3.789  17.613  0.00  0.00    +0.000 C 
ATOM     17  C   UNL     1      50.974   4.209  17.792  0.00  0.00    +0.000 C 
ATOM     18  C   UNL     1      49.468   2.254  17.527  0.00  0.00    +0.000 C 
ATOM     19  C   UNL     1      48.901   4.340  16.311  0.00  0.00    +0.000 C 
ENDBRANCH  15  16
ENDBRANCH  12  15
ENDBRANCH   5   7
BRANCH   1  20
ATOM     20  C   UNL     1      47.560   8.402  13.267  0.00  0.00    +0.000 C 
ATOM     21  C   UNL     1      47.602   9.828  12.724  0.00  0.00    +0.000 C 
ATOM     22  C   UNL     1      48.278   8.736  11.969  0.00  0.00    +0.000 C 
BRANCH  20  30
ATOM     23  C   UNL     1      45.878   5.232   9.129  0.00  0.00    +0.000 C 
ATOM     24  C   UNL     1      45.524   5.459  10.568  0.00  0.00    +0.000 A 
ATOM     25  C   UNL     1      44.605   4.647  11.222  0.00  0.00    +0.000 A 
ATOM     26  C   UNL     1      44.287   4.929  12.547  0.00  0.00    +0.000 A 
ATOM     27  C   UNL     1      43.296   4.095  13.300  0.00  0.00    +0.000 C 
ATOM     28  N   UNL     1      44.846   5.962  13.225  0.00  0.00    +0.000 NA
ATOM     29  C   UNL     1      45.752   6.740  12.595  0.00  0.00    +0.000 A 
ATOM     30  N   UNL     1      46.211   7.827  13.345  0.00  0.00    +0.000 N 
ATOM     31  C   UNL     1      46.113   6.511  11.276  0.00  0.00    +0.000 A 
ATOM     32  H   UNL     1      45.839   7.682  14.282  0.00  0.00    +0.000 HD
ENDBRANCH  20  30
ENDBRANCH   1  20
TORSDOF 5
ENDMDL
MODEL 9
REMARK VINA RESULT:    -6.164      4.020      7.894
REMARK INTER + INTRA:          -8.367
REMARK INTER:                  -7.018
REMARK INTRA:                  -1.348
REMARK UNBOUND:                -0.400
REMARK  Name = 
REMARK  10 active torsions:
REMARK  status: ('A' for Active; 'I' for Inactive)
REMARK    1  A    between atoms: C_1  and  C_2
REMARK    2  A    between atoms: C_4  and  C_5
REMARK    3  A    between atoms: N_8  and  C_9
REMARK    4  A    between atoms: C_9  and  C_10
REMARK    5  A    between atoms: C_14  and  C_15
REMARK    6  A    between atoms: C_20  and  O_22
REMARK    7  A    between atoms: O_22  and  C_23
REMARK    8  A    between atoms: C_23  and  C_24
REMARK    9  A    between atoms: C_23  and  C_25
REMARK   10  A    between atoms: C_23  and  C_26
REMARK                            x       y       z     vdW  Elec       q    Type
REMARK                         _______ _______ _______ _____ _____    ______ ____
ROOT
ATOM      1  C   UNL     1      50.563   8.235  16.539  0.00  0.00    +0.000 A 
ATOM      2  C   UNL     1      49.665   9.013  17.288  0.00  0.00    +0.000 A 
ATOM      3  C   UNL     1      48.770   9.873  16.671  0.00  0.00    +0.000 A 
ATOM      4  C   UNL     1      48.775   9.985  15.280  0.00  0.00    +0.000 A 
ATOM      5  C   UNL     1      49.631   9.215  14.477  0.00  0.00    +0.000 A 
ATOM      6  C   UNL     1      50.487   8.315  15.132  0.00  0.00    +0.000 A 
ENDROOT
BRANCH   5   7
ATOM      7  C   UNL     1      49.724   9.367  12.957  0.00  0.00    +0.000 C 
ATOM      8  C   UNL     1      48.873  10.535  12.422  0.00  0.00    +0.000 C 
ATOM      9  C   UNL     1      47.371  10.227  12.363  0.00  0.00    +0.000 C 
ATOM     10  C   UNL     1      47.035   8.829  11.814  0.00  0.00    +0.000 C 
ATOM     11  N   UNL     1      47.962   7.793  12.268  0.00  0.00    +0.000 N 
ATOM     12  C   UNL     1      47.630   6.614  12.917  0.00  0.00    +0.000 C 
ATOM     13  O   UNL     1      48.475   5.778  13.212  0.00  0.00    +0.000 OA
ATOM     14  C   UNL     1      49.378   8.106  12.153  0.00  0.00    +0.000 C 
BRANCH  12  15
ATOM     15  O   UNL     1      46.314   6.503  13.254  0.00  0.00    +0.000 OA
BRANCH  15  16
ATOM     16  C   UNL     1      45.527   5.465  12.597  0.00  0.00    +0.000 C 
ATOM     17  C   UNL     1      45.834   4.069  13.166  0.00  0.00    +0.000 C 
ATOM     18  C   UNL     1      44.055   5.779  12.910  0.00  0.00    +0.000 C 
ATOM     19  C   UNL     1      45.697   5.516  11.071  0.00  0.00    +0.000 C 
ENDBRANCH  15  16
ENDBRANCH  12  15
ENDBRANCH   5   7
BRANCH   1  20
ATOM     20  C   UNL     1      51.649   7.429  17.241  0.00  0.00    +0.000 C 
ATOM     21  C   UNL     1      53.087   7.933  17.166  0.00  0.00    +0.000 C 
ATOM     22  C   UNL     1      52.305   8.134  18.417  0.00  0.00    +0.000 C 
BRANCH  20  30
ATOM     23  C   UNL     1      48.473   4.826  20.867  0.00  0.00    +0.000 C 
ATOM     24  C   UNL     1      49.028   4.575  19.498  0.00  0.00    +0.000 A 
ATOM     25  C   UNL     1      48.641   3.467  18.753  0.00  0.00    +0.000 A 
ATOM     26  C   UNL     1      49.219   3.267  17.503  0.00  0.00    +0.000 A 
ATOM     27  C   UNL     1      48.848   2.085  16.660  0.00  0.00    +0.000 C 
ATOM     28  N   UNL     1      50.140   4.115  16.983  0.00  0.00    +0.000 NA
ATOM     29  C   UNL     1      50.502   5.201  17.698  0.00  0.00    +0.000 A 
ATOM     30  N   UNL     1      51.516   5.971  17.119  0.00  0.00    +0.000 N 
ATOM     31  C   UNL     1      49.963   5.459  18.949  0.00  0.00    +0.000 A 
ATOM     32  H   UNL     1      51.643   5.586  16.184  0.00  0.00    +0.000 HD
ENDBRANCH  20  30
ENDBRANCH   1  20
TORSDOF 5
ENDMDL
