MODEL 1
REMARK VINA RESULT:    -8.345      0.000      0.000
REMARK INTER + INTRA:         -13.107
REMARK INTER:                 -12.004
REMARK INTRA:                  -1.104
REMARK UNBOUND:                -1.104
REMARK  Name = 
REMARK  8 active torsions:
REMARK  status: ('A' for Active; 'I' for Inactive)
REMARK    1  A    between atoms: C_2  and  C_21
REMARK    2  A    between atoms: N_3  and  C_4
REMARK    3  A    between atoms: C_4  and  C_5
REMARK    4  A    between atoms: C_8  and  C_9
REMARK    5  A    between atoms: C_9  and  C_10
REMARK    6  A    between atoms: C_9  and  C_12
REMARK    7  A    between atoms: C_10  and  O_11
REMARK    8  A    between atoms: C_12  and  C_13
REMARK                            x       y       z     vdW  Elec       q    Type
REMARK                         _______ _______ _______ _____ _____    ______ ____
ROOT
ATOM      1  C   UNL     1      47.132   6.381  12.999  0.00  0.00    +0.000 A 
ATOM      2  C   UNL     1      46.807   5.145  13.572  0.00  0.00    +0.000 A 
ATOM      3  C   UNL     1      45.984   4.240  12.893  0.00  0.00    +0.000 A 
ATOM      4  C   UNL     1      45.473   4.549  11.624  0.00  0.00    +0.000 A 
ATOM      5  C   UNL     1      45.785   5.800  11.071  0.00  0.00    +0.000 A 
ATOM      6  C   UNL     1      46.628   6.690  11.733  0.00  0.00    +0.000 A 
ENDROOT
BRANCH   1   7
ATOM      7  C   UNL     1      48.005   7.371  13.718  0.00  0.00    +0.000 C 
BRANCH   7  10
ATOM      8  O   UNL     1      50.145   6.677  15.294  0.00  0.00    +0.000 OA
ATOM      9  C   UNL     1      49.087   6.954  15.854  0.00  0.00    +0.000 C 
ATOM     10  N   UNL     1      47.940   7.219  15.148  0.00  0.00    +0.000 N 
ATOM     11  H   UNL     1      47.141   7.629  15.623  0.00  0.00    +0.000 HD
BRANCH   9  12
ATOM     12  C   UNL     1      48.992   6.986  17.317  0.00  0.00    +0.000 A 
ATOM     13  C   UNL     1      48.824   8.199  17.969  0.00  0.00    +0.000 A 
ATOM     14  S   UNL     1      48.706   8.053  19.664  0.00  0.00    +0.000 S 
ATOM     15  C   UNL     1      48.837   6.357  19.579  0.00  0.00    +0.000 A 
ATOM     16  N   UNL     1      48.759   5.594  20.702  0.00  0.00    +0.000 NA
ATOM     17  C   UNL     1      48.825   4.323  20.487  0.00  0.00    +0.000 A 
ATOM     18  N   UNL     1      48.974   3.746  19.253  0.00  0.00    +0.000 N 
ATOM     19  C   UNL     1      49.097   4.478  18.096  0.00  0.00    +0.000 A 
ATOM     20  O   UNL     1      49.295   3.934  17.014  0.00  0.00    +0.000 OA
ATOM     21  C   UNL     1      48.997   5.913  18.279  0.00  0.00    +0.000 A 
ATOM     22  H   UNL     1      49.034   2.743  19.154  0.00  0.00    +0.000 HD
ENDBRANCH   9  12
ENDBRANCH   7  10
ENDBRANCH   1   7
BRANCH   4  23
ATOM     23  C   UNL     1      44.605   3.535  10.880  0.00  0.00    +0.000 C 
BRANCH  23  24
ATOM     24  C   UNL     1      43.255   3.349  11.601  0.00  0.00    +0.000 C 
BRANCH  24  25
ATOM     25  O   UNL     1      42.879   1.975  11.688  0.00  0.00    +0.000 OA
ATOM     26  H   UNL     1      43.669   1.492  11.992  0.00  0.00    +0.000 HD
ENDBRANCH  24  25
ENDBRANCH  23  24
BRANCH  23  27
ATOM     27  C   UNL     1      44.359   3.866   9.387  0.00  0.00    +0.000 C 
BRANCH  27  28
ATOM     28  C   UNL     1      45.396   3.287   8.452  0.00  0.00    +0.000 A 
ATOM     29  C   UNL     1      45.764   1.944   8.550  0.00  0.00    +0.000 A 
ATOM     30  C   UNL     1      46.731   1.442   7.687  0.00  0.00    +0.000 A 
ATOM     31  C   UNL     1      47.313   2.291   6.756  0.00  0.00    +0.000 A 
ATOM     32  C   UNL     1      46.896   3.611   6.726  0.00  0.00    +0.000 A 
ATOM     33  N   UNL     1      45.956   4.127   7.549  0.00  0.00    +0.000 NA
ENDBRANCH  27  28
ENDBRANCH  23  27
ENDBRANCH   4  23
TORSDOF 8
ENDMDL
MODEL 2
REMARK VINA RESULT:    -7.929      1.759      2.347
REMARK INTER + INTRA:         -12.509
REMARK INTER:                 -11.251
REMARK INTRA:                  -1.258
REMARK UNBOUND:                -1.104
REMARK  Name = 
REMARK  8 active torsions:
REMARK  status: ('A' for Active; 'I' for Inactive)
REMARK    1  A    between atoms: C_2  and  C_21
REMARK    2  A    between atoms: N_3  and  C_4
REMARK    3  A    between atoms: C_4  and  C_5
REMARK    4  A    between atoms: C_8  and  C_9
REMARK    5  A    between atoms: C_9  and  C_10
REMARK    6  A    between atoms: C_9  and  C_12
REMARK    7  A    between atoms: C_10  and  O_11
REMARK    8  A    between atoms: C_12  and  C_13
REMARK                            x       y       z     vdW  Elec       q    Type
REMARK                         _______ _______ _______ _____ _____    ______ ____
ROOT
ATOM      1  C   UNL     1      47.392   6.163  13.368  0.00  0.00    +0.000 A 
ATOM      2  C   UNL     1      46.663   5.032  13.752  0.00  0.00    +0.000 A 
ATOM      3  C   UNL     1      45.725   4.459  12.885  0.00  0.00    +0.000 A 
ATOM      4  C   UNL     1      45.503   5.003  11.612  0.00  0.00    +0.000 A 
ATOM      5  C   UNL     1      46.222   6.152  11.247  0.00  0.00    +0.000 A 
ATOM      6  C   UNL     1      47.175   6.705  12.098  0.00  0.00    +0.000 A 
ENDROOT
BRANCH   1   7
ATOM      7  C   UNL     1      48.394   6.798  14.291  0.00  0.00    +0.000 C 
BRANCH   7  10
ATOM      8  O   UNL     1      50.135   5.859  16.196  0.00  0.00    +0.000 OA
ATOM      9  C   UNL     1      49.021   6.223  16.567  0.00  0.00    +0.000 C 
ATOM     10  N   UNL     1      48.053   6.616  15.677  0.00  0.00    +0.000 N 
ATOM     11  H   UNL     1      47.220   7.089  16.016  0.00  0.00    +0.000 HD
BRANCH   9  12
ATOM     12  C   UNL     1      48.661   6.226  17.988  0.00  0.00    +0.000 A 
ATOM     13  C   UNL     1      48.871   5.089  18.754  0.00  0.00    +0.000 A 
ATOM     14  S   UNL     1      48.421   5.273  20.389  0.00  0.00    +0.000 S 
ATOM     15  C   UNL     1      47.965   6.893  20.135  0.00  0.00    +0.000 A 
ATOM     16  N   UNL     1      47.524   7.665  21.165  0.00  0.00    +0.000 NA
ATOM     17  C   UNL     1      47.259   8.885  20.840  0.00  0.00    +0.000 A 
ATOM     18  N   UNL     1      47.382   9.403  19.577  0.00  0.00    +0.000 N 
ATOM     19  C   UNL     1      47.785   8.652  18.499  0.00  0.00    +0.000 A 
ATOM     20  O   UNL     1      47.823   9.127  17.368  0.00  0.00    +0.000 OA
ATOM     21  C   UNL     1      48.127   7.279  18.816  0.00  0.00    +0.000 A 
ATOM     22  H   UNL     1      47.144  10.364  19.385  0.00  0.00    +0.000 HD
ENDBRANCH   9  12
ENDBRANCH   7  10
ENDBRANCH   1   7
BRANCH   4  23
ATOM     23  C   UNL     1      44.502   4.345  10.662  0.00  0.00    +0.000 C 
BRANCH  23  24
ATOM     24  C   UNL     1      43.058   4.716  11.058  0.00  0.00    +0.000 C 
BRANCH  24  25
ATOM     25  O   UNL     1      42.765   6.086  10.789  0.00  0.00    +0.000 OA
ATOM     26  H   UNL     1      41.842   6.230  11.069  0.00  0.00    +0.000 HD
ENDBRANCH  24  25
ENDBRANCH  23  24
BRANCH  23  27
ATOM     27  C   UNL     1      44.730   4.661   9.163  0.00  0.00    +0.000 C 
BRANCH  27  28
ATOM     28  C   UNL     1      45.555   3.623   8.438  0.00  0.00    +0.000 A 
ATOM     29  C   UNL     1      45.476   2.278   8.801  0.00  0.00    +0.000 A 
ATOM     30  C   UNL     1      46.258   1.346   8.126  0.00  0.00    +0.000 A 
ATOM     31  C   UNL     1      47.105   1.780   7.115  0.00  0.00    +0.000 A 
ATOM     32  C   UNL     1      47.128   3.133   6.819  0.00  0.00    +0.000 A 
ATOM     33  N   UNL     1      46.377   4.060   7.453  0.00  0.00    +0.000 NA
ENDBRANCH  27  28
ENDBRANCH  23  27
ENDBRANCH   4  23
TORSDOF 8
ENDMDL
MODEL 3
REMARK VINA RESULT:    -7.793      1.876      2.231
REMARK INTER + INTRA:         -12.314
REMARK INTER:                 -11.175
REMARK INTRA:                  -1.139
REMARK UNBOUND:                -1.104
REMARK  Name = 
REMARK  8 active torsions:
REMARK  status: ('A' for Active; 'I' for Inactive)
REMARK    1  A    between atoms: C_2  and  C_21
REMARK    2  A    between atoms: N_3  and  C_4
REMARK    3  A    between atoms: C_4  and  C_5
REMARK    4  A    between atoms: C_8  and  C_9
REMARK    5  A    between atoms: C_9  and  C_10
REMARK    6  A    between atoms: C_9  and  C_12
REMARK    7  A    between atoms: C_10  and  O_11
REMARK    8  A    between atoms: C_12  and  C_13
REMARK                            x       y       z     vdW  Elec       q    Type
REMARK                         _______ _______ _______ _____ _____    ______ ____
ROOT
ATOM      1  C   UNL     1      46.903   6.513  12.927  0.00  0.00    +0.000 A 
ATOM      2  C   UNL     1      46.734   5.312  13.626  0.00  0.00    +0.000 A 
ATOM      3  C   UNL     1      46.011   4.254  13.062  0.00  0.00    +0.000 A 
ATOM      4  C   UNL     1      45.447   4.375  11.783  0.00  0.00    +0.000 A 
ATOM      5  C   UNL     1      45.602   5.592  11.103  0.00  0.00    +0.000 A 
ATOM      6  C   UNL     1      46.346   6.634  11.651  0.00  0.00    +0.000 A 
ENDROOT
BRANCH   1   7
ATOM      7  C   UNL     1      47.666   7.663  13.522  0.00  0.00    +0.000 C 
BRANCH   7  10
ATOM      8  O   UNL     1      48.582   8.294  16.033  0.00  0.00    +0.000 OA
ATOM      9  C   UNL     1      49.275   7.554  15.339  0.00  0.00    +0.000 C 
ATOM     10  N   UNL     1      48.947   7.260  14.039  0.00  0.00    +0.000 N 
ATOM     11  H   UNL     1      49.425   6.504  13.558  0.00  0.00    +0.000 HD
BRANCH   9  12
ATOM     12  C   UNL     1      50.513   6.967  15.862  0.00  0.00    +0.000 A 
ATOM     13  C   UNL     1      51.737   7.516  15.512  0.00  0.00    +0.000 A 
ATOM     14  S   UNL     1      53.070   6.729  16.228  0.00  0.00    +0.000 S 
ATOM     15  C   UNL     1      52.051   5.650  17.061  0.00  0.00    +0.000 A 
ATOM     16  N   UNL     1      52.565   4.721  17.913  0.00  0.00    +0.000 NA
ATOM     17  C   UNL     1      51.677   4.003  18.513  0.00  0.00    +0.000 A 
ATOM     18  N   UNL     1      50.323   4.118  18.332  0.00  0.00    +0.000 N 
ATOM     19  C   UNL     1      49.762   5.013  17.453  0.00  0.00    +0.000 A 
ATOM     20  O   UNL     1      48.550   5.048  17.264  0.00  0.00    +0.000 OA
ATOM     21  C   UNL     1      50.715   5.869  16.775  0.00  0.00    +0.000 A 
ATOM     22  H   UNL     1      49.681   3.513  18.822  0.00  0.00    +0.000 HD
ENDBRANCH   9  12
ENDBRANCH   7  10
ENDBRANCH   1   7
BRANCH   4  23
ATOM     23  C   UNL     1      44.691   3.198  11.166  0.00  0.00    +0.000 C 
BRANCH  23  24
ATOM     24  C   UNL     1      43.433   2.870  11.996  0.00  0.00    +0.000 C 
BRANCH  24  25
ATOM     25  O   UNL     1      42.801   1.670  11.558  0.00  0.00    +0.000 OA
ATOM     26  H   UNL     1      42.051   1.516  12.162  0.00  0.00    +0.000 HD
ENDBRANCH  24  25
ENDBRANCH  23  24
BRANCH  23  27
ATOM     27  C   UNL     1      44.301   3.389   9.680  0.00  0.00    +0.000 C 
BRANCH  27  28
ATOM     28  C   UNL     1      45.353   2.910   8.705  0.00  0.00    +0.000 A 
ATOM     29  C   UNL     1      45.906   3.791   7.775  0.00  0.00    +0.000 A 
ATOM     30  C   UNL     1      46.861   3.319   6.880  0.00  0.00    +0.000 A 
ATOM     31  C   UNL     1      47.231   1.983   6.929  0.00  0.00    +0.000 A 
ATOM     32  C   UNL     1      46.631   1.173   7.879  0.00  0.00    +0.000 A 
ATOM     33  N   UNL     1      45.705   1.603   8.764  0.00  0.00    +0.000 NA
ENDBRANCH  27  28
ENDBRANCH  23  27
ENDBRANCH   4  23
TORSDOF 8
ENDMDL
MODEL 4
REMARK VINA RESULT:    -7.583      1.616      2.063
REMARK INTER + INTRA:         -12.011
REMARK INTER:                 -10.714
REMARK INTRA:                  -1.297
REMARK UNBOUND:                -1.104
REMARK  Name = 
REMARK  8 active torsions:
REMARK  status: ('A' for Active; 'I' for Inactive)
REMARK    1  A    between atoms: C_2  and  C_21
REMARK    2  A    between atoms: N_3  and  C_4
REMARK    3  A    between atoms: C_4  and  C_5
REMARK    4  A    between atoms: C_8  and  C_9
REMARK    5  A    between atoms: C_9  and  C_10
REMARK    6  A    between atoms: C_9  and  C_12
REMARK    7  A    between atoms: C_10  and  O_11
REMARK    8  A    between atoms: C_12  and  C_13
REMARK                            x       y       z     vdW  Elec       q    Type
REMARK                         _______ _______ _______ _____ _____    ______ ____
ROOT
ATOM      1  C   UNL     1      47.783   6.356  13.751  0.00  0.00    +0.000 A 
ATOM      2  C   UNL     1      47.201   6.775  12.548  0.00  0.00    +0.000 A 
ATOM      3  C   UNL     1      46.121   6.077  11.997  0.00  0.00    +0.000 A 
ATOM      4  C   UNL     1      45.594   4.948  12.642  0.00  0.00    +0.000 A 
ATOM      5  C   UNL     1      46.201   4.523  13.833  0.00  0.00    +0.000 A 
ATOM      6  C   UNL     1      47.258   5.234  14.397  0.00  0.00    +0.000 A 
ENDROOT
BRANCH   1   7
ATOM      7  C   UNL     1      48.951   7.086  14.350  0.00  0.00    +0.000 C 
BRANCH   7  10
ATOM      8  O   UNL     1      50.939   6.209  16.030  0.00  0.00    +0.000 OA
ATOM      9  C   UNL     1      49.964   6.760  16.535  0.00  0.00    +0.000 C 
ATOM     10  N   UNL     1      48.880   7.146  15.787  0.00  0.00    +0.000 N 
ATOM     11  H   UNL     1      48.183   7.765  16.192  0.00  0.00    +0.000 HD
BRANCH   9  12
ATOM     12  C   UNL     1      49.899   7.010  17.979  0.00  0.00    +0.000 A 
ATOM     13  C   UNL     1      50.826   7.853  18.574  0.00  0.00    +0.000 A 
ATOM     14  S   UNL     1      50.590   8.052  20.251  0.00  0.00    +0.000 S 
ATOM     15  C   UNL     1      49.217   7.046  20.231  0.00  0.00    +0.000 A 
ATOM     16  N   UNL     1      48.494   6.828  21.362  0.00  0.00    +0.000 NA
ATOM     17  C   UNL     1      47.452   6.086  21.192  0.00  0.00    +0.000 A 
ATOM     18  N   UNL     1      47.074   5.530  19.998  0.00  0.00    +0.000 N 
ATOM     19  C   UNL     1      47.795   5.689  18.839  0.00  0.00    +0.000 A 
ATOM     20  O   UNL     1      47.466   5.125  17.800  0.00  0.00    +0.000 OA
ATOM     21  C   UNL     1      48.959   6.543  18.968  0.00  0.00    +0.000 A 
ATOM     22  H   UNL     1      46.254   4.945  19.935  0.00  0.00    +0.000 HD
ENDBRANCH   9  12
ENDBRANCH   7  10
ENDBRANCH   1   7
BRANCH   4  23
ATOM     23  C   UNL     1      44.391   4.217  12.047  0.00  0.00    +0.000 C 
BRANCH  23  24
ATOM     24  C   UNL     1      43.144   4.422  12.930  0.00  0.00    +0.000 C 
BRANCH  24  25
ATOM     25  O   UNL     1      42.950   5.792  13.273  0.00  0.00    +0.000 OA
ATOM     26  H   UNL     1      42.264   6.133  12.669  0.00  0.00    +0.000 HD
ENDBRANCH  24  25
ENDBRANCH  23  24
BRANCH  23  27
ATOM     27  C   UNL     1      44.063   4.600  10.582  0.00  0.00    +0.000 C 
BRANCH  27  28
ATOM     28  C   UNL     1      44.851   3.821   9.554  0.00  0.00    +0.000 A 
ATOM     29  C   UNL     1      45.508   4.483   8.517  0.00  0.00    +0.000 A 
ATOM     30  C   UNL     1      46.214   3.739   7.577  0.00  0.00    +0.000 A 
ATOM     31  C   UNL     1      46.237   2.357   7.689  0.00  0.00    +0.000 A 
ATOM     32  C   UNL     1      45.555   1.775   8.745  0.00  0.00    +0.000 A 
ATOM     33  N   UNL     1      44.866   2.471   9.676  0.00  0.00    +0.000 NA
ENDBRANCH  27  28
ENDBRANCH  23  27
ENDBRANCH   4  23
TORSDOF 8
ENDMDL
MODEL 5
REMARK VINA RESULT:    -7.376      4.088      4.912
REMARK INTER + INTRA:         -11.714
REMARK INTER:                 -10.237
REMARK INTRA:                  -1.477
REMARK UNBOUND:                -1.104
REMARK  Name = 
REMARK  8 active torsions:
REMARK  status: ('A' for Active; 'I' for Inactive)
REMARK    1  A    between atoms: C_2  and  C_21
REMARK    2  A    between atoms: N_3  and  C_4
REMARK    3  A    between atoms: C_4  and  C_5
REMARK    4  A    between atoms: C_8  and  C_9
REMARK    5  A    between atoms: C_9  and  C_10
REMARK    6  A    between atoms: C_9  and  C_12
REMARK    7  A    between atoms: C_10  and  O_11
REMARK    8  A    between atoms: C_12  and  C_13
REMARK                            x       y       z     vdW  Elec       q    Type
REMARK                         _______ _______ _______ _____ _____    ______ ____
ROOT
ATOM      1  C   UNL     1      45.878   7.449  12.695  0.00  0.00    +0.000 A 
ATOM      2  C   UNL     1      46.386   6.309  13.331  0.00  0.00    +0.000 A 
ATOM      3  C   UNL     1      46.052   5.029  12.875  0.00  0.00    +0.000 A 
ATOM      4  C   UNL     1      45.207   4.862  11.768  0.00  0.00    +0.000 A 
ATOM      5  C   UNL     1      44.684   6.011  11.155  0.00  0.00    +0.000 A 
ATOM      6  C   UNL     1      45.039   7.285  11.590  0.00  0.00    +0.000 A 
ENDROOT
BRANCH   1   7
ATOM      7  C   UNL     1      46.217   8.831  13.179  0.00  0.00    +0.000 C 
BRANCH   7  10
ATOM      8  O   UNL     1      48.262   9.225  14.970  0.00  0.00    +0.000 OA
ATOM      9  C   UNL     1      48.523   9.315  13.772  0.00  0.00    +0.000 C 
ATOM     10  N   UNL     1      47.549   9.228  12.808  0.00  0.00    +0.000 N 
ATOM     11  H   UNL     1      47.815   9.113  11.835  0.00  0.00    +0.000 HD
BRANCH   9  12
ATOM     12  C   UNL     1      49.896   9.551  13.313  0.00  0.00    +0.000 A 
ATOM     13  C   UNL     1      50.647  10.568  13.883  0.00  0.00    +0.000 A 
ATOM     14  S   UNL     1      52.227  10.687  13.252  0.00  0.00    +0.000 S 
ATOM     15  C   UNL     1      51.971   9.356  12.222  0.00  0.00    +0.000 A 
ATOM     16  N   UNL     1      52.969   8.889  11.423  0.00  0.00    +0.000 NA
ATOM     17  C   UNL     1      52.652   7.846  10.732  0.00  0.00    +0.000 A 
ATOM     18  N   UNL     1      51.425   7.235  10.755  0.00  0.00    +0.000 N 
ATOM     19  C   UNL     1      50.377   7.694  11.515  0.00  0.00    +0.000 A 
ATOM     20  O   UNL     1      49.271   7.164  11.465  0.00  0.00    +0.000 OA
ATOM     21  C   UNL     1      50.690   8.847  12.338  0.00  0.00    +0.000 A 
ATOM     22  H   UNL     1      51.237   6.429  10.178  0.00  0.00    +0.000 HD
ENDBRANCH   9  12
ENDBRANCH   7  10
ENDBRANCH   1   7
BRANCH   4  23
ATOM     23  C   UNL     1      44.880   3.458  11.260  0.00  0.00    +0.000 C 
BRANCH  23  24
ATOM     24  C   UNL     1      43.910   2.747  12.225  0.00  0.00    +0.000 C 
BRANCH  24  25
ATOM     25  O   UNL     1      42.871   2.061  11.530  0.00  0.00    +0.000 OA
ATOM     26  H   UNL     1      42.461   2.713  10.932  0.00  0.00    +0.000 HD
ENDBRANCH  24  25
ENDBRANCH  23  24
BRANCH  23  27
ATOM     27  C   UNL     1      44.314   3.409   9.819  0.00  0.00    +0.000 C 
BRANCH  27  28
ATOM     28  C   UNL     1      45.313   2.946   8.784  0.00  0.00    +0.000 A 
ATOM     29  C   UNL     1      45.791   3.832   7.817  0.00  0.00    +0.000 A 
ATOM     30  C   UNL     1      46.699   3.375   6.868  0.00  0.00    +0.000 A 
ATOM     31  C   UNL     1      47.099   2.047   6.900  0.00  0.00    +0.000 A 
ATOM     32  C   UNL     1      46.575   1.230   7.889  0.00  0.00    +0.000 A 
ATOM     33  N   UNL     1      45.696   1.646   8.827  0.00  0.00    +0.000 NA
ENDBRANCH  27  28
ENDBRANCH  23  27
ENDBRANCH   4  23
TORSDOF 8
ENDMDL
MODEL 6
REMARK VINA RESULT:    -7.054      1.801      2.163
REMARK INTER + INTRA:         -11.251
REMARK INTER:                 -10.139
REMARK INTRA:                  -1.112
REMARK UNBOUND:                -1.104
REMARK  Name = 
REMARK  8 active torsions:
REMARK  status: ('A' for Active; 'I' for Inactive)
REMARK    1  A    between atoms: C_2  and  C_21
REMARK    2  A    between atoms: N_3  and  C_4
REMARK    3  A    between atoms: C_4  and  C_5
REMARK    4  A    between atoms: C_8  and  C_9
REMARK    5  A    between atoms: C_9  and  C_10
REMARK    6  A    between atoms: C_9  and  C_12
REMARK    7  A    between atoms: C_10  and  O_11
REMARK    8  A    between atoms: C_12  and  C_13
REMARK                            x       y       z     vdW  Elec       q    Type
REMARK                         _______ _______ _______ _____ _____    ______ ____
ROOT
ATOM      1  C   UNL     1      47.394   6.558  13.073  0.00  0.00    +0.000 A 
ATOM      2  C   UNL     1      47.059   6.942  11.768  0.00  0.00    +0.000 A 
ATOM      3  C   UNL     1      46.098   6.231  11.040  0.00  0.00    +0.000 A 
ATOM      4  C   UNL     1      45.447   5.125  11.605  0.00  0.00    +0.000 A 
ATOM      5  C   UNL     1      45.809   4.734  12.903  0.00  0.00    +0.000 A 
ATOM      6  C   UNL     1      46.744   5.458  13.638  0.00  0.00    +0.000 A 
ENDROOT
BRANCH   1   7
ATOM      7  C   UNL     1      48.432   7.302  13.864  0.00  0.00    +0.000 C 
BRANCH   7  10
ATOM      8  O   UNL     1      48.895   8.507  16.289  0.00  0.00    +0.000 OA
ATOM      9  C   UNL     1      48.945   7.280  16.240  0.00  0.00    +0.000 C 
ATOM     10  N   UNL     1      48.821   6.596  15.056  0.00  0.00    +0.000 N 
ATOM     11  H   UNL     1      48.674   5.591  15.070  0.00  0.00    +0.000 HD
BRANCH   9  12
ATOM     12  C   UNL     1      49.169   6.484  17.450  0.00  0.00    +0.000 A 
ATOM     13  C   UNL     1      48.085   5.980  18.154  0.00  0.00    +0.000 A 
ATOM     14  S   UNL     1      48.524   5.056  19.518  0.00  0.00    +0.000 S 
ATOM     15  C   UNL     1      50.182   5.267  19.191  0.00  0.00    +0.000 A 
ATOM     16  N   UNL     1      51.128   4.676  19.970  0.00  0.00    +0.000 NA
ATOM     17  C   UNL     1      52.341   4.880  19.580  0.00  0.00    +0.000 A 
ATOM     18  N   UNL     1      52.696   5.630  18.489  0.00  0.00    +0.000 N 
ATOM     19  C   UNL     1      51.778   6.277  17.697  0.00  0.00    +0.000 A 
ATOM     20  O   UNL     1      52.131   6.994  16.766  0.00  0.00    +0.000 OA
ATOM     21  C   UNL     1      50.396   6.054  18.073  0.00  0.00    +0.000 A 
ATOM     22  H   UNL     1      53.666   5.763  18.245  0.00  0.00    +0.000 HD
ENDBRANCH   9  12
ENDBRANCH   7  10
ENDBRANCH   1   7
BRANCH   4  23
ATOM     23  C   UNL     1      44.374   4.381  10.810  0.00  0.00    +0.000 C 
BRANCH  23  24
ATOM     24  C   UNL     1      42.969   4.727  11.344  0.00  0.00    +0.000 C 
BRANCH  24  25
ATOM     25  O   UNL     1      42.573   6.051  10.990  0.00  0.00    +0.000 OA
ATOM     26  H   UNL     1      41.980   5.965  10.220  0.00  0.00    +0.000 HD
ENDBRANCH  24  25
ENDBRANCH  23  24
BRANCH  23  27
ATOM     27  C   UNL     1      44.424   4.616   9.280  0.00  0.00    +0.000 C 
BRANCH  27  28
ATOM     28  C   UNL     1      45.330   3.656   8.543  0.00  0.00    +0.000 A 
ATOM     29  C   UNL     1      45.347   2.302   8.878  0.00  0.00    +0.000 A 
ATOM     30  C   UNL     1      46.201   1.444   8.192  0.00  0.00    +0.000 A 
ATOM     31  C   UNL     1      47.022   1.960   7.200  0.00  0.00    +0.000 A 
ATOM     32  C   UNL     1      46.949   3.316   6.930  0.00  0.00    +0.000 A 
ATOM     33  N   UNL     1      46.126   4.173   7.576  0.00  0.00    +0.000 NA
ENDBRANCH  27  28
ENDBRANCH  23  27
ENDBRANCH   4  23
TORSDOF 8
ENDMDL
MODEL 7
REMARK VINA RESULT:    -6.973      3.436      6.041
REMARK INTER + INTRA:         -11.134
REMARK INTER:                 -10.818
REMARK INTRA:                  -0.316
REMARK UNBOUND:                -1.104
REMARK  Name = 
REMARK  8 active torsions:
REMARK  status: ('A' for Active; 'I' for Inactive)
REMARK    1  A    between atoms: C_2  and  C_21
REMARK    2  A    between atoms: N_3  and  C_4
REMARK    3  A    between atoms: C_4  and  C_5
REMARK    4  A    between atoms: C_8  and  C_9
REMARK    5  A    between atoms: C_9  and  C_10
REMARK    6  A    between atoms: C_9  and  C_12
REMARK    7  A    between atoms: C_10  and  O_11
REMARK    8  A    between atoms: C_12  and  C_13
REMARK                            x       y       z     vdW  Elec       q    Type
REMARK                         _______ _______ _______ _____ _____    ______ ____
ROOT
ATOM      1  C   UNL     1      44.819   3.723   9.023  0.00  0.00    +0.000 A 
ATOM      2  C   UNL     1      45.730   4.219   8.083  0.00  0.00    +0.000 A 
ATOM      3  C   UNL     1      46.574   3.351   7.380  0.00  0.00    +0.000 A 
ATOM      4  C   UNL     1      46.518   1.967   7.598  0.00  0.00    +0.000 A 
ATOM      5  C   UNL     1      45.619   1.484   8.561  0.00  0.00    +0.000 A 
ATOM      6  C   UNL     1      44.759   2.344   9.239  0.00  0.00    +0.000 A 
ENDROOT
BRANCH   1   7
ATOM      7  C   UNL     1      43.914   4.641   9.795  0.00  0.00    +0.000 C 
BRANCH   7  10
ATOM      8  O   UNL     1      43.460   5.742  12.270  0.00  0.00    +0.000 OA
ATOM      9  C   UNL     1      44.371   6.212  11.592  0.00  0.00    +0.000 C 
ATOM     10  N   UNL     1      44.611   5.792  10.308  0.00  0.00    +0.000 N 
ATOM     11  H   UNL     1      45.477   6.054   9.846  0.00  0.00    +0.000 HD
BRANCH   9  12
ATOM     12  C   UNL     1      45.234   7.274  12.118  0.00  0.00    +0.000 A 
ATOM     13  C   UNL     1      44.980   8.597  11.785  0.00  0.00    +0.000 A 
ATOM     14  S   UNL     1      46.062   9.703  12.501  0.00  0.00    +0.000 S 
ATOM     15  C   UNL     1      46.885   8.452  13.312  0.00  0.00    +0.000 A 
ATOM     16  N   UNL     1      47.917   8.727  14.155  0.00  0.00    +0.000 NA
ATOM     17  C   UNL     1      48.417   7.690  14.738  0.00  0.00    +0.000 A 
ATOM     18  N   UNL     1      47.989   6.402  14.547  0.00  0.00    +0.000 N 
ATOM     19  C   UNL     1      46.978   6.073  13.676  0.00  0.00    +0.000 A 
ATOM     20  O   UNL     1      46.662   4.904  13.477  0.00  0.00    +0.000 OA
ATOM     21  C   UNL     1      46.359   7.207  13.018  0.00  0.00    +0.000 A 
ATOM     22  H   UNL     1      48.434   5.632  15.024  0.00  0.00    +0.000 HD
ENDBRANCH   9  12
ENDBRANCH   7  10
ENDBRANCH   1   7
BRANCH   4  23
ATOM     23  C   UNL     1      47.420   1.029   6.797  0.00  0.00    +0.000 C 
BRANCH  23  24
ATOM     24  C   UNL     1      46.781  -0.371   6.687  0.00  0.00    +0.000 C 
BRANCH  24  25
ATOM     25  O   UNL     1      47.073  -1.183   7.823  0.00  0.00    +0.000 OA
ATOM     26  H   UNL     1      47.557  -0.615   8.451  0.00  0.00    +0.000 HD
ENDBRANCH  24  25
ENDBRANCH  23  24
BRANCH  23  27
ATOM     27  C   UNL     1      47.797   1.544   5.386  0.00  0.00    +0.000 C 
BRANCH  27  28
ATOM     28  C   UNL     1      47.090   0.822   4.262  0.00  0.00    +0.000 A 
ATOM     29  C   UNL     1      45.987   1.401   3.634  0.00  0.00    +0.000 A 
ATOM     30  C   UNL     1      45.347   0.708   2.612  0.00  0.00    +0.000 A 
ATOM     31  C   UNL     1      45.816  -0.547   2.250  0.00  0.00    +0.000 A 
ATOM     32  C   UNL     1      46.914  -1.054   2.925  0.00  0.00    +0.000 A 
ATOM     33  N   UNL     1      47.559  -0.402   3.918  0.00  0.00    +0.000 NA
ENDBRANCH  27  28
ENDBRANCH  23  27
ENDBRANCH   4  23
TORSDOF 8
ENDMDL
MODEL 8
REMARK VINA RESULT:    -6.933      2.718      3.729
REMARK INTER + INTRA:         -11.077
REMARK INTER:                  -9.768
REMARK INTRA:                  -1.308
REMARK UNBOUND:                -1.104
REMARK  Name = 
REMARK  8 active torsions:
REMARK  status: ('A' for Active; 'I' for Inactive)
REMARK    1  A    between atoms: C_2  and  C_21
REMARK    2  A    between atoms: N_3  and  C_4
REMARK    3  A    between atoms: C_4  and  C_5
REMARK    4  A    between atoms: C_8  and  C_9
REMARK    5  A    between atoms: C_9  and  C_10
REMARK    6  A    between atoms: C_9  and  C_12
REMARK    7  A    between atoms: C_10  and  O_11
REMARK    8  A    between atoms: C_12  and  C_13
REMARK                            x       y       z     vdW  Elec       q    Type
REMARK                         _______ _______ _______ _____ _____    ______ ____
ROOT
ATOM      1  C   UNL     1      47.070   5.279  13.869  0.00  0.00    +0.000 A 
ATOM      2  C   UNL     1      46.615   3.970  13.668  0.00  0.00    +0.000 A 
ATOM      3  C   UNL     1      45.790   3.661  12.580  0.00  0.00    +0.000 A 
ATOM      4  C   UNL     1      45.408   4.655  11.667  0.00  0.00    +0.000 A 
ATOM      5  C   UNL     1      45.849   5.967  11.894  0.00  0.00    +0.000 A 
ATOM      6  C   UNL     1      46.694   6.270  12.959  0.00  0.00    +0.000 A 
ENDROOT
BRANCH   1   7
ATOM      7  C   UNL     1      47.947   5.630  15.038  0.00  0.00    +0.000 C 
BRANCH   7  10
ATOM      8  O   UNL     1      50.390   6.863  15.269  0.00  0.00    +0.000 OA
ATOM      9  C   UNL     1      49.392   7.577  15.202  0.00  0.00    +0.000 C 
ATOM     10  N   UNL     1      48.124   7.051  15.181  0.00  0.00    +0.000 N 
ATOM     11  H   UNL     1      47.338   7.644  14.934  0.00  0.00    +0.000 HD
BRANCH   9  12
ATOM     12  C   UNL     1      49.508   9.038  15.171  0.00  0.00    +0.000 A 
ATOM     13  C   UNL     1      50.201   9.652  14.139  0.00  0.00    +0.000 A 
ATOM     14  S   UNL     1      50.217  11.354  14.242  0.00  0.00    +0.000 S 
ATOM     15  C   UNL     1      49.263  11.328  15.653  0.00  0.00    +0.000 A 
ATOM     16  N   UNL     1      48.863  12.485  16.246  0.00  0.00    +0.000 NA
ATOM     17  C   UNL     1      48.105  12.319  17.278  0.00  0.00    +0.000 A 
ATOM     18  N   UNL     1      47.722  11.102  17.779  0.00  0.00    +0.000 N 
ATOM     19  C   UNL     1      48.134   9.908  17.237  0.00  0.00    +0.000 A 
ATOM     20  O   UNL     1      47.827   8.835  17.747  0.00  0.00    +0.000 OA
ATOM     21  C   UNL     1      48.962  10.039  16.054  0.00  0.00    +0.000 A 
ATOM     22  H   UNL     1      47.138  11.041  18.600  0.00  0.00    +0.000 HD
ENDBRANCH   9  12
ENDBRANCH   7  10
ENDBRANCH   1   7
BRANCH   4  23
ATOM     23  C   UNL     1      44.536   4.296  10.465  0.00  0.00    +0.000 C 
BRANCH  23  24
ATOM     24  C   UNL     1      43.122   4.891  10.626  0.00  0.00    +0.000 C 
BRANCH  24  25
ATOM     25  O   UNL     1      42.497   4.465  11.835  0.00  0.00    +0.000 OA
ATOM     26  H   UNL     1      41.546   4.654  11.736  0.00  0.00    +0.000 HD
ENDBRANCH  24  25
ENDBRANCH  23  24
BRANCH  23  27
ATOM     27  C   UNL     1      45.124   4.710   9.093  0.00  0.00    +0.000 C 
BRANCH  27  28
ATOM     28  C   UNL     1      45.825   3.587   8.364  0.00  0.00    +0.000 A 
ATOM     29  C   UNL     1      45.620   2.260   8.744  0.00  0.00    +0.000 A 
ATOM     30  C   UNL     1      46.290   1.249   8.064  0.00  0.00    +0.000 A 
ATOM     31  C   UNL     1      47.153   1.585   7.032  0.00  0.00    +0.000 A 
ATOM     32  C   UNL     1      47.306   2.926   6.718  0.00  0.00    +0.000 A 
ATOM     33  N   UNL     1      46.666   3.930   7.357  0.00  0.00    +0.000 NA
ENDBRANCH  27  28
ENDBRANCH  23  27
ENDBRANCH   4  23
TORSDOF 8
ENDMDL
MODEL 9
REMARK VINA RESULT:    -6.899      1.878      3.035
REMARK INTER + INTRA:         -11.027
REMARK INTER:                  -9.893
REMARK INTRA:                  -1.134
REMARK UNBOUND:                -1.104
REMARK  Name = 
REMARK  8 active torsions:
REMARK  status: ('A' for Active; 'I' for Inactive)
REMARK    1  A    between atoms: C_2  and  C_21
REMARK    2  A    between atoms: N_3  and  C_4
REMARK    3  A    between atoms: C_4  and  C_5
REMARK    4  A    between atoms: C_8  and  C_9
REMARK    5  A    between atoms: C_9  and  C_10
REMARK    6  A    between atoms: C_9  and  C_12
REMARK    7  A    between atoms: C_10  and  O_11
REMARK    8  A    between atoms: C_12  and  C_13
REMARK                            x       y       z     vdW  Elec       q    Type
REMARK                         _______ _______ _______ _____ _____    ______ ____
ROOT
ATOM      1  C   UNL     1      46.980   4.296  14.220  0.00  0.00    +0.000 A 
ATOM      2  C   UNL     1      46.424   3.181  13.581  0.00  0.00    +0.000 A 
ATOM      3  C   UNL     1      45.569   3.341  12.484  0.00  0.00    +0.000 A 
ATOM      4  C   UNL     1      45.259   4.620  11.999  0.00  0.00    +0.000 A 
ATOM      5  C   UNL     1      45.802   5.730  12.664  0.00  0.00    +0.000 A 
ATOM      6  C   UNL     1      46.675   5.571  13.737  0.00  0.00    +0.000 A 
ENDROOT
BRANCH   1   7
ATOM      7  C   UNL     1      47.890   4.143  15.406  0.00  0.00    +0.000 C 
BRANCH   7  10
ATOM      8  O   UNL     1      49.857   5.522  16.738  0.00  0.00    +0.000 OA
ATOM      9  C   UNL     1      48.689   5.828  16.965  0.00  0.00    +0.000 C 
ATOM     10  N   UNL     1      47.638   5.133  16.420  0.00  0.00    +0.000 N 
ATOM     11  H   UNL     1      46.700   5.520  16.468  0.00  0.00    +0.000 HD
BRANCH   9  12
ATOM     12  C   UNL     1      48.359   6.942  17.859  0.00  0.00    +0.000 A 
ATOM     13  C   UNL     1      48.182   6.707  19.215  0.00  0.00    +0.000 A 
ATOM     14  S   UNL     1      47.829   8.113  20.112  0.00  0.00    +0.000 S 
ATOM     15  C   UNL     1      47.939   9.091  18.722  0.00  0.00    +0.000 A 
ATOM     16  N   UNL     1      47.787  10.440  18.803  0.00  0.00    +0.000 NA
ATOM     17  C   UNL     1      47.943  11.061  17.683  0.00  0.00    +0.000 A 
ATOM     18  N   UNL     1      48.225  10.455  16.486  0.00  0.00    +0.000 N 
ATOM     19  C   UNL     1      48.347   9.093  16.349  0.00  0.00    +0.000 A 
ATOM     20  O   UNL     1      48.535   8.576  15.252  0.00  0.00    +0.000 OA
ATOM     21  C   UNL     1      48.213   8.350  17.586  0.00  0.00    +0.000 A 
ATOM     22  H   UNL     1      48.320  10.998  15.641  0.00  0.00    +0.000 HD
ENDBRANCH   9  12
ENDBRANCH   7  10
ENDBRANCH   1   7
BRANCH   4  23
ATOM     23  C   UNL     1      44.353   4.777  10.778  0.00  0.00    +0.000 C 
BRANCH  23  24
ATOM     24  C   UNL     1      43.202   5.757  11.083  0.00  0.00    +0.000 C 
BRANCH  24  25
ATOM     25  O   UNL     1      42.118   5.119  11.754  0.00  0.00    +0.000 OA
ATOM     26  H   UNL     1      41.517   4.793  11.060  0.00  0.00    +0.000 HD
ENDBRANCH  24  25
ENDBRANCH  23  24
BRANCH  23  27
ATOM     27  C   UNL     1      45.082   5.212   9.484  0.00  0.00    +0.000 C 
BRANCH  27  28
ATOM     28  C   UNL     1      45.651   4.062   8.685  0.00  0.00    +0.000 A 
ATOM     29  C   UNL     1      45.352   2.744   9.033  0.00  0.00    +0.000 A 
ATOM     30  C   UNL     1      45.901   1.705   8.289  0.00  0.00    +0.000 A 
ATOM     31  C   UNL     1      46.739   2.005   7.225  0.00  0.00    +0.000 A 
ATOM     32  C   UNL     1      46.989   3.339   6.946  0.00  0.00    +0.000 A 
ATOM     33  N   UNL     1      46.467   4.370   7.648  0.00  0.00    +0.000 NA
ENDBRANCH  27  28
ENDBRANCH  23  27
ENDBRANCH   4  23
TORSDOF 8
ENDMDL
