MODEL 1
REMARK VINA RESULT:    -8.198      0.000      0.000
REMARK INTER + INTRA:         -12.503
REMARK INTER:                 -11.553
REMARK INTRA:                  -0.950
REMARK UNBOUND:                -0.950
REMARK  Name = 
REMARK  8 active torsions:
REMARK  status: ('A' for Active; 'I' for Inactive)
REMARK    1  A    between atoms: C_1  and  C_2
REMARK    2  A    between atoms: C_6  and  C_7
REMARK    3  A    between atoms: C_7  and  C_8
REMARK    4  A    between atoms: C_8  and  O_9
REMARK    5  A    between atoms: O_9  and  C_10
REMARK    6  A    between atoms: C_13  and  C_14
REMARK    7  A    between atoms: C_20  and  O_21
REMARK    8  A    between atoms: O_21  and  C_22
REMARK                            x       y       z     vdW  Elec       q    Type
REMARK                         _______ _______ _______ _____ _____    ______ ____
ROOT
ATOM      1  C   UNL     1      43.248   4.601  12.440  0.00  0.00    +0.000 C 
ENDROOT
BRANCH   1   7
ATOM      2  C   UNL     1      48.461   6.866  13.846  0.00  0.00    +0.000 C 
ATOM      3  C   UNL     1      47.111   6.294  13.490  0.00  0.00    +0.000 A 
ATOM      4  C   UNL     1      46.175   7.028  12.733  0.00  0.00    +0.000 A 
ATOM      5 CL   UNL     1      46.480   8.636  12.168  0.00  0.00    +0.000 Cl
ATOM      6  C   UNL     1      44.931   6.482  12.398  0.00  0.00    +0.000 A 
ATOM      7  C   UNL     1      44.582   5.196  12.812  0.00  0.00    +0.000 A 
ATOM      8  C   UNL     1      45.508   4.457  13.559  0.00  0.00    +0.000 A 
ATOM      9  C   UNL     1      46.759   4.991  13.905  0.00  0.00    +0.000 A 
BRANCH   9  10
ATOM     10  O   UNL     1      47.698   4.269  14.621  0.00  0.00    +0.000 OA
BRANCH  10  11
ATOM     11  C   UNL     1      47.479   4.045  16.040  0.00  0.00    +0.000 C 
ATOM     12  C   UNL     1      48.340   4.853  17.021  0.00  0.00    +0.000 C 
ATOM     13  O   UNL     1      48.991   3.662  17.520  0.00  0.00    +0.000 OA
ATOM     14  C   UNL     1      48.167   2.830  16.673  0.00  0.00    +0.000 C 
ENDBRANCH  10  11
ENDBRANCH   9  10
ENDBRANCH   1   7
BRANCH   1  15
ATOM     15  C   UNL     1      43.370   3.481  11.405  0.00  0.00    +0.000 C 
BRANCH  15  16
ATOM     16  O   UNL     1      43.617   4.073  10.123  0.00  0.00    +0.000 OA
BRANCH  16  17
ATOM     17  C   UNL     1      44.569   3.475   9.346  0.00  0.00    +0.000 A 
ATOM     18  C   UNL     1      44.817   2.105   9.269  0.00  0.00    +0.000 A 
ATOM     19  C   UNL     1      45.824   1.612   8.436  0.00  0.00    +0.000 A 
ATOM     20  C   UNL     1      46.592   2.484   7.656  0.00  0.00    +0.000 A 
ATOM     21  C   UNL     1      46.358   3.862   7.738  0.00  0.00    +0.000 A 
ATOM     22  C   UNL     1      45.350   4.351   8.578  0.00  0.00    +0.000 A 
BRANCH  20  23
ATOM     23  C   UNL     1      47.650   1.899   6.796  0.00  0.00    +0.000 C 
ATOM     24  N   UNL     1      48.628   2.729   6.335  0.00  0.00    +0.000 N 
ATOM     25  O   UNL     1      47.631   0.719   6.470  0.00  0.00    +0.000 OA
ATOM     26  H   UNL     1      48.559   3.737   6.377  0.00  0.00    +0.000 HD
ATOM     27  H   UNL     1      49.270   2.330   5.658  0.00  0.00    +0.000 HD
ENDBRANCH  20  23
ENDBRANCH  16  17
ENDBRANCH  15  16
ENDBRANCH   1  15
TORSDOF 7
ENDMDL
MODEL 2
REMARK VINA RESULT:    -7.353      2.467      3.984
REMARK INTER + INTRA:         -11.312
REMARK INTER:                 -10.423
REMARK INTRA:                  -0.889
REMARK UNBOUND:                -0.950
REMARK  Name = 
REMARK  8 active torsions:
REMARK  status: ('A' for Active; 'I' for Inactive)
REMARK    1  A    between atoms: C_1  and  C_2
REMARK    2  A    between atoms: C_6  and  C_7
REMARK    3  A    between atoms: C_7  and  C_8
REMARK    4  A    between atoms: C_8  and  O_9
REMARK    5  A    between atoms: O_9  and  C_10
REMARK    6  A    between atoms: C_13  and  C_14
REMARK    7  A    between atoms: C_20  and  O_21
REMARK    8  A    between atoms: O_21  and  C_22
REMARK                            x       y       z     vdW  Elec       q    Type
REMARK                         _______ _______ _______ _____ _____    ______ ____
ROOT
ATOM      1  C   UNL     1      43.447   4.827  12.373  0.00  0.00    +0.000 C 
ENDROOT
BRANCH   1   7
ATOM      2  C   UNL     1      48.674   6.868  14.046  0.00  0.00    +0.000 C 
ATOM      3  C   UNL     1      47.333   6.329  13.612  0.00  0.00    +0.000 A 
ATOM      4  C   UNL     1      46.774   5.176  14.203  0.00  0.00    +0.000 A 
ATOM      5 CL   UNL     1      47.574   4.280  15.449  0.00  0.00    +0.000 Cl
ATOM      6  C   UNL     1      45.524   4.694  13.800  0.00  0.00    +0.000 A 
ATOM      7  C   UNL     1      44.800   5.338  12.797  0.00  0.00    +0.000 A 
ATOM      8  C   UNL     1      45.344   6.487  12.208  0.00  0.00    +0.000 A 
ATOM      9  C   UNL     1      46.597   6.982  12.599  0.00  0.00    +0.000 A 
BRANCH   9  10
ATOM     10  O   UNL     1      47.142   8.130  12.049  0.00  0.00    +0.000 OA
BRANCH  10  11
ATOM     11  C   UNL     1      46.669   9.424  12.511  0.00  0.00    +0.000 C 
ATOM     12  C   UNL     1      45.511  10.068  11.736  0.00  0.00    +0.000 C 
ATOM     13  O   UNL     1      46.340  11.169  11.299  0.00  0.00    +0.000 OA
ATOM     14  C   UNL     1      47.457  10.660  12.062  0.00  0.00    +0.000 C 
ENDBRANCH  10  11
ENDBRANCH   9  10
ENDBRANCH   1   7
BRANCH   1  15
ATOM     15  C   UNL     1      43.269   4.821  10.853  0.00  0.00    +0.000 C 
BRANCH  15  16
ATOM     16  O   UNL     1      43.470   3.484  10.378  0.00  0.00    +0.000 OA
BRANCH  16  17
ATOM     17  C   UNL     1      44.457   3.307   9.449  0.00  0.00    +0.000 A 
ATOM     18  C   UNL     1      45.054   4.314   8.691  0.00  0.00    +0.000 A 
ATOM     19  C   UNL     1      46.056   4.007   7.767  0.00  0.00    +0.000 A 
ATOM     20  C   UNL     1      46.485   2.685   7.596  0.00  0.00    +0.000 A 
ATOM     21  C   UNL     1      45.882   1.668   8.344  0.00  0.00    +0.000 A 
ATOM     22  C   UNL     1      44.874   1.981   9.266  0.00  0.00    +0.000 A 
BRANCH  20  23
ATOM     23  C   UNL     1      47.549   2.423   6.596  0.00  0.00    +0.000 C 
ATOM     24  N   UNL     1      47.447   3.036   5.382  0.00  0.00    +0.000 N 
ATOM     25  O   UNL     1      48.470   1.651   6.827  0.00  0.00    +0.000 OA
ATOM     26  H   UNL     1      46.600   3.484   5.062  0.00  0.00    +0.000 HD
ATOM     27  H   UNL     1      48.122   2.750   4.680  0.00  0.00    +0.000 HD
ENDBRANCH  20  23
ENDBRANCH  16  17
ENDBRANCH  15  16
ENDBRANCH   1  15
TORSDOF 7
ENDMDL
MODEL 3
REMARK VINA RESULT:    -7.321      2.887      4.710
REMARK INTER + INTRA:         -11.267
REMARK INTER:                 -10.288
REMARK INTRA:                  -0.979
REMARK UNBOUND:                -0.950
REMARK  Name = 
REMARK  8 active torsions:
REMARK  status: ('A' for Active; 'I' for Inactive)
REMARK    1  A    between atoms: C_1  and  C_2
REMARK    2  A    between atoms: C_6  and  C_7
REMARK    3  A    between atoms: C_7  and  C_8
REMARK    4  A    between atoms: C_8  and  O_9
REMARK    5  A    between atoms: O_9  and  C_10
REMARK    6  A    between atoms: C_13  and  C_14
REMARK    7  A    between atoms: C_20  and  O_21
REMARK    8  A    between atoms: O_21  and  C_22
REMARK                            x       y       z     vdW  Elec       q    Type
REMARK                         _______ _______ _______ _____ _____    ______ ____
ROOT
ATOM      1  C   UNL     1      43.245   4.722  12.461  0.00  0.00    +0.000 C 
ENDROOT
BRANCH   1   7
ATOM      2  C   UNL     1      47.417   8.821  12.189  0.00  0.00    +0.000 C 
ATOM      3  C   UNL     1      46.352   7.755  12.253  0.00  0.00    +0.000 A 
ATOM      4  C   UNL     1      46.559   6.546  12.950  0.00  0.00    +0.000 A 
ATOM      5 CL   UNL     1      48.039   6.176  13.767  0.00  0.00    +0.000 Cl
ATOM      6  C   UNL     1      45.557   5.570  13.013  0.00  0.00    +0.000 A 
ATOM      7  C   UNL     1      44.329   5.766  12.381  0.00  0.00    +0.000 A 
ATOM      8  C   UNL     1      44.112   6.966  11.693  0.00  0.00    +0.000 A 
ATOM      9  C   UNL     1      45.106   7.954  11.618  0.00  0.00    +0.000 A 
BRANCH   9  10
ATOM     10  O   UNL     1      44.905   9.157  10.964  0.00  0.00    +0.000 OA
BRANCH  10  11
ATOM     11  C   UNL     1      43.713   9.932  11.270  0.00  0.00    +0.000 C 
ATOM     12  C   UNL     1      42.719  10.176  10.126  0.00  0.00    +0.000 C 
ATOM     13  O   UNL     1      42.955  11.602  10.148  0.00  0.00    +0.000 OA
ATOM     14  C   UNL     1      43.851  11.459  11.272  0.00  0.00    +0.000 C 
ENDBRANCH  10  11
ENDBRANCH   9  10
ENDBRANCH   1   7
BRANCH   1  15
ATOM     15  C   UNL     1      43.550   3.490  11.606  0.00  0.00    +0.000 C 
BRANCH  15  16
ATOM     16  O   UNL     1      43.511   3.876  10.226  0.00  0.00    +0.000 OA
BRANCH  16  17
ATOM     17  C   UNL     1      44.460   3.327   9.410  0.00  0.00    +0.000 A 
ATOM     18  C   UNL     1      44.727   1.965   9.269  0.00  0.00    +0.000 A 
ATOM     19  C   UNL     1      45.728   1.524   8.401  0.00  0.00    +0.000 A 
ATOM     20  C   UNL     1      46.471   2.441   7.649  0.00  0.00    +0.000 A 
ATOM     21  C   UNL     1      46.219   3.810   7.794  0.00  0.00    +0.000 A 
ATOM     22  C   UNL     1      45.216   4.247   8.670  0.00  0.00    +0.000 A 
BRANCH  20  23
ATOM     23  C   UNL     1      47.525   1.911   6.749  0.00  0.00    +0.000 C 
ATOM     24  N   UNL     1      48.551   2.741   6.409  0.00  0.00    +0.000 N 
ATOM     25  O   UNL     1      47.462   0.778   6.287  0.00  0.00    +0.000 OA
ATOM     26  H   UNL     1      48.525   3.739   6.567  0.00  0.00    +0.000 HD
ATOM     27  H   UNL     1      49.192   2.393   5.704  0.00  0.00    +0.000 HD
ENDBRANCH  20  23
ENDBRANCH  16  17
ENDBRANCH  15  16
ENDBRANCH   1  15
TORSDOF 7
ENDMDL
MODEL 4
REMARK VINA RESULT:    -7.197      2.335      3.665
REMARK INTER + INTRA:         -11.092
REMARK INTER:                 -10.210
REMARK INTRA:                  -0.882
REMARK UNBOUND:                -0.950
REMARK  Name = 
REMARK  8 active torsions:
REMARK  status: ('A' for Active; 'I' for Inactive)
REMARK    1  A    between atoms: C_1  and  C_2
REMARK    2  A    between atoms: C_6  and  C_7
REMARK    3  A    between atoms: C_7  and  C_8
REMARK    4  A    between atoms: C_8  and  O_9
REMARK    5  A    between atoms: O_9  and  C_10
REMARK    6  A    between atoms: C_13  and  C_14
REMARK    7  A    between atoms: C_20  and  O_21
REMARK    8  A    between atoms: O_21  and  C_22
REMARK                            x       y       z     vdW  Elec       q    Type
REMARK                         _______ _______ _______ _____ _____    ______ ____
ROOT
ATOM      1  C   UNL     1      45.116   3.751  12.223  0.00  0.00    +0.000 C 
ENDROOT
BRANCH   1   7
ATOM      2  C   UNL     1      48.791   6.993  15.427  0.00  0.00    +0.000 C 
ATOM      3  C   UNL     1      47.854   6.147  14.601  0.00  0.00    +0.000 A 
ATOM      4  C   UNL     1      47.471   4.853  15.013  0.00  0.00    +0.000 A 
ATOM      5 CL   UNL     1      48.047   4.125  16.474  0.00  0.00    +0.000 Cl
ATOM      6  C   UNL     1      46.591   4.083  14.244  0.00  0.00    +0.000 A 
ATOM      7  C   UNL     1      46.075   4.574  13.044  0.00  0.00    +0.000 A 
ATOM      8  C   UNL     1      46.445   5.860  12.631  0.00  0.00    +0.000 A 
ATOM      9  C   UNL     1      47.327   6.644  13.389  0.00  0.00    +0.000 A 
BRANCH   9  10
ATOM     10  O   UNL     1      47.687   7.926  13.011  0.00  0.00    +0.000 OA
BRANCH  10  11
ATOM     11  C   UNL     1      48.458   8.109  11.793  0.00  0.00    +0.000 C 
ATOM     12  C   UNL     1      49.923   7.650  11.811  0.00  0.00    +0.000 C 
ATOM     13  O   UNL     1      50.409   9.000  11.639  0.00  0.00    +0.000 OA
ATOM     14  C   UNL     1      49.056   9.499  11.543  0.00  0.00    +0.000 C 
ENDBRANCH  10  11
ENDBRANCH   9  10
ENDBRANCH   1   7
BRANCH   1  15
ATOM     15  C   UNL     1      44.302   4.597  11.243  0.00  0.00    +0.000 C 
BRANCH  15  16
ATOM     16  O   UNL     1      43.827   3.745  10.193  0.00  0.00    +0.000 OA
BRANCH  16  17
ATOM     17  C   UNL     1      44.744   3.359   9.256  0.00  0.00    +0.000 A 
ATOM     18  C   UNL     1      45.405   4.204   8.365  0.00  0.00    +0.000 A 
ATOM     19  C   UNL     1      46.323   3.688   7.447  0.00  0.00    +0.000 A 
ATOM     20  C   UNL     1      46.604   2.318   7.416  0.00  0.00    +0.000 A 
ATOM     21  C   UNL     1      45.935   1.461   8.298  0.00  0.00    +0.000 A 
ATOM     22  C   UNL     1      45.012   1.983   9.214  0.00  0.00    +0.000 A 
BRANCH  20  23
ATOM     23  C   UNL     1      47.585   1.831   6.414  0.00  0.00    +0.000 C 
ATOM     24  N   UNL     1      48.776   2.486   6.320  0.00  0.00    +0.000 N 
ATOM     25  O   UNL     1      47.326   0.899   5.664  0.00  0.00    +0.000 OA
ATOM     26  H   UNL     1      48.942   3.390   6.740  0.00  0.00    +0.000 HD
ATOM     27  H   UNL     1      49.379   2.207   5.552  0.00  0.00    +0.000 HD
ENDBRANCH  20  23
ENDBRANCH  16  17
ENDBRANCH  15  16
ENDBRANCH   1  15
TORSDOF 7
ENDMDL
MODEL 5
REMARK VINA RESULT:    -7.008      1.106      1.512
REMARK INTER + INTRA:         -10.826
REMARK INTER:                 -10.515
REMARK INTRA:                  -0.312
REMARK UNBOUND:                -0.950
REMARK  Name = 
REMARK  8 active torsions:
REMARK  status: ('A' for Active; 'I' for Inactive)
REMARK    1  A    between atoms: C_1  and  C_2
REMARK    2  A    between atoms: C_6  and  C_7
REMARK    3  A    between atoms: C_7  and  C_8
REMARK    4  A    between atoms: C_8  and  O_9
REMARK    5  A    between atoms: O_9  and  C_10
REMARK    6  A    between atoms: C_13  and  C_14
REMARK    7  A    between atoms: C_20  and  O_21
REMARK    8  A    between atoms: O_21  and  C_22
REMARK                            x       y       z     vdW  Elec       q    Type
REMARK                         _______ _______ _______ _____ _____    ______ ____
ROOT
ATOM      1  C   UNL     1      44.933   3.622  11.965  0.00  0.00    +0.000 C 
ENDROOT
BRANCH   1   7
ATOM      2  C   UNL     1      48.729   7.177  14.656  0.00  0.00    +0.000 C 
ATOM      3  C   UNL     1      47.740   6.272  13.963  0.00  0.00    +0.000 A 
ATOM      4  C   UNL     1      47.072   6.670  12.787  0.00  0.00    +0.000 A 
ATOM      5 CL   UNL     1      47.311   8.220  12.052  0.00  0.00    +0.000 Cl
ATOM      6  C   UNL     1      46.167   5.816  12.146  0.00  0.00    +0.000 A 
ATOM      7  C   UNL     1      45.897   4.548  12.662  0.00  0.00    +0.000 A 
ATOM      8  C   UNL     1      46.560   4.141  13.826  0.00  0.00    +0.000 A 
ATOM      9  C   UNL     1      47.469   4.986  14.481  0.00  0.00    +0.000 A 
BRANCH   9  10
ATOM     10  O   UNL     1      48.154   4.595  15.619  0.00  0.00    +0.000 OA
BRANCH  10  11
ATOM     11  C   UNL     1      47.395   4.220  16.801  0.00  0.00    +0.000 C 
ATOM     12  C   UNL     1      47.576   5.085  18.057  0.00  0.00    +0.000 C 
ATOM     13  O   UNL     1      48.169   3.992  18.794  0.00  0.00    +0.000 OA
ATOM     14  C   UNL     1      47.969   3.099  17.675  0.00  0.00    +0.000 C 
ENDBRANCH  10  11
ENDBRANCH   9  10
ENDBRANCH   1   7
BRANCH   1  15
ATOM     15  C   UNL     1      43.580   4.279  11.689  0.00  0.00    +0.000 C 
BRANCH  15  16
ATOM     16  O   UNL     1      43.297   4.166  10.289  0.00  0.00    +0.000 OA
BRANCH  16  17
ATOM     17  C   UNL     1      44.286   3.642   9.505  0.00  0.00    +0.000 A 
ATOM     18  C   UNL     1      45.188   4.374   8.732  0.00  0.00    +0.000 A 
ATOM     19  C   UNL     1      46.159   3.722   7.967  0.00  0.00    +0.000 A 
ATOM     20  C   UNL     1      46.250   2.326   7.974  0.00  0.00    +0.000 A 
ATOM     21  C   UNL     1      45.341   1.584   8.737  0.00  0.00    +0.000 A 
ATOM     22  C   UNL     1      44.366   2.242   9.499  0.00  0.00    +0.000 A 
BRANCH  20  23
ATOM     23  C   UNL     1      47.299   1.693   7.137  0.00  0.00    +0.000 C 
ATOM     24  N   UNL     1      47.139   0.383   6.797  0.00  0.00    +0.000 N 
ATOM     25  O   UNL     1      48.299   2.308   6.791  0.00  0.00    +0.000 OA
ATOM     26  H   UNL     1      46.466  -0.223   7.246  0.00  0.00    +0.000 HD
ATOM     27  H   UNL     1      47.923  -0.054   6.324  0.00  0.00    +0.000 HD
ENDBRANCH  20  23
ENDBRANCH  16  17
ENDBRANCH  15  16
ENDBRANCH   1  15
TORSDOF 7
ENDMDL
MODEL 6
REMARK VINA RESULT:    -6.445      3.027      4.079
REMARK INTER + INTRA:         -10.033
REMARK INTER:                  -9.309
REMARK INTRA:                  -0.723
REMARK UNBOUND:                -0.950
REMARK  Name = 
REMARK  8 active torsions:
REMARK  status: ('A' for Active; 'I' for Inactive)
REMARK    1  A    between atoms: C_1  and  C_2
REMARK    2  A    between atoms: C_6  and  C_7
REMARK    3  A    between atoms: C_7  and  C_8
REMARK    4  A    between atoms: C_8  and  O_9
REMARK    5  A    between atoms: O_9  and  C_10
REMARK    6  A    between atoms: C_13  and  C_14
REMARK    7  A    between atoms: C_20  and  O_21
REMARK    8  A    between atoms: O_21  and  C_22
REMARK                            x       y       z     vdW  Elec       q    Type
REMARK                         _______ _______ _______ _____ _____    ______ ____
ROOT
ATOM      1  C   UNL     1      45.495   5.330  11.575  0.00  0.00    +0.000 C 
ENDROOT
BRANCH   1   7
ATOM      2  C   UNL     1      46.792  11.012  12.139  0.00  0.00    +0.000 C 
ATOM      3  C   UNL     1      46.447   9.549  12.004  0.00  0.00    +0.000 A 
ATOM      4  C   UNL     1      45.140   9.125  11.686  0.00  0.00    +0.000 A 
ATOM      5 CL   UNL     1      43.829  10.230  11.443  0.00  0.00    +0.000 Cl
ATOM      6  C   UNL     1      44.836   7.766  11.551  0.00  0.00    +0.000 A 
ATOM      7  C   UNL     1      45.819   6.793  11.735  0.00  0.00    +0.000 A 
ATOM      8  C   UNL     1      47.121   7.205  12.044  0.00  0.00    +0.000 A 
ATOM      9  C   UNL     1      47.442   8.564  12.185  0.00  0.00    +0.000 A 
BRANCH   9  10
ATOM     10  O   UNL     1      48.728   8.994  12.467  0.00  0.00    +0.000 OA
BRANCH  10  11
ATOM     11  C   UNL     1      49.753   8.856  11.447  0.00  0.00    +0.000 C 
ATOM     12  C   UNL     1      51.055   8.148  11.849  0.00  0.00    +0.000 C 
ATOM     13  O   UNL     1      51.836   9.349  11.656  0.00  0.00    +0.000 OA
ATOM     14  C   UNL     1      50.665  10.064  11.201  0.00  0.00    +0.000 C 
ENDBRANCH  10  11
ENDBRANCH   9  10
ENDBRANCH   1   7
BRANCH   1  15
ATOM     15  C   UNL     1      44.014   5.083  11.285  0.00  0.00    +0.000 C 
BRANCH  15  16
ATOM     16  O   UNL     1      43.844   4.958   9.867  0.00  0.00    +0.000 OA
BRANCH  16  17
ATOM     17  C   UNL     1      44.639   4.046   9.233  0.00  0.00    +0.000 A 
ATOM     18  C   UNL     1      45.623   4.338   8.288  0.00  0.00    +0.000 A 
ATOM     19  C   UNL     1      46.373   3.314   7.705  0.00  0.00    +0.000 A 
ATOM     20  C   UNL     1      46.159   1.980   8.070  0.00  0.00    +0.000 A 
ATOM     21  C   UNL     1      45.165   1.677   9.008  0.00  0.00    +0.000 A 
ATOM     22  C   UNL     1      44.412   2.708   9.586  0.00  0.00    +0.000 A 
BRANCH  20  23
ATOM     23  C   UNL     1      46.985   0.938   7.411  0.00  0.00    +0.000 C 
ATOM     24  N   UNL     1      47.882   1.339   6.466  0.00  0.00    +0.000 N 
ATOM     25  O   UNL     1      46.844  -0.250   7.671  0.00  0.00    +0.000 OA
ATOM     26  H   UNL     1      47.869   2.261   6.052  0.00  0.00    +0.000 HD
ATOM     27  H   UNL     1      48.348   0.599   5.951  0.00  0.00    +0.000 HD
ENDBRANCH  20  23
ENDBRANCH  16  17
ENDBRANCH  15  16
ENDBRANCH   1  15
TORSDOF 7
ENDMDL
MODEL 7
REMARK VINA RESULT:    -6.144      3.789      5.651
REMARK INTER + INTRA:          -9.608
REMARK INTER:                  -8.855
REMARK INTRA:                  -0.754
REMARK UNBOUND:                -0.950
REMARK  Name = 
REMARK  8 active torsions:
REMARK  status: ('A' for Active; 'I' for Inactive)
REMARK    1  A    between atoms: C_1  and  C_2
REMARK    2  A    between atoms: C_6  and  C_7
REMARK    3  A    between atoms: C_7  and  C_8
REMARK    4  A    between atoms: C_8  and  O_9
REMARK    5  A    between atoms: O_9  and  C_10
REMARK    6  A    between atoms: C_13  and  C_14
REMARK    7  A    between atoms: C_20  and  O_21
REMARK    8  A    between atoms: O_21  and  C_22
REMARK                            x       y       z     vdW  Elec       q    Type
REMARK                         _______ _______ _______ _____ _____    ______ ____
ROOT
ATOM      1  C   UNL     1      49.819   7.570  14.717  0.00  0.00    +0.000 C 
ENDROOT
BRANCH   1   7
ATOM      2  C   UNL     1      47.897   6.245  20.087  0.00  0.00    +0.000 C 
ATOM      3  C   UNL     1      48.378   6.590  18.699  0.00  0.00    +0.000 A 
ATOM      4  C   UNL     1      48.170   7.870  18.143  0.00  0.00    +0.000 A 
ATOM      5 CL   UNL     1      47.339   9.135  18.984  0.00  0.00    +0.000 Cl
ATOM      6  C   UNL     1      48.633   8.182  16.859  0.00  0.00    +0.000 A 
ATOM      7  C   UNL     1      49.308   7.230  16.094  0.00  0.00    +0.000 A 
ATOM      8  C   UNL     1      49.525   5.959  16.641  0.00  0.00    +0.000 A 
ATOM      9  C   UNL     1      49.065   5.630  17.925  0.00  0.00    +0.000 A 
BRANCH   9  10
ATOM     10  O   UNL     1      49.290   4.389  18.495  0.00  0.00    +0.000 OA
BRANCH  10  11
ATOM     11  C   UNL     1      48.538   3.245  18.004  0.00  0.00    +0.000 C 
ATOM     12  C   UNL     1      49.172   2.417  16.878  0.00  0.00    +0.000 C 
ATOM     13  O   UNL     1      48.127   2.777  15.946  0.00  0.00    +0.000 OA
ATOM     14  C   UNL     1      47.436   3.520  16.975  0.00  0.00    +0.000 C 
ENDBRANCH  10  11
ENDBRANCH   9  10
ENDBRANCH   1   7
BRANCH   1  15
ATOM     15  C   UNL     1      48.715   7.558  13.659  0.00  0.00    +0.000 C 
BRANCH  15  16
ATOM     16  O   UNL     1      48.487   6.202  13.257  0.00  0.00    +0.000 OA
BRANCH  16  17
ATOM     17  C   UNL     1      47.202   5.868  12.931  0.00  0.00    +0.000 A 
ATOM     18  C   UNL     1      46.361   5.040  13.675  0.00  0.00    +0.000 A 
ATOM     19  C   UNL     1      45.062   4.769  13.236  0.00  0.00    +0.000 A 
ATOM     20  C   UNL     1      44.581   5.335  12.049  0.00  0.00    +0.000 A 
ATOM     21  C   UNL     1      45.423   6.156  11.291  0.00  0.00    +0.000 A 
ATOM     22  C   UNL     1      46.726   6.420  11.733  0.00  0.00    +0.000 A 
BRANCH  20  23
ATOM     23  C   UNL     1      43.195   5.005  11.634  0.00  0.00    +0.000 C 
ATOM     24  N   UNL     1      42.255   5.988  11.714  0.00  0.00    +0.000 N 
ATOM     25  O   UNL     1      42.887   3.877  11.269  0.00  0.00    +0.000 OA
ATOM     26  H   UNL     1      42.402   6.849  12.223  0.00  0.00    +0.000 HD
ATOM     27  H   UNL     1      41.297   5.705  11.536  0.00  0.00    +0.000 HD
ENDBRANCH  20  23
ENDBRANCH  16  17
ENDBRANCH  15  16
ENDBRANCH   1  15
TORSDOF 7
ENDMDL
MODEL 8
REMARK VINA RESULT:    -6.056      3.165      4.899
REMARK INTER + INTRA:          -9.484
REMARK INTER:                  -8.648
REMARK INTRA:                  -0.836
REMARK UNBOUND:                -0.950
REMARK  Name = 
REMARK  8 active torsions:
REMARK  status: ('A' for Active; 'I' for Inactive)
REMARK    1  A    between atoms: C_1  and  C_2
REMARK    2  A    between atoms: C_6  and  C_7
REMARK    3  A    between atoms: C_7  and  C_8
REMARK    4  A    between atoms: C_8  and  O_9
REMARK    5  A    between atoms: O_9  and  C_10
REMARK    6  A    between atoms: C_13  and  C_14
REMARK    7  A    between atoms: C_20  and  O_21
REMARK    8  A    between atoms: O_21  and  C_22
REMARK                            x       y       z     vdW  Elec       q    Type
REMARK                         _______ _______ _______ _____ _____    ______ ____
ROOT
ATOM      1  C   UNL     1      48.630   8.581  13.223  0.00  0.00    +0.000 C 
ENDROOT
BRANCH   1   7
ATOM      2  C   UNL     1      51.553   5.821  17.480  0.00  0.00    +0.000 C 
ATOM      3  C   UNL     1      50.806   6.545  16.388  0.00  0.00    +0.000 A 
ATOM      4  C   UNL     1      51.476   7.348  15.442  0.00  0.00    +0.000 A 
ATOM      5 CL   UNL     1      53.191   7.585  15.461  0.00  0.00    +0.000 Cl
ATOM      6  C   UNL     1      50.773   8.005  14.425  0.00  0.00    +0.000 A 
ATOM      7  C   UNL     1      49.386   7.886  14.326  0.00  0.00    +0.000 A 
ATOM      8  C   UNL     1      48.713   7.086  15.257  0.00  0.00    +0.000 A 
ATOM      9  C   UNL     1      49.403   6.423  16.283  0.00  0.00    +0.000 A 
BRANCH   9  10
ATOM     10  O   UNL     1      48.760   5.607  17.199  0.00  0.00    +0.000 OA
BRANCH  10  11
ATOM     11  C   UNL     1      48.443   4.240  16.820  0.00  0.00    +0.000 C 
ATOM     12  C   UNL     1      47.081   3.991  16.156  0.00  0.00    +0.000 C 
ATOM     13  O   UNL     1      46.624   3.183  17.264  0.00  0.00    +0.000 OA
ATOM     14  C   UNL     1      47.905   3.315  17.919  0.00  0.00    +0.000 C 
ENDBRANCH  10  11
ENDBRANCH   9  10
ENDBRANCH   1   7
BRANCH   1  15
ATOM     15  C   UNL     1      48.013   7.601  12.224  0.00  0.00    +0.000 C 
BRANCH  15  16
ATOM     16  O   UNL     1      46.594   7.580  12.427  0.00  0.00    +0.000 OA
BRANCH  16  17
ATOM     17  C   UNL     1      45.953   6.407  12.146  0.00  0.00    +0.000 A 
ATOM     18  C   UNL     1      45.506   5.475  13.083  0.00  0.00    +0.000 A 
ATOM     19  C   UNL     1      44.863   4.305  12.670  0.00  0.00    +0.000 A 
ATOM     20  C   UNL     1      44.645   4.056  11.310  0.00  0.00    +0.000 A 
ATOM     21  C   UNL     1      45.102   4.980  10.363  0.00  0.00    +0.000 A 
ATOM     22  C   UNL     1      45.751   6.149  10.782  0.00  0.00    +0.000 A 
BRANCH  20  23
ATOM     23  C   UNL     1      43.961   2.794  10.936  0.00  0.00    +0.000 C 
ATOM     24  N   UNL     1      44.438   2.105   9.861  0.00  0.00    +0.000 N 
ATOM     25  O   UNL     1      42.973   2.396  11.540  0.00  0.00    +0.000 OA
ATOM     26  H   UNL     1      45.087   2.504   9.196  0.00  0.00    +0.000 HD
ATOM     27  H   UNL     1      43.884   1.311   9.557  0.00  0.00    +0.000 HD
ENDBRANCH  20  23
ENDBRANCH  16  17
ENDBRANCH  15  16
ENDBRANCH   1  15
TORSDOF 7
ENDMDL
MODEL 9
REMARK VINA RESULT:    -6.053      3.610      8.002
REMARK INTER + INTRA:          -9.480
REMARK INTER:                  -9.092
REMARK INTRA:                  -0.388
REMARK UNBOUND:                -0.950
REMARK  Name = 
REMARK  8 active torsions:
REMARK  status: ('A' for Active; 'I' for Inactive)
REMARK    1  A    between atoms: C_1  and  C_2
REMARK    2  A    between atoms: C_6  and  C_7
REMARK    3  A    between atoms: C_7  and  C_8
REMARK    4  A    between atoms: C_8  and  O_9
REMARK    5  A    between atoms: O_9  and  C_10
REMARK    6  A    between atoms: C_13  and  C_14
REMARK    7  A    between atoms: C_20  and  O_21
REMARK    8  A    between atoms: O_21  and  C_22
REMARK                            x       y       z     vdW  Elec       q    Type
REMARK                         _______ _______ _______ _____ _____    ______ ____
ROOT
ATOM      1  C   UNL     1      47.282   3.920  14.900  0.00  0.00    +0.000 C 
ENDROOT
BRANCH   1   7
ATOM      2  C   UNL     1      44.701   7.879  11.443  0.00  0.00    +0.000 C 
ATOM      3  C   UNL     1      45.377   6.857  12.323  0.00  0.00    +0.000 A 
ATOM      4  C   UNL     1      46.719   7.007  12.732  0.00  0.00    +0.000 A 
ATOM      5 CL   UNL     1      47.701   8.348  12.251  0.00  0.00    +0.000 Cl
ATOM      6  C   UNL     1      47.330   6.058  13.560  0.00  0.00    +0.000 A 
ATOM      7  C   UNL     1      46.628   4.934  13.997  0.00  0.00    +0.000 A 
ATOM      8  C   UNL     1      45.294   4.781  13.602  0.00  0.00    +0.000 A 
ATOM      9  C   UNL     1      44.666   5.721  12.771  0.00  0.00    +0.000 A 
BRANCH   9  10
ATOM     10  O   UNL     1      43.342   5.602  12.388  0.00  0.00    +0.000 OA
BRANCH  10  11
ATOM     11  C   UNL     1      42.991   4.630  11.365  0.00  0.00    +0.000 C 
ATOM     12  C   UNL     1      43.286   3.154  11.667  0.00  0.00    +0.000 C 
ATOM     13  O   UNL     1      44.259   3.070  10.601  0.00  0.00    +0.000 OA
ATOM     14  C   UNL     1      43.985   4.435  10.214  0.00  0.00    +0.000 C 
ENDBRANCH  10  11
ENDBRANCH   9  10
ENDBRANCH   1   7
BRANCH   1  15
ATOM     15  C   UNL     1      47.328   4.374  16.360  0.00  0.00    +0.000 C 
BRANCH  15  16
ATOM     16  O   UNL     1      47.700   3.254  17.172  0.00  0.00    +0.000 OA
BRANCH  16  17
ATOM     17  C   UNL     1      49.038   3.055  17.365  0.00  0.00    +0.000 A 
ATOM     18  C   UNL     1      49.755   1.915  16.998  0.00  0.00    +0.000 A 
ATOM     19  C   UNL     1      51.127   1.828  17.251  0.00  0.00    +0.000 A 
ATOM     20  C   UNL     1      51.805   2.887  17.864  0.00  0.00    +0.000 A 
ATOM     21  C   UNL     1      51.091   4.028  18.246  0.00  0.00    +0.000 A 
ATOM     22  C   UNL     1      49.715   4.109  17.995  0.00  0.00    +0.000 A 
BRANCH  20  23
ATOM     23  C   UNL     1      53.260   2.731  18.110  0.00  0.00    +0.000 C 
ATOM     24  N   UNL     1      53.674   1.643  18.818  0.00  0.00    +0.000 N 
ATOM     25  O   UNL     1      54.068   3.568  17.728  0.00  0.00    +0.000 OA
ATOM     26  H   UNL     1      53.041   1.060  19.350  0.00  0.00    +0.000 HD
ATOM     27  H   UNL     1      54.657   1.621  19.070  0.00  0.00    +0.000 HD
ENDBRANCH  20  23
ENDBRANCH  16  17
ENDBRANCH  15  16
ENDBRANCH   1  15
TORSDOF 7
ENDMDL
