MODEL 1
REMARK VINA RESULT:    -8.337      0.000      0.000
REMARK INTER + INTRA:         -11.559
REMARK INTER:                 -10.774
REMARK INTRA:                  -0.785
REMARK UNBOUND:                -0.785
REMARK  Name = 
REMARK  5 active torsions:
REMARK  status: ('A' for Active; 'I' for Inactive)
REMARK    1  A    between atoms: C_2  and  C_18
REMARK    2  A    between atoms: N_3  and  C_4
REMARK    3  A    between atoms: C_4  and  C_5
REMARK    4  A    between atoms: C_8  and  C_9
REMARK    5  A    between atoms: C_9  and  C_10
REMARK                            x       y       z     vdW  Elec       q    Type
REMARK                         _______ _______ _______ _____ _____    ______ ____
ROOT
ATOM      1  O   UNL     1      48.290   7.518  12.736  0.00  0.00    +0.000 OA
ATOM      2  C   UNL     1      47.670   7.008  13.665  0.00  0.00    +0.000 C 
ATOM      3  N   UNL     1      46.310   6.839  13.639  0.00  0.00    +0.000 N 
ATOM      4  H   UNL     1      45.826   6.550  14.482  0.00  0.00    +0.000 HD
ENDROOT
BRANCH   2   5
ATOM      5  C   UNL     1      48.361   6.506  14.858  0.00  0.00    +0.000 A 
ATOM      6  C   UNL     1      49.430   7.212  15.391  0.00  0.00    +0.000 A 
ATOM      7  S   UNL     1      50.078   6.507  16.802  0.00  0.00    +0.000 S 
ATOM      8  C   UNL     1      48.933   5.248  16.763  0.00  0.00    +0.000 A 
ATOM      9  N   UNL     1      48.898   4.301  17.742  0.00  0.00    +0.000 NA
ATOM     10  C   UNL     1      47.951   3.435  17.608  0.00  0.00    +0.000 A 
ATOM     11  N   UNL     1      47.049   3.412  16.578  0.00  0.00    +0.000 N 
ATOM     12  C   UNL     1      47.110   4.287  15.519  0.00  0.00    +0.000 A 
ATOM     13  O   UNL     1      46.404   4.129  14.530  0.00  0.00    +0.000 OA
ATOM     14  C   UNL     1      48.102   5.335  15.663  0.00  0.00    +0.000 A 
ATOM     15  H   UNL     1      46.364   2.676  16.504  0.00  0.00    +0.000 HD
ENDBRANCH   2   5
BRANCH   3  16
ATOM     16  C   UNL     1      45.483   7.322  12.565  0.00  0.00    +0.000 C 
BRANCH  16  17
ATOM     17  C   UNL     1      45.267   6.276  11.502  0.00  0.00    +0.000 A 
ATOM     18  C   UNL     1      44.216   5.358  11.620  0.00  0.00    +0.000 A 
ATOM     19  C   UNL     1      43.973   4.418  10.615  0.00  0.00    +0.000 A 
ATOM     20  C   UNL     1      44.782   4.370   9.472  0.00  0.00    +0.000 A 
ATOM     21  C   UNL     1      45.849   5.272   9.365  0.00  0.00    +0.000 A 
ATOM     22  C   UNL     1      46.097   6.206  10.376  0.00  0.00    +0.000 A 
BRANCH  20  23
ATOM     23  C   UNL     1      44.486   3.390   8.358  0.00  0.00    +0.000 C 
BRANCH  23  24
ATOM     24  C   UNL     1      45.724   2.728   7.800  0.00  0.00    +0.000 A 
ATOM     25  C   UNL     1      46.514   3.374   6.844  0.00  0.00    +0.000 A 
ATOM     26  C   UNL     1      47.600   2.698   6.308  0.00  0.00    +0.000 A 
ATOM     27  N   UNL     1      47.955   1.444   6.661  0.00  0.00    +0.000 NA
ATOM     28  C   UNL     1      47.187   0.841   7.593  0.00  0.00    +0.000 A 
ATOM     29  C   UNL     1      46.080   1.432   8.184  0.00  0.00    +0.000 A 
ENDBRANCH  23  24
ENDBRANCH  20  23
ENDBRANCH  16  17
ENDBRANCH   3  16
TORSDOF 5
ENDMDL
MODEL 2
REMARK VINA RESULT:    -8.089      1.845      3.227
REMARK INTER + INTRA:         -11.239
REMARK INTER:                 -10.452
REMARK INTRA:                  -0.786
REMARK UNBOUND:                -0.785
REMARK  Name = 
REMARK  5 active torsions:
REMARK  status: ('A' for Active; 'I' for Inactive)
REMARK    1  A    between atoms: C_2  and  C_18
REMARK    2  A    between atoms: N_3  and  C_4
REMARK    3  A    between atoms: C_4  and  C_5
REMARK    4  A    between atoms: C_8  and  C_9
REMARK    5  A    between atoms: C_9  and  C_10
REMARK                            x       y       z     vdW  Elec       q    Type
REMARK                         _______ _______ _______ _____ _____    ______ ____
ROOT
ATOM      1  O   UNL     1      47.456   4.135  14.253  0.00  0.00    +0.000 OA
ATOM      2  C   UNL     1      47.260   5.335  14.082  0.00  0.00    +0.000 C 
ATOM      3  N   UNL     1      46.053   5.834  13.669  0.00  0.00    +0.000 N 
ATOM      4  H   UNL     1      45.979   6.809  13.402  0.00  0.00    +0.000 HD
ENDROOT
BRANCH   2   5
ATOM      5  C   UNL     1      48.310   6.324  14.352  0.00  0.00    +0.000 A 
ATOM      6  C   UNL     1      48.826   6.458  15.634  0.00  0.00    +0.000 A 
ATOM      7  S   UNL     1      50.069   7.620  15.751  0.00  0.00    +0.000 S 
ATOM      8  C   UNL     1      49.978   7.963  14.086  0.00  0.00    +0.000 A 
ATOM      9  N   UNL     1      50.828   8.857  13.508  0.00  0.00    +0.000 NA
ATOM     10  C   UNL     1      50.675   8.985  12.233  0.00  0.00    +0.000 A 
ATOM     11  N   UNL     1      49.739   8.321  11.485  0.00  0.00    +0.000 N 
ATOM     12  C   UNL     1      48.799   7.487  12.043  0.00  0.00    +0.000 A 
ATOM     13  O   UNL     1      47.869   7.051  11.375  0.00  0.00    +0.000 OA
ATOM     14  C   UNL     1      48.981   7.241  13.460  0.00  0.00    +0.000 A 
ATOM     15  H   UNL     1      49.638   8.504  10.499  0.00  0.00    +0.000 HD
ENDBRANCH   2   5
BRANCH   3  16
ATOM     16  C   UNL     1      44.940   4.993  13.315  0.00  0.00    +0.000 C 
BRANCH  16  17
ATOM     17  C   UNL     1      44.958   4.615  11.856  0.00  0.00    +0.000 A 
ATOM     18  C   UNL     1      44.448   3.378  11.443  0.00  0.00    +0.000 A 
ATOM     19  C   UNL     1      44.410   3.038  10.088  0.00  0.00    +0.000 A 
ATOM     20  C   UNL     1      44.890   3.926   9.116  0.00  0.00    +0.000 A 
ATOM     21  C   UNL     1      45.424   5.153   9.531  0.00  0.00    +0.000 A 
ATOM     22  C   UNL     1      45.469   5.489  10.888  0.00  0.00    +0.000 A 
BRANCH  20  23
ATOM     23  C   UNL     1      44.798   3.582   7.645  0.00  0.00    +0.000 C 
BRANCH  23  24
ATOM     24  C   UNL     1      46.012   2.849   7.127  0.00  0.00    +0.000 A 
ATOM     25  C   UNL     1      46.632   3.240   5.935  0.00  0.00    +0.000 A 
ATOM     26  C   UNL     1      47.700   2.491   5.461  0.00  0.00    +0.000 A 
ATOM     27  N   UNL     1      48.193   1.402   6.088  0.00  0.00    +0.000 NA
ATOM     28  C   UNL     1      47.588   1.046   7.242  0.00  0.00    +0.000 A 
ATOM     29  C   UNL     1      46.513   1.727   7.794  0.00  0.00    +0.000 A 
ENDBRANCH  23  24
ENDBRANCH  20  23
ENDBRANCH  16  17
ENDBRANCH   3  16
TORSDOF 5
ENDMDL
MODEL 3
REMARK VINA RESULT:    -7.895      1.752      2.509
REMARK INTER + INTRA:         -10.988
REMARK INTER:                 -10.128
REMARK INTRA:                  -0.860
REMARK UNBOUND:                -0.785
REMARK  Name = 
REMARK  5 active torsions:
REMARK  status: ('A' for Active; 'I' for Inactive)
REMARK    1  A    between atoms: C_2  and  C_18
REMARK    2  A    between atoms: N_3  and  C_4
REMARK    3  A    between atoms: C_4  and  C_5
REMARK    4  A    between atoms: C_8  and  C_9
REMARK    5  A    between atoms: C_9  and  C_10
REMARK                            x       y       z     vdW  Elec       q    Type
REMARK                         _______ _______ _______ _____ _____    ______ ____
ROOT
ATOM      1  O   UNL     1      47.447   4.083  13.829  0.00  0.00    +0.000 OA
ATOM      2  C   UNL     1      47.229   5.291  13.834  0.00  0.00    +0.000 C 
ATOM      3  N   UNL     1      45.976   5.816  13.652  0.00  0.00    +0.000 N 
ATOM      4  H   UNL     1      45.867   6.815  13.518  0.00  0.00    +0.000 HD
ENDROOT
BRANCH   2   5
ATOM      5  C   UNL     1      48.304   6.258  14.082  0.00  0.00    +0.000 A 
ATOM      6  C   UNL     1      48.808   7.020  13.036  0.00  0.00    +0.000 A 
ATOM      7  S   UNL     1      50.017   8.123  13.516  0.00  0.00    +0.000 S 
ATOM      8  C   UNL     1      49.888   7.639  15.143  0.00  0.00    +0.000 A 
ATOM      9  N   UNL     1      50.630   8.240  16.114  0.00  0.00    +0.000 NA
ATOM     10  C   UNL     1      50.397   7.803  17.306  0.00  0.00    +0.000 A 
ATOM     11  N   UNL     1      49.510   6.807  17.616  0.00  0.00    +0.000 N 
ATOM     12  C   UNL     1      48.815   6.107  16.658  0.00  0.00    +0.000 A 
ATOM     13  O   UNL     1      48.168   5.109  16.953  0.00  0.00    +0.000 OA
ATOM     14  C   UNL     1      48.975   6.616  15.310  0.00  0.00    +0.000 A 
ATOM     15  H   UNL     1      49.412   6.476  18.564  0.00  0.00    +0.000 HD
ENDBRANCH   2   5
BRANCH   3  16
ATOM     16  C   UNL     1      44.827   5.005  13.349  0.00  0.00    +0.000 C 
BRANCH  16  17
ATOM     17  C   UNL     1      44.741   4.670  11.881  0.00  0.00    +0.000 A 
ATOM     18  C   UNL     1      45.388   5.475  10.936  0.00  0.00    +0.000 A 
ATOM     19  C   UNL     1      45.361   5.145   9.579  0.00  0.00    +0.000 A 
ATOM     20  C   UNL     1      44.678   4.004   9.135  0.00  0.00    +0.000 A 
ATOM     21  C   UNL     1      44.009   3.212  10.078  0.00  0.00    +0.000 A 
ATOM     22  C   UNL     1      44.030   3.549  11.436  0.00  0.00    +0.000 A 
BRANCH  20  23
ATOM     23  C   UNL     1      44.694   3.614   7.673  0.00  0.00    +0.000 C 
BRANCH  23  24
ATOM     24  C   UNL     1      45.928   2.838   7.276  0.00  0.00    +0.000 A 
ATOM     25  C   UNL     1      46.720   3.252   6.200  0.00  0.00    +0.000 A 
ATOM     26  C   UNL     1      47.802   2.467   5.828  0.00  0.00    +0.000 A 
ATOM     27  N   UNL     1      48.151   1.322   6.451  0.00  0.00    +0.000 NA
ATOM     28  C   UNL     1      47.381   0.945   7.494  0.00  0.00    +0.000 A 
ATOM     29  C   UNL     1      46.279   1.658   7.939  0.00  0.00    +0.000 A 
ENDBRANCH  23  24
ENDBRANCH  20  23
ENDBRANCH  16  17
ENDBRANCH   3  16
TORSDOF 5
ENDMDL
MODEL 4
REMARK VINA RESULT:    -7.767      2.422      4.216
REMARK INTER + INTRA:         -10.822
REMARK INTER:                 -10.135
REMARK INTRA:                  -0.687
REMARK UNBOUND:                -0.785
REMARK  Name = 
REMARK  5 active torsions:
REMARK  status: ('A' for Active; 'I' for Inactive)
REMARK    1  A    between atoms: C_2  and  C_18
REMARK    2  A    between atoms: N_3  and  C_4
REMARK    3  A    between atoms: C_4  and  C_5
REMARK    4  A    between atoms: C_8  and  C_9
REMARK    5  A    between atoms: C_9  and  C_10
REMARK                            x       y       z     vdW  Elec       q    Type
REMARK                         _______ _______ _______ _____ _____    ______ ____
ROOT
ATOM      1  O   UNL     1      48.673   5.981  13.109  0.00  0.00    +0.000 OA
ATOM      2  C   UNL     1      47.852   6.868  13.326  0.00  0.00    +0.000 C 
ATOM      3  N   UNL     1      46.542   6.602  13.630  0.00  0.00    +0.000 N 
ATOM      4  H   UNL     1      45.871   7.361  13.657  0.00  0.00    +0.000 HD
ENDROOT
BRANCH   2   5
ATOM      5  C   UNL     1      48.237   8.283  13.315  0.00  0.00    +0.000 A 
ATOM      6  C   UNL     1      49.463   8.674  13.838  0.00  0.00    +0.000 A 
ATOM      7  S   UNL     1      49.763  10.347  13.696  0.00  0.00    +0.000 S 
ATOM      8  C   UNL     1      48.277  10.601  12.906  0.00  0.00    +0.000 A 
ATOM      9  N   UNL     1      47.924  11.838  12.456  0.00  0.00    +0.000 NA
ATOM     10  C   UNL     1      46.793  11.874  11.838  0.00  0.00    +0.000 A 
ATOM     11  N   UNL     1      45.969  10.796  11.645  0.00  0.00    +0.000 N 
ATOM     12  C   UNL     1      46.239   9.553  12.168  0.00  0.00    +0.000 A 
ATOM     13  O   UNL     1      45.402   8.660  12.131  0.00  0.00    +0.000 OA
ATOM     14  C   UNL     1      47.540   9.437  12.798  0.00  0.00    +0.000 A 
ATOM     15  H   UNL     1      45.072  10.902  11.197  0.00  0.00    +0.000 HD
ENDBRANCH   2   5
BRANCH   3  16
ATOM     16  C   UNL     1      45.995   5.271  13.631  0.00  0.00    +0.000 C 
BRANCH  16  17
ATOM     17  C   UNL     1      45.606   4.817  12.248  0.00  0.00    +0.000 A 
ATOM     18  C   UNL     1      45.841   5.645  11.143  0.00  0.00    +0.000 A 
ATOM     19  C   UNL     1      45.533   5.214   9.850  0.00  0.00    +0.000 A 
ATOM     20  C   UNL     1      44.974   3.947   9.634  0.00  0.00    +0.000 A 
ATOM     21  C   UNL     1      44.715   3.128  10.742  0.00  0.00    +0.000 A 
ATOM     22  C   UNL     1      45.015   3.565  12.036  0.00  0.00    +0.000 A 
BRANCH  20  23
ATOM     23  C   UNL     1      44.693   3.457   8.230  0.00  0.00    +0.000 C 
BRANCH  23  24
ATOM     24  C   UNL     1      45.873   2.765   7.591  0.00  0.00    +0.000 A 
ATOM     25  C   UNL     1      46.577   3.368   6.544  0.00  0.00    +0.000 A 
ATOM     26  C   UNL     1      47.609   2.663   5.940  0.00  0.00    +0.000 A 
ATOM     27  N   UNL     1      47.990   1.422   6.310  0.00  0.00    +0.000 NA
ATOM     28  C   UNL     1      47.306   0.861   7.329  0.00  0.00    +0.000 A 
ATOM     29  C   UNL     1      46.258   1.482   7.993  0.00  0.00    +0.000 A 
ENDBRANCH  23  24
ENDBRANCH  20  23
ENDBRANCH  16  17
ENDBRANCH   3  16
TORSDOF 5
ENDMDL
MODEL 5
REMARK VINA RESULT:    -7.620      1.314      2.157
REMARK INTER + INTRA:         -10.632
REMARK INTER:                  -9.583
REMARK INTRA:                  -1.049
REMARK UNBOUND:                -0.785
REMARK  Name = 
REMARK  5 active torsions:
REMARK  status: ('A' for Active; 'I' for Inactive)
REMARK    1  A    between atoms: C_2  and  C_18
REMARK    2  A    between atoms: N_3  and  C_4
REMARK    3  A    between atoms: C_4  and  C_5
REMARK    4  A    between atoms: C_8  and  C_9
REMARK    5  A    between atoms: C_9  and  C_10
REMARK                            x       y       z     vdW  Elec       q    Type
REMARK                         _______ _______ _______ _____ _____    ______ ____
ROOT
ATOM      1  O   UNL     1      49.889   7.349  14.060  0.00  0.00    +0.000 OA
ATOM      2  C   UNL     1      49.055   7.162  14.941  0.00  0.00    +0.000 C 
ATOM      3  N   UNL     1      47.728   7.467  14.777  0.00  0.00    +0.000 N 
ATOM      4  H   UNL     1      47.105   7.432  15.576  0.00  0.00    +0.000 HD
ENDROOT
BRANCH   2   5
ATOM      5  C   UNL     1      49.424   6.554  16.224  0.00  0.00    +0.000 A 
ATOM      6  C   UNL     1      50.343   7.184  17.053  0.00  0.00    +0.000 A 
ATOM      7  S   UNL     1      50.614   6.361  18.521  0.00  0.00    +0.000 S 
ATOM      8  C   UNL     1      49.491   5.149  18.111  0.00  0.00    +0.000 A 
ATOM      9  N   UNL     1      49.201   4.139  18.978  0.00  0.00    +0.000 NA
ATOM     10  C   UNL     1      48.301   3.318  18.554  0.00  0.00    +0.000 A 
ATOM     11  N   UNL     1      47.678   3.398  17.337  0.00  0.00    +0.000 N 
ATOM     12  C   UNL     1      48.011   4.342  16.393  0.00  0.00    +0.000 A 
ATOM     13  O   UNL     1      47.565   4.277  15.254  0.00  0.00    +0.000 OA
ATOM     14  C   UNL     1      48.956   5.341  16.852  0.00  0.00    +0.000 A 
ATOM     15  H   UNL     1      47.018   2.694  17.044  0.00  0.00    +0.000 HD
ENDBRANCH   2   5
BRANCH   3  16
ATOM     16  C   UNL     1      47.215   8.113  13.598  0.00  0.00    +0.000 C 
BRANCH  16  17
ATOM     17  C   UNL     1      46.323   7.201  12.796  0.00  0.00    +0.000 A 
ATOM     18  C   UNL     1      45.196   7.715  12.142  0.00  0.00    +0.000 A 
ATOM     19  C   UNL     1      44.391   6.890  11.351  0.00  0.00    +0.000 A 
ATOM     20  C   UNL     1      44.691   5.529  11.204  0.00  0.00    +0.000 A 
ATOM     21  C   UNL     1      45.804   5.009  11.879  0.00  0.00    +0.000 A 
ATOM     22  C   UNL     1      46.604   5.834  12.677  0.00  0.00    +0.000 A 
BRANCH  20  23
ATOM     23  C   UNL     1      43.854   4.647  10.304  0.00  0.00    +0.000 C 
BRANCH  23  24
ATOM     24  C   UNL     1      44.677   3.804   9.360  0.00  0.00    +0.000 A 
ATOM     25  C   UNL     1      44.728   2.413   9.499  0.00  0.00    +0.000 A 
ATOM     26  C   UNL     1      45.556   1.688   8.654  0.00  0.00    +0.000 A 
ATOM     27  N   UNL     1      46.316   2.243   7.686  0.00  0.00    +0.000 NA
ATOM     28  C   UNL     1      46.245   3.585   7.560  0.00  0.00    +0.000 A 
ATOM     29  C   UNL     1      45.453   4.396   8.359  0.00  0.00    +0.000 A 
ENDBRANCH  23  24
ENDBRANCH  20  23
ENDBRANCH  16  17
ENDBRANCH   3  16
TORSDOF 5
ENDMDL
MODEL 6
REMARK VINA RESULT:    -7.443      3.963      9.428
REMARK INTER + INTRA:         -10.403
REMARK INTER:                  -9.440
REMARK INTRA:                  -0.963
REMARK UNBOUND:                -0.785
REMARK  Name = 
REMARK  5 active torsions:
REMARK  status: ('A' for Active; 'I' for Inactive)
REMARK    1  A    between atoms: C_2  and  C_18
REMARK    2  A    between atoms: N_3  and  C_4
REMARK    3  A    between atoms: C_4  and  C_5
REMARK    4  A    between atoms: C_8  and  C_9
REMARK    5  A    between atoms: C_9  and  C_10
REMARK                            x       y       z     vdW  Elec       q    Type
REMARK                         _______ _______ _______ _____ _____    ______ ____
ROOT
ATOM      1  O   UNL     1      47.302   3.166  13.959  0.00  0.00    +0.000 OA
ATOM      2  C   UNL     1      46.844   4.191  14.457  0.00  0.00    +0.000 C 
ATOM      3  N   UNL     1      46.842   4.418  15.808  0.00  0.00    +0.000 N 
ATOM      4  H   UNL     1      46.325   5.206  16.183  0.00  0.00    +0.000 HD
ENDROOT
BRANCH   2   5
ATOM      5  C   UNL     1      46.304   5.269  13.620  0.00  0.00    +0.000 A 
ATOM      6  C   UNL     1      47.055   6.412  13.388  0.00  0.00    +0.000 A 
ATOM      7  S   UNL     1      46.290   7.534  12.356  0.00  0.00    +0.000 S 
ATOM      8  C   UNL     1      44.940   6.516  12.162  0.00  0.00    +0.000 A 
ATOM      9  N   UNL     1      43.911   6.864  11.340  0.00  0.00    +0.000 NA
ATOM     10  C   UNL     1      42.977   5.978  11.255  0.00  0.00    +0.000 A 
ATOM     11  N   UNL     1      42.963   4.787  11.930  0.00  0.00    +0.000 N 
ATOM     12  C   UNL     1      43.931   4.440  12.844  0.00  0.00    +0.000 A 
ATOM     13  O   UNL     1      43.796   3.454  13.559  0.00  0.00    +0.000 OA
ATOM     14  C   UNL     1      45.047   5.361  12.914  0.00  0.00    +0.000 A 
ATOM     15  H   UNL     1      42.177   4.160  11.859  0.00  0.00    +0.000 HD
ENDBRANCH   2   5
BRANCH   3  16
ATOM     16  C   UNL     1      47.289   3.441  16.765  0.00  0.00    +0.000 C 
BRANCH  16  17
ATOM     17  C   UNL     1      48.754   3.594  17.088  0.00  0.00    +0.000 A 
ATOM     18  C   UNL     1      49.580   2.466  17.163  0.00  0.00    +0.000 A 
ATOM     19  C   UNL     1      50.950   2.599  17.408  0.00  0.00    +0.000 A 
ATOM     20  C   UNL     1      51.522   3.866  17.593  0.00  0.00    +0.000 A 
ATOM     21  C   UNL     1      50.690   4.993  17.543  0.00  0.00    +0.000 A 
ATOM     22  C   UNL     1      49.318   4.857  17.306  0.00  0.00    +0.000 A 
BRANCH  20  23
ATOM     23  C   UNL     1      53.012   4.016  17.804  0.00  0.00    +0.000 C 
BRANCH  23  24
ATOM     24  C   UNL     1      53.488   3.459  19.125  0.00  0.00    +0.000 A 
ATOM     25  C   UNL     1      53.116   4.061  20.332  0.00  0.00    +0.000 A 
ATOM     26  C   UNL     1      53.636   3.558  21.516  0.00  0.00    +0.000 A 
ATOM     27  N   UNL     1      54.479   2.506  21.581  0.00  0.00    +0.000 NA
ATOM     28  C   UNL     1      54.818   1.932  20.407  0.00  0.00    +0.000 A 
ATOM     29  C   UNL     1      54.355   2.364  19.173  0.00  0.00    +0.000 A 
ENDBRANCH  23  24
ENDBRANCH  20  23
ENDBRANCH  16  17
ENDBRANCH   3  16
TORSDOF 5
ENDMDL
MODEL 7
REMARK VINA RESULT:    -7.405      2.297      3.082
REMARK INTER + INTRA:         -10.354
REMARK INTER:                  -9.490
REMARK INTRA:                  -0.864
REMARK UNBOUND:                -0.785
REMARK  Name = 
REMARK  5 active torsions:
REMARK  status: ('A' for Active; 'I' for Inactive)
REMARK    1  A    between atoms: C_2  and  C_18
REMARK    2  A    between atoms: N_3  and  C_4
REMARK    3  A    between atoms: C_4  and  C_5
REMARK    4  A    between atoms: C_8  and  C_9
REMARK    5  A    between atoms: C_9  and  C_10
REMARK                            x       y       z     vdW  Elec       q    Type
REMARK                         _______ _______ _______ _____ _____    ______ ____
ROOT
ATOM      1  O   UNL     1      45.530   8.819  13.166  0.00  0.00    +0.000 OA
ATOM      2  C   UNL     1      46.554   8.146  13.245  0.00  0.00    +0.000 C 
ATOM      3  N   UNL     1      46.547   6.778  13.150  0.00  0.00    +0.000 N 
ATOM      4  H   UNL     1      47.390   6.258  13.366  0.00  0.00    +0.000 HD
ENDROOT
BRANCH   2   5
ATOM      5  C   UNL     1      47.869   8.776  13.407  0.00  0.00    +0.000 A 
ATOM      6  C   UNL     1      48.131  10.002  12.811  0.00  0.00    +0.000 A 
ATOM      7  S   UNL     1      49.691  10.604  13.147  0.00  0.00    +0.000 S 
ATOM      8  C   UNL     1      50.058   9.260  14.123  0.00  0.00    +0.000 A 
ATOM      9  N   UNL     1      51.252   9.171  14.774  0.00  0.00    +0.000 NA
ATOM     10  C   UNL     1      51.376   8.120  15.512  0.00  0.00    +0.000 A 
ATOM     11  N   UNL     1      50.430   7.139  15.645  0.00  0.00    +0.000 N 
ATOM     12  C   UNL     1      49.255   7.139  14.931  0.00  0.00    +0.000 A 
ATOM     13  O   UNL     1      48.515   6.162  14.937  0.00  0.00    +0.000 OA
ATOM     14  C   UNL     1      49.028   8.340  14.151  0.00  0.00    +0.000 A 
ATOM     15  H   UNL     1      50.611   6.316  16.199  0.00  0.00    +0.000 HD
ENDBRANCH   2   5
BRANCH   3  16
ATOM     16  C   UNL     1      45.337   6.009  13.040  0.00  0.00    +0.000 C 
BRANCH  16  17
ATOM     17  C   UNL     1      45.215   5.333  11.697  0.00  0.00    +0.000 A 
ATOM     18  C   UNL     1      44.464   4.159  11.566  0.00  0.00    +0.000 A 
ATOM     19  C   UNL     1      44.300   3.553  10.317  0.00  0.00    +0.000 A 
ATOM     20  C   UNL     1      44.891   4.105   9.172  0.00  0.00    +0.000 A 
ATOM     21  C   UNL     1      45.664   5.266   9.308  0.00  0.00    +0.000 A 
ATOM     22  C   UNL     1      45.835   5.867  10.560  0.00  0.00    +0.000 A 
BRANCH  20  23
ATOM     23  C   UNL     1      44.668   3.482   7.812  0.00  0.00    +0.000 C 
BRANCH  23  24
ATOM     24  C   UNL     1      45.882   2.756   7.281  0.00  0.00    +0.000 A 
ATOM     25  C   UNL     1      46.320   1.566   7.870  0.00  0.00    +0.000 A 
ATOM     26  C   UNL     1      47.482   0.974   7.394  0.00  0.00    +0.000 A 
ATOM     27  N   UNL     1      48.220   1.473   6.380  0.00  0.00    +0.000 NA
ATOM     28  C   UNL     1      47.775   2.617   5.818  0.00  0.00    +0.000 A 
ATOM     29  C   UNL     1      46.630   3.285   6.225  0.00  0.00    +0.000 A 
ENDBRANCH  23  24
ENDBRANCH  20  23
ENDBRANCH  16  17
ENDBRANCH   3  16
TORSDOF 5
ENDMDL
MODEL 8
REMARK VINA RESULT:    -7.157      2.947      3.961
REMARK INTER + INTRA:         -10.035
REMARK INTER:                  -8.977
REMARK INTRA:                  -1.058
REMARK UNBOUND:                -0.785
REMARK  Name = 
REMARK  5 active torsions:
REMARK  status: ('A' for Active; 'I' for Inactive)
REMARK    1  A    between atoms: C_2  and  C_18
REMARK    2  A    between atoms: N_3  and  C_4
REMARK    3  A    between atoms: C_4  and  C_5
REMARK    4  A    between atoms: C_8  and  C_9
REMARK    5  A    between atoms: C_9  and  C_10
REMARK                            x       y       z     vdW  Elec       q    Type
REMARK                         _______ _______ _______ _____ _____    ______ ____
ROOT
ATOM      1  O   UNL     1      50.196   5.800  16.395  0.00  0.00    +0.000 OA
ATOM      2  C   UNL     1      49.065   6.206  16.650  0.00  0.00    +0.000 C 
ATOM      3  N   UNL     1      48.187   6.605  15.676  0.00  0.00    +0.000 N 
ATOM      4  H   UNL     1      47.324   7.067  15.940  0.00  0.00    +0.000 HD
ENDROOT
BRANCH   2   5
ATOM      5  C   UNL     1      48.565   6.252  18.029  0.00  0.00    +0.000 A 
ATOM      6  C   UNL     1      48.594   5.109  18.816  0.00  0.00    +0.000 A 
ATOM      7  S   UNL     1      48.019   5.359  20.403  0.00  0.00    +0.000 S 
ATOM      8  C   UNL     1      47.740   7.010  20.098  0.00  0.00    +0.000 A 
ATOM      9  N   UNL     1      47.284   7.837  21.081  0.00  0.00    +0.000 NA
ATOM     10  C   UNL     1      47.161   9.070  20.721  0.00  0.00    +0.000 A 
ATOM     11  N   UNL     1      47.428   9.551  19.467  0.00  0.00    +0.000 N 
ATOM     12  C   UNL     1      47.794   8.736  18.421  0.00  0.00    +0.000 A 
ATOM     13  O   UNL     1      47.852   9.169  17.276  0.00  0.00    +0.000 OA
ATOM     14  C   UNL     1      48.031   7.355  18.792  0.00  0.00    +0.000 A 
ATOM     15  H   UNL     1      47.262  10.518  19.236  0.00  0.00    +0.000 HD
ENDBRANCH   2   5
BRANCH   3  16
ATOM     16  C   UNL     1      48.541   6.667  14.283  0.00  0.00    +0.000 C 
BRANCH  16  17
ATOM     17  C   UNL     1      47.418   6.201  13.392  0.00  0.00    +0.000 A 
ATOM     18  C   UNL     1      47.024   6.975  12.293  0.00  0.00    +0.000 A 
ATOM     19  C   UNL     1      46.021   6.528  11.429  0.00  0.00    +0.000 A 
ATOM     20  C   UNL     1      45.382   5.300  11.650  0.00  0.00    +0.000 A 
ATOM     21  C   UNL     1      45.759   4.538  12.764  0.00  0.00    +0.000 A 
ATOM     22  C   UNL     1      46.757   4.990  13.634  0.00  0.00    +0.000 A 
BRANCH  20  23
ATOM     23  C   UNL     1      44.336   4.790  10.684  0.00  0.00    +0.000 C 
BRANCH  23  24
ATOM     24  C   UNL     1      44.902   3.891   9.611  0.00  0.00    +0.000 A 
ATOM     25  C   UNL     1      44.806   2.499   9.717  0.00  0.00    +0.000 A 
ATOM     26  C   UNL     1      45.404   1.713   8.742  0.00  0.00    +0.000 A 
ATOM     27  N   UNL     1      46.072   2.210   7.680  0.00  0.00    +0.000 NA
ATOM     28  C   UNL     1      46.145   3.555   7.589  0.00  0.00    +0.000 A 
ATOM     29  C   UNL     1      45.583   4.424   8.513  0.00  0.00    +0.000 A 
ENDBRANCH  23  24
ENDBRANCH  20  23
ENDBRANCH  16  17
ENDBRANCH   3  16
TORSDOF 5
ENDMDL
MODEL 9
REMARK VINA RESULT:    -6.922      4.699      6.991
REMARK INTER + INTRA:          -9.730
REMARK INTER:                  -8.796
REMARK INTRA:                  -0.934
REMARK UNBOUND:                -0.785
REMARK  Name = 
REMARK  5 active torsions:
REMARK  status: ('A' for Active; 'I' for Inactive)
REMARK    1  A    between atoms: C_2  and  C_18
REMARK    2  A    between atoms: N_3  and  C_4
REMARK    3  A    between atoms: C_4  and  C_5
REMARK    4  A    between atoms: C_8  and  C_9
REMARK    5  A    between atoms: C_9  and  C_10
REMARK                            x       y       z     vdW  Elec       q    Type
REMARK                         _______ _______ _______ _____ _____    ______ ____
ROOT
ATOM      1  O   UNL     1      44.365   8.027  11.169  0.00  0.00    +0.000 OA
ATOM      2  C   UNL     1      45.076   7.127  11.609  0.00  0.00    +0.000 C 
ATOM      3  N   UNL     1      46.298   7.366  12.182  0.00  0.00    +0.000 N 
ATOM      4  H   UNL     1      46.911   6.588  12.397  0.00  0.00    +0.000 HD
ENDROOT
BRANCH   2   5
ATOM      5  C   UNL     1      44.637   5.728  11.585  0.00  0.00    +0.000 A 
ATOM      6  C   UNL     1      43.939   5.199  12.662  0.00  0.00    +0.000 A 
ATOM      7  S   UNL     1      43.468   3.575  12.439  0.00  0.00    +0.000 S 
ATOM      8  C   UNL     1      44.156   3.533  10.883  0.00  0.00    +0.000 A 
ATOM      9  N   UNL     1      44.058   2.420  10.104  0.00  0.00    +0.000 NA
ATOM     10  C   UNL     1      44.586   2.545   8.933  0.00  0.00    +0.000 A 
ATOM     11  N   UNL     1      45.222   3.669   8.475  0.00  0.00    +0.000 N 
ATOM     12  C   UNL     1      45.430   4.776   9.263  0.00  0.00    +0.000 A 
ATOM     13  O   UNL     1      46.154   5.690   8.886  0.00  0.00    +0.000 OA
ATOM     14  C   UNL     1      44.781   4.721  10.558  0.00  0.00    +0.000 A 
ATOM     15  H   UNL     1      45.659   3.683   7.567  0.00  0.00    +0.000 HD
ENDBRANCH   2   5
BRANCH   3  16
ATOM     16  C   UNL     1      46.892   8.676  12.237  0.00  0.00    +0.000 C 
BRANCH  16  17
ATOM     17  C   UNL     1      48.358   8.648  11.887  0.00  0.00    +0.000 A 
ATOM     18  C   UNL     1      49.059   7.435  11.886  0.00  0.00    +0.000 A 
ATOM     19  C   UNL     1      50.404   7.389  11.511  0.00  0.00    +0.000 A 
ATOM     20  C   UNL     1      51.081   8.557  11.136  0.00  0.00    +0.000 A 
ATOM     21  C   UNL     1      50.387   9.775  11.162  0.00  0.00    +0.000 A 
ATOM     22  C   UNL     1      49.043   9.821  11.546  0.00  0.00    +0.000 A 
BRANCH  20  23
ATOM     23  C   UNL     1      52.522   8.500  10.677  0.00  0.00    +0.000 C 
BRANCH  23  24
ATOM     24  C   UNL     1      52.669   8.126   9.221  0.00  0.00    +0.000 A 
ATOM     25  C   UNL     1      52.903   9.105   8.249  0.00  0.00    +0.000 A 
ATOM     26  C   UNL     1      52.959   8.722   6.917  0.00  0.00    +0.000 A 
ATOM     27  N   UNL     1      52.812   7.449   6.492  0.00  0.00    +0.000 NA
ATOM     28  C   UNL     1      52.598   6.517   7.446  0.00  0.00    +0.000 A 
ATOM     29  C   UNL     1      52.522   6.801   8.801  0.00  0.00    +0.000 A 
ENDBRANCH  23  24
ENDBRANCH  20  23
ENDBRANCH  16  17
ENDBRANCH   3  16
TORSDOF 5
ENDMDL
