MODEL 1
REMARK VINA RESULT:    -8.177      0.000      0.000
REMARK INTER + INTRA:         -11.852
REMARK INTER:                 -11.045
REMARK INTRA:                  -0.807
REMARK UNBOUND:                -0.807
REMARK  Name = 
REMARK  6 active torsions:
REMARK  status: ('A' for Active; 'I' for Inactive)
REMARK    1  A    between atoms: C_2  and  C_19
REMARK    2  A    between atoms: N_3  and  C_4
REMARK    3  A    between atoms: C_4  and  C_5
REMARK    4  A    between atoms: C_8  and  C_9
REMARK    5  A    between atoms: C_9  and  C_10
REMARK    6  A    between atoms: C_10  and  C_11
REMARK                            x       y       z     vdW  Elec       q    Type
REMARK                         _______ _______ _______ _____ _____    ______ ____
ROOT
ATOM      1  O   UNL     1      47.082   3.373  14.127  0.00  0.00    +0.000 OA
ATOM      2  C   UNL     1      46.909   4.558  14.353  0.00  0.00    +0.000 C 
ATOM      3  N   UNL     1      45.792   5.261  13.953  0.00  0.00    +0.000 N 
ATOM      4  H   UNL     1      45.649   6.183  14.345  0.00  0.00    +0.000 HD
ENDROOT
BRANCH   2   5
ATOM      5  C   UNL     1      47.723   5.352  15.246  0.00  0.00    +0.000 A 
ATOM      6  C   UNL     1      48.314   6.539  14.857  0.00  0.00    +0.000 A 
ATOM      7  S   UNL     1      49.657   6.933  15.853  0.00  0.00    +0.000 S 
ATOM      8  C   UNL     1      49.360   5.601  16.878  0.00  0.00    +0.000 A 
ATOM      9  N   UNL     1      50.221   5.222  17.861  0.00  0.00    +0.000 NA
ATOM     10  C   UNL     1      49.810   4.219  18.567  0.00  0.00    +0.000 A 
ATOM     11  N   UNL     1      48.598   3.595  18.415  0.00  0.00    +0.000 N 
ATOM     12  C   UNL     1      47.681   3.955  17.452  0.00  0.00    +0.000 A 
ATOM     13  O   UNL     1      46.574   3.445  17.381  0.00  0.00    +0.000 OA
ATOM     14  C   UNL     1      48.173   4.979  16.555  0.00  0.00    +0.000 A 
ATOM     15  H   UNL     1      48.296   2.877  19.062  0.00  0.00    +0.000 HD
ENDBRANCH   2   5
BRANCH   3  16
ATOM     16  C   UNL     1      44.606   4.639  13.430  0.00  0.00    +0.000 C 
BRANCH  16  17
ATOM     17  C   UNL     1      44.745   4.512  11.934  0.00  0.00    +0.000 A 
ATOM     18  C   UNL     1      44.242   3.377  11.287  0.00  0.00    +0.000 A 
ATOM     19  C   UNL     1      44.416   3.209   9.914  0.00  0.00    +0.000 A 
ATOM     20  C   UNL     1      45.083   4.171   9.139  0.00  0.00    +0.000 A 
ATOM     21  C   UNL     1      45.635   5.277   9.801  0.00  0.00    +0.000 A 
ATOM     22  C   UNL     1      45.470   5.448  11.182  0.00  0.00    +0.000 A 
BRANCH  20  23
ATOM     23  C   UNL     1      45.270   4.009   7.644  0.00  0.00    +0.000 C 
BRANCH  23  24
ATOM     24  C   UNL     1      46.733   3.818   7.213  0.00  0.00    +0.000 C 
BRANCH  24  25
ATOM     25  C   UNL     1      46.983   2.548   6.463  0.00  0.00    +0.000 A 
ATOM     26  C   UNL     1      46.958   1.309   7.075  0.00  0.00    +0.000 A 
ATOM     27  N   UNL     1      47.126   0.145   6.419  0.00  0.00    +0.000 NA
ATOM     28  C   UNL     1      47.328   0.247   5.097  0.00  0.00    +0.000 A 
ATOM     29  N   UNL     1      47.392   1.389   4.395  0.00  0.00    +0.000 NA
ATOM     30  C   UNL     1      47.216   2.521   5.103  0.00  0.00    +0.000 A 
ENDBRANCH  24  25
ENDBRANCH  23  24
ENDBRANCH  20  23
ENDBRANCH  16  17
ENDBRANCH   3  16
TORSDOF 6
ENDMDL
MODEL 2
REMARK VINA RESULT:    -7.989      1.912      2.858
REMARK INTER + INTRA:         -11.597
REMARK INTER:                 -10.448
REMARK INTRA:                  -1.149
REMARK UNBOUND:                -0.807
REMARK  Name = 
REMARK  6 active torsions:
REMARK  status: ('A' for Active; 'I' for Inactive)
REMARK    1  A    between atoms: C_2  and  C_19
REMARK    2  A    between atoms: N_3  and  C_4
REMARK    3  A    between atoms: C_4  and  C_5
REMARK    4  A    between atoms: C_8  and  C_9
REMARK    5  A    between atoms: C_9  and  C_10
REMARK    6  A    between atoms: C_10  and  C_11
REMARK                            x       y       z     vdW  Elec       q    Type
REMARK                         _______ _______ _______ _____ _____    ______ ____
ROOT
ATOM      1  O   UNL     1      49.308   6.836  13.752  0.00  0.00    +0.000 OA
ATOM      2  C   UNL     1      48.566   7.212  14.642  0.00  0.00    +0.000 C 
ATOM      3  N   UNL     1      47.548   8.124  14.460  0.00  0.00    +0.000 N 
ATOM      4  H   UNL     1      46.871   8.231  15.205  0.00  0.00    +0.000 HD
ENDROOT
BRANCH   2   5
ATOM      5  C   UNL     1      48.491   6.615  15.957  0.00  0.00    +0.000 A 
ATOM      6  C   UNL     1      48.939   7.260  17.094  0.00  0.00    +0.000 A 
ATOM      7  S   UNL     1      49.290   6.147  18.355  0.00  0.00    +0.000 S 
ATOM      8  C   UNL     1      48.714   4.833  17.432  0.00  0.00    +0.000 A 
ATOM      9  N   UNL     1      48.860   3.538  17.825  0.00  0.00    +0.000 NA
ATOM     10  C   UNL     1      48.322   2.678  17.023  0.00  0.00    +0.000 A 
ATOM     11  N   UNL     1      47.607   2.994  15.895  0.00  0.00    +0.000 N 
ATOM     12  C   UNL     1      47.410   4.288  15.467  0.00  0.00    +0.000 A 
ATOM     13  O   UNL     1      46.705   4.559  14.509  0.00  0.00    +0.000 OA
ATOM     14  C   UNL     1      48.122   5.264  16.265  0.00  0.00    +0.000 A 
ATOM     15  H   UNL     1      47.130   2.277  15.361  0.00  0.00    +0.000 HD
ENDBRANCH   2   5
BRANCH   3  16
ATOM     16  C   UNL     1      47.095   8.561  13.167  0.00  0.00    +0.000 C 
BRANCH  16  17
ATOM     17  C   UNL     1      46.360   7.424  12.501  0.00  0.00    +0.000 A 
ATOM     18  C   UNL     1      46.904   6.826  11.359  0.00  0.00    +0.000 A 
ATOM     19  C   UNL     1      46.211   5.817  10.690  0.00  0.00    +0.000 A 
ATOM     20  C   UNL     1      44.963   5.363  11.145  0.00  0.00    +0.000 A 
ATOM     21  C   UNL     1      44.397   6.006  12.255  0.00  0.00    +0.000 A 
ATOM     22  C   UNL     1      45.084   7.026  12.927  0.00  0.00    +0.000 A 
BRANCH  20  23
ATOM     23  C   UNL     1      44.203   4.260  10.436  0.00  0.00    +0.000 C 
BRANCH  23  24
ATOM     24  C   UNL     1      44.364   4.271   8.907  0.00  0.00    +0.000 C 
BRANCH  24  25
ATOM     25  C   UNL     1      45.351   3.270   8.395  0.00  0.00    +0.000 A 
ATOM     26  C   UNL     1      45.351   1.952   8.808  0.00  0.00    +0.000 A 
ATOM     27  N   UNL     1      46.192   1.015   8.328  0.00  0.00    +0.000 NA
ATOM     28  C   UNL     1      47.061   1.437   7.398  0.00  0.00    +0.000 A 
ATOM     29  N   UNL     1      47.169   2.691   6.931  0.00  0.00    +0.000 NA
ATOM     30  C   UNL     1      46.303   3.584   7.447  0.00  0.00    +0.000 A 
ENDBRANCH  24  25
ENDBRANCH  23  24
ENDBRANCH  20  23
ENDBRANCH  16  17
ENDBRANCH   3  16
TORSDOF 6
ENDMDL
MODEL 3
REMARK VINA RESULT:    -7.671      2.404      3.309
REMARK INTER + INTRA:         -11.169
REMARK INTER:                 -10.148
REMARK INTRA:                  -1.021
REMARK UNBOUND:                -0.807
REMARK  Name = 
REMARK  6 active torsions:
REMARK  status: ('A' for Active; 'I' for Inactive)
REMARK    1  A    between atoms: C_2  and  C_19
REMARK    2  A    between atoms: N_3  and  C_4
REMARK    3  A    between atoms: C_4  and  C_5
REMARK    4  A    between atoms: C_8  and  C_9
REMARK    5  A    between atoms: C_9  and  C_10
REMARK    6  A    between atoms: C_10  and  C_11
REMARK                            x       y       z     vdW  Elec       q    Type
REMARK                         _______ _______ _______ _____ _____    ______ ____
ROOT
ATOM      1  O   UNL     1      49.999   6.930  14.976  0.00  0.00    +0.000 OA
ATOM      2  C   UNL     1      48.888   6.676  15.407  0.00  0.00    +0.000 C 
ATOM      3  N   UNL     1      47.718   6.982  14.744  0.00  0.00    +0.000 N 
ATOM      4  H   UNL     1      46.860   6.568  15.085  0.00  0.00    +0.000 HD
ENDROOT
BRANCH   2   5
ATOM      5  C   UNL     1      48.624   5.836  16.553  0.00  0.00    +0.000 A 
ATOM      6  C   UNL     1      48.104   4.560  16.438  0.00  0.00    +0.000 A 
ATOM      7  S   UNL     1      47.344   4.054  17.894  0.00  0.00    +0.000 S 
ATOM      8  C   UNL     1      47.833   5.471  18.709  0.00  0.00    +0.000 A 
ATOM      9  N   UNL     1      47.394   5.790  19.957  0.00  0.00    +0.000 NA
ATOM     10  C   UNL     1      47.905   6.878  20.435  0.00  0.00    +0.000 A 
ATOM     11  N   UNL     1      48.852   7.646  19.805  0.00  0.00    +0.000 N 
ATOM     12  C   UNL     1      49.347   7.353  18.553  0.00  0.00    +0.000 A 
ATOM     13  O   UNL     1      50.246   7.998  18.039  0.00  0.00    +0.000 OA
ATOM     14  C   UNL     1      48.689   6.223  17.933  0.00  0.00    +0.000 A 
ATOM     15  H   UNL     1      49.282   8.434  20.273  0.00  0.00    +0.000 HD
ENDBRANCH   2   5
BRANCH   3  16
ATOM     16  C   UNL     1      47.672   7.423  13.377  0.00  0.00    +0.000 C 
BRANCH  16  17
ATOM     17  C   UNL     1      46.838   6.450  12.582  0.00  0.00    +0.000 A 
ATOM     18  C   UNL     1      46.476   6.765  11.267  0.00  0.00    +0.000 A 
ATOM     19  C   UNL     1      45.651   5.910  10.536  0.00  0.00    +0.000 A 
ATOM     20  C   UNL     1      45.174   4.709  11.085  0.00  0.00    +0.000 A 
ATOM     21  C   UNL     1      45.492   4.427  12.421  0.00  0.00    +0.000 A 
ATOM     22  C   UNL     1      46.313   5.287  13.164  0.00  0.00    +0.000 A 
BRANCH  20  23
ATOM     23  C   UNL     1      44.287   3.764  10.300  0.00  0.00    +0.000 C 
BRANCH  23  24
ATOM     24  C   UNL     1      44.435   3.887   8.775  0.00  0.00    +0.000 C 
BRANCH  24  25
ATOM     25  C   UNL     1      45.480   2.988   8.193  0.00  0.00    +0.000 A 
ATOM     26  C   UNL     1      46.446   3.444   7.317  0.00  0.00    +0.000 A 
ATOM     27  N   UNL     1      47.431   2.672   6.817  0.00  0.00    +0.000 NA
ATOM     28  C   UNL     1      47.428   1.394   7.222  0.00  0.00    +0.000 A 
ATOM     29  N   UNL     1      46.535   0.831   8.051  0.00  0.00    +0.000 NA
ATOM     30  C   UNL     1      45.575   1.650   8.520  0.00  0.00    +0.000 A 
ENDBRANCH  24  25
ENDBRANCH  23  24
ENDBRANCH  20  23
ENDBRANCH  16  17
ENDBRANCH   3  16
TORSDOF 6
ENDMDL
MODEL 4
REMARK VINA RESULT:    -7.631      1.575      2.555
REMARK INTER + INTRA:         -11.115
REMARK INTER:                 -10.089
REMARK INTRA:                  -1.025
REMARK UNBOUND:                -0.807
REMARK  Name = 
REMARK  6 active torsions:
REMARK  status: ('A' for Active; 'I' for Inactive)
REMARK    1  A    between atoms: C_2  and  C_19
REMARK    2  A    between atoms: N_3  and  C_4
REMARK    3  A    between atoms: C_4  and  C_5
REMARK    4  A    between atoms: C_8  and  C_9
REMARK    5  A    between atoms: C_9  and  C_10
REMARK    6  A    between atoms: C_10  and  C_11
REMARK                            x       y       z     vdW  Elec       q    Type
REMARK                         _______ _______ _______ _____ _____    ______ ____
ROOT
ATOM      1  O   UNL     1      47.078   3.335  14.408  0.00  0.00    +0.000 OA
ATOM      2  C   UNL     1      47.052   4.549  14.511  0.00  0.00    +0.000 C 
ATOM      3  N   UNL     1      46.033   5.340  14.022  0.00  0.00    +0.000 N 
ATOM      4  H   UNL     1      46.003   6.307  14.318  0.00  0.00    +0.000 HD
ENDROOT
BRANCH   2   5
ATOM      5  C   UNL     1      47.952   5.324  15.335  0.00  0.00    +0.000 A 
ATOM      6  C   UNL     1      48.202   5.016  16.659  0.00  0.00    +0.000 A 
ATOM      7  S   UNL     1      48.783   6.380  17.527  0.00  0.00    +0.000 S 
ATOM      8  C   UNL     1      48.833   7.331  16.111  0.00  0.00    +0.000 A 
ATOM      9  N   UNL     1      49.082   8.669  16.131  0.00  0.00    +0.000 NA
ATOM     10  C   UNL     1      49.126   9.217  14.960  0.00  0.00    +0.000 A 
ATOM     11  N   UNL     1      48.996   8.544  13.771  0.00  0.00    +0.000 N 
ATOM     12  C   UNL     1      48.766   7.188  13.696  0.00  0.00    +0.000 A 
ATOM     13  O   UNL     1      48.734   6.589  12.632  0.00  0.00    +0.000 OA
ATOM     14  C   UNL     1      48.569   6.572  14.991  0.00  0.00    +0.000 A 
ATOM     15  H   UNL     1      49.135   9.016  12.886  0.00  0.00    +0.000 HD
ENDBRANCH   2   5
BRANCH   3  16
ATOM     16  C   UNL     1      44.782   4.817  13.543  0.00  0.00    +0.000 C 
BRANCH  16  17
ATOM     17  C   UNL     1      44.877   4.628  12.049  0.00  0.00    +0.000 A 
ATOM     18  C   UNL     1      44.514   3.399  11.485  0.00  0.00    +0.000 A 
ATOM     19  C   UNL     1      44.656   3.181  10.115  0.00  0.00    +0.000 A 
ATOM     20  C   UNL     1      45.147   4.182   9.262  0.00  0.00    +0.000 A 
ATOM     21  C   UNL     1      45.563   5.389   9.841  0.00  0.00    +0.000 A 
ATOM     22  C   UNL     1      45.432   5.612  11.218  0.00  0.00    +0.000 A 
BRANCH  20  23
ATOM     23  C   UNL     1      45.296   3.964   7.770  0.00  0.00    +0.000 C 
BRANCH  23  24
ATOM     24  C   UNL     1      46.750   3.789   7.304  0.00  0.00    +0.000 C 
BRANCH  24  25
ATOM     25  C   UNL     1      46.990   2.533   6.528  0.00  0.00    +0.000 A 
ATOM     26  C   UNL     1      46.948   1.282   7.111  0.00  0.00    +0.000 A 
ATOM     27  N   UNL     1      47.107   0.130   6.431  0.00  0.00    +0.000 NA
ATOM     28  C   UNL     1      47.319   0.259   5.113  0.00  0.00    +0.000 A 
ATOM     29  N   UNL     1      47.399   1.416   4.437  0.00  0.00    +0.000 NA
ATOM     30  C   UNL     1      47.231   2.534   5.169  0.00  0.00    +0.000 A 
ENDBRANCH  24  25
ENDBRANCH  23  24
ENDBRANCH  20  23
ENDBRANCH  16  17
ENDBRANCH   3  16
TORSDOF 6
ENDMDL
MODEL 5
REMARK VINA RESULT:    -7.497      1.925      2.778
REMARK INTER + INTRA:         -10.934
REMARK INTER:                  -9.898
REMARK INTRA:                  -1.036
REMARK UNBOUND:                -0.807
REMARK  Name = 
REMARK  6 active torsions:
REMARK  status: ('A' for Active; 'I' for Inactive)
REMARK    1  A    between atoms: C_2  and  C_19
REMARK    2  A    between atoms: N_3  and  C_4
REMARK    3  A    between atoms: C_4  and  C_5
REMARK    4  A    between atoms: C_8  and  C_9
REMARK    5  A    between atoms: C_9  and  C_10
REMARK    6  A    between atoms: C_10  and  C_11
REMARK                            x       y       z     vdW  Elec       q    Type
REMARK                         _______ _______ _______ _____ _____    ______ ____
ROOT
ATOM      1  O   UNL     1      46.601   3.151  17.338  0.00  0.00    +0.000 OA
ATOM      2  C   UNL     1      47.464   3.362  16.505  0.00  0.00    +0.000 C 
ATOM      3  N   UNL     1      47.230   3.973  15.291  0.00  0.00    +0.000 N 
ATOM      4  H   UNL     1      48.031   4.273  14.750  0.00  0.00    +0.000 HD
ENDROOT
BRANCH   2   5
ATOM      5  C   UNL     1      48.884   3.207  16.735  0.00  0.00    +0.000 A 
ATOM      6  C   UNL     1      49.534   1.996  16.592  0.00  0.00    +0.000 A 
ATOM      7  S   UNL     1      51.003   1.959  17.482  0.00  0.00    +0.000 S 
ATOM      8  C   UNL     1      50.836   3.595  17.937  0.00  0.00    +0.000 A 
ATOM      9  N   UNL     1      51.655   4.193  18.845  0.00  0.00    +0.000 NA
ATOM     10  C   UNL     1      51.408   5.449  19.032  0.00  0.00    +0.000 A 
ATOM     11  N   UNL     1      50.455   6.173  18.359  0.00  0.00    +0.000 N 
ATOM     12  C   UNL     1      49.618   5.620  17.415  0.00  0.00    +0.000 A 
ATOM     13  O   UNL     1      48.831   6.291  16.767  0.00  0.00    +0.000 OA
ATOM     14  C   UNL     1      49.774   4.187  17.288  0.00  0.00    +0.000 A 
ATOM     15  H   UNL     1      50.376   7.175  18.484  0.00  0.00    +0.000 HD
ENDBRANCH   2   5
BRANCH   3  16
ATOM     16  C   UNL     1      45.998   4.637  14.961  0.00  0.00    +0.000 C 
BRANCH  16  17
ATOM     17  C   UNL     1      45.888   4.738  13.461  0.00  0.00    +0.000 A 
ATOM     18  C   UNL     1      46.413   5.856  12.803  0.00  0.00    +0.000 A 
ATOM     19  C   UNL     1      46.265   6.001  11.424  0.00  0.00    +0.000 A 
ATOM     20  C   UNL     1      45.604   5.030  10.655  0.00  0.00    +0.000 A 
ATOM     21  C   UNL     1      45.030   3.941  11.326  0.00  0.00    +0.000 A 
ATOM     22  C   UNL     1      45.168   3.794  12.713  0.00  0.00    +0.000 A 
BRANCH  20  23
ATOM     23  C   UNL     1      45.445   5.167   9.154  0.00  0.00    +0.000 C 
BRANCH  23  24
ATOM     24  C   UNL     1      44.806   3.943   8.478  0.00  0.00    +0.000 C 
BRANCH  24  25
ATOM     25  C   UNL     1      45.796   2.931   7.996  0.00  0.00    +0.000 A 
ATOM     26  C   UNL     1      45.772   1.614   8.412  0.00  0.00    +0.000 A 
ATOM     27  N   UNL     1      46.616   0.667   7.957  0.00  0.00    +0.000 NA
ATOM     28  C   UNL     1      47.515   1.078   7.051  0.00  0.00    +0.000 A 
ATOM     29  N   UNL     1      47.649   2.329   6.585  0.00  0.00    +0.000 NA
ATOM     30  C   UNL     1      46.778   3.232   7.074  0.00  0.00    +0.000 A 
ENDBRANCH  24  25
ENDBRANCH  23  24
ENDBRANCH  20  23
ENDBRANCH  16  17
ENDBRANCH   3  16
TORSDOF 6
ENDMDL
MODEL 6
REMARK VINA RESULT:    -7.450      2.144      3.194
REMARK INTER + INTRA:         -10.870
REMARK INTER:                  -9.846
REMARK INTRA:                  -1.024
REMARK UNBOUND:                -0.807
REMARK  Name = 
REMARK  6 active torsions:
REMARK  status: ('A' for Active; 'I' for Inactive)
REMARK    1  A    between atoms: C_2  and  C_19
REMARK    2  A    between atoms: N_3  and  C_4
REMARK    3  A    between atoms: C_4  and  C_5
REMARK    4  A    between atoms: C_8  and  C_9
REMARK    5  A    between atoms: C_9  and  C_10
REMARK    6  A    between atoms: C_10  and  C_11
REMARK                            x       y       z     vdW  Elec       q    Type
REMARK                         _______ _______ _______ _____ _____    ______ ____
ROOT
ATOM      1  O   UNL     1      50.352   6.201  15.922  0.00  0.00    +0.000 OA
ATOM      2  C   UNL     1      49.265   6.728  16.077  0.00  0.00    +0.000 C 
ATOM      3  N   UNL     1      48.482   7.195  15.042  0.00  0.00    +0.000 N 
ATOM      4  H   UNL     1      47.523   7.443  15.250  0.00  0.00    +0.000 HD
ENDROOT
BRANCH   2   5
ATOM      5  C   UNL     1      48.535   6.756  17.325  0.00  0.00    +0.000 A 
ATOM      6  C   UNL     1      48.101   7.931  17.910  0.00  0.00    +0.000 A 
ATOM      7  S   UNL     1      47.830   7.737  19.595  0.00  0.00    +0.000 S 
ATOM      8  C   UNL     1      48.154   6.063  19.512  0.00  0.00    +0.000 A 
ATOM      9  N   UNL     1      48.266   5.280  20.619  0.00  0.00    +0.000 NA
ATOM     10  C   UNL     1      48.467   4.028  20.363  0.00  0.00    +0.000 A 
ATOM     11  N   UNL     1      48.515   3.480  19.106  0.00  0.00    +0.000 N 
ATOM     12  C   UNL     1      48.384   4.225  17.955  0.00  0.00    +0.000 A 
ATOM     13  O   UNL     1      48.347   3.714  16.846  0.00  0.00    +0.000 OA
ATOM     14  C   UNL     1      48.301   5.648  18.206  0.00  0.00    +0.000 A 
ATOM     15  H   UNL     1      48.582   2.478  18.975  0.00  0.00    +0.000 HD
ENDBRANCH   2   5
BRANCH   3  16
ATOM     16  C   UNL     1      48.744   6.909  13.658  0.00  0.00    +0.000 C 
BRANCH  16  17
ATOM     17  C   UNL     1      47.537   6.225  13.067  0.00  0.00    +0.000 A 
ATOM     18  C   UNL     1      47.035   5.066  13.672  0.00  0.00    +0.000 A 
ATOM     19  C   UNL     1      45.961   4.381  13.106  0.00  0.00    +0.000 A 
ATOM     20  C   UNL     1      45.343   4.835  11.930  0.00  0.00    +0.000 A 
ATOM     21  C   UNL     1      45.885   5.963  11.298  0.00  0.00    +0.000 A 
ATOM     22  C   UNL     1      46.971   6.651  11.857  0.00  0.00    +0.000 A 
BRANCH  20  23
ATOM     23  C   UNL     1      44.166   4.109  11.309  0.00  0.00    +0.000 C 
BRANCH  23  24
ATOM     24  C   UNL     1      44.058   4.281   9.785  0.00  0.00    +0.000 C 
BRANCH  24  25
ATOM     25  C   UNL     1      45.029   3.448   9.011  0.00  0.00    +0.000 A 
ATOM     26  C   UNL     1      45.129   2.080   9.176  0.00  0.00    +0.000 A 
ATOM     27  N   UNL     1      45.955   1.295   8.458  0.00  0.00    +0.000 NA
ATOM     28  C   UNL     1      46.707   1.927   7.543  0.00  0.00    +0.000 A 
ATOM     29  N   UNL     1      46.713   3.247   7.304  0.00  0.00    +0.000 NA
ATOM     30  C   UNL     1      45.866   3.981   8.051  0.00  0.00    +0.000 A 
ENDBRANCH  24  25
ENDBRANCH  23  24
ENDBRANCH  20  23
ENDBRANCH  16  17
ENDBRANCH   3  16
TORSDOF 6
ENDMDL
MODEL 7
REMARK VINA RESULT:    -7.245      2.168      3.405
REMARK INTER + INTRA:         -10.593
REMARK INTER:                  -9.792
REMARK INTRA:                  -0.801
REMARK UNBOUND:                -0.807
REMARK  Name = 
REMARK  6 active torsions:
REMARK  status: ('A' for Active; 'I' for Inactive)
REMARK    1  A    between atoms: C_2  and  C_19
REMARK    2  A    between atoms: N_3  and  C_4
REMARK    3  A    between atoms: C_4  and  C_5
REMARK    4  A    between atoms: C_8  and  C_9
REMARK    5  A    between atoms: C_9  and  C_10
REMARK    6  A    between atoms: C_10  and  C_11
REMARK                            x       y       z     vdW  Elec       q    Type
REMARK                         _______ _______ _______ _____ _____    ______ ____
ROOT
ATOM      1  O   UNL     1      49.925   6.699  15.060  0.00  0.00    +0.000 OA
ATOM      2  C   UNL     1      48.913   7.115  15.596  0.00  0.00    +0.000 C 
ATOM      3  N   UNL     1      47.969   7.893  14.958  0.00  0.00    +0.000 N 
ATOM      4  H   UNL     1      47.080   8.032  15.421  0.00  0.00    +0.000 HD
ENDROOT
BRANCH   2   5
ATOM      5  C   UNL     1      48.437   6.692  16.894  0.00  0.00    +0.000 A 
ATOM      6  C   UNL     1      48.290   7.566  17.955  0.00  0.00    +0.000 A 
ATOM      7  S   UNL     1      48.310   6.740  19.461  0.00  0.00    +0.000 S 
ATOM      8  C   UNL     1      48.370   5.218  18.690  0.00  0.00    +0.000 A 
ATOM      9  N   UNL     1      48.571   4.056  19.371  0.00  0.00    +0.000 NA
ATOM     10  C   UNL     1      48.541   2.998  18.628  0.00  0.00    +0.000 A 
ATOM     11  N   UNL     1      48.278   2.987  17.281  0.00  0.00    +0.000 N 
ATOM     12  C   UNL     1      48.044   4.132  16.552  0.00  0.00    +0.000 A 
ATOM     13  O   UNL     1      47.731   4.103  15.373  0.00  0.00    +0.000 OA
ATOM     14  C   UNL     1      48.213   5.343  17.327  0.00  0.00    +0.000 A 
ATOM     15  H   UNL     1      48.175   2.116  16.776  0.00  0.00    +0.000 HD
ENDBRANCH   2   5
BRANCH   3  16
ATOM     16  C   UNL     1      47.948   8.110  13.537  0.00  0.00    +0.000 C 
BRANCH  16  17
ATOM     17  C   UNL     1      46.807   7.324  12.943  0.00  0.00    +0.000 A 
ATOM     18  C   UNL     1      46.855   5.925  12.950  0.00  0.00    +0.000 A 
ATOM     19  C   UNL     1      45.842   5.179  12.348  0.00  0.00    +0.000 A 
ATOM     20  C   UNL     1      44.743   5.801  11.735  0.00  0.00    +0.000 A 
ATOM     21  C   UNL     1      44.729   7.202  11.680  0.00  0.00    +0.000 A 
ATOM     22  C   UNL     1      45.748   7.957  12.275  0.00  0.00    +0.000 A 
BRANCH  20  23
ATOM     23  C   UNL     1      43.628   5.004  11.088  0.00  0.00    +0.000 C 
BRANCH  23  24
ATOM     24  C   UNL     1      43.982   3.532  10.823  0.00  0.00    +0.000 C 
BRANCH  24  25
ATOM     25  C   UNL     1      44.788   3.316   9.582  0.00  0.00    +0.000 A 
ATOM     26  C   UNL     1      45.128   4.349   8.730  0.00  0.00    +0.000 A 
ATOM     27  N   UNL     1      45.896   4.197   7.634  0.00  0.00    +0.000 NA
ATOM     28  C   UNL     1      46.329   2.950   7.398  0.00  0.00    +0.000 A 
ATOM     29  N   UNL     1      46.052   1.866   8.138  0.00  0.00    +0.000 NA
ATOM     30  C   UNL     1      45.281   2.079   9.222  0.00  0.00    +0.000 A 
ENDBRANCH  24  25
ENDBRANCH  23  24
ENDBRANCH  20  23
ENDBRANCH  16  17
ENDBRANCH   3  16
TORSDOF 6
ENDMDL
MODEL 8
REMARK VINA RESULT:    -7.075      2.583      3.603
REMARK INTER + INTRA:         -10.363
REMARK INTER:                  -9.234
REMARK INTRA:                  -1.129
REMARK UNBOUND:                -0.807
REMARK  Name = 
REMARK  6 active torsions:
REMARK  status: ('A' for Active; 'I' for Inactive)
REMARK    1  A    between atoms: C_2  and  C_19
REMARK    2  A    between atoms: N_3  and  C_4
REMARK    3  A    between atoms: C_4  and  C_5
REMARK    4  A    between atoms: C_8  and  C_9
REMARK    5  A    between atoms: C_9  and  C_10
REMARK    6  A    between atoms: C_10  and  C_11
REMARK                            x       y       z     vdW  Elec       q    Type
REMARK                         _______ _______ _______ _____ _____    ______ ____
ROOT
ATOM      1  O   UNL     1      50.115   5.632  16.695  0.00  0.00    +0.000 OA
ATOM      2  C   UNL     1      49.043   6.208  16.632  0.00  0.00    +0.000 C 
ATOM      3  N   UNL     1      48.004   5.812  15.815  0.00  0.00    +0.000 N 
ATOM      4  H   UNL     1      47.096   6.232  15.968  0.00  0.00    +0.000 HD
ENDROOT
BRANCH   2   5
ATOM      5  C   UNL     1      48.613   7.247  17.541  0.00  0.00    +0.000 A 
ATOM      6  C   UNL     1      48.989   8.569  17.392  0.00  0.00    +0.000 A 
ATOM      7  S   UNL     1      48.865   9.431  18.873  0.00  0.00    +0.000 S 
ATOM      8  C   UNL     1      48.181   8.084  19.666  0.00  0.00    +0.000 A 
ATOM      9  N   UNL     1      47.969   8.051  21.010  0.00  0.00    +0.000 NA
ATOM     10  C   UNL     1      47.402   6.967  21.430  0.00  0.00    +0.000 A 
ATOM     11  N   UNL     1      46.979   5.938  20.626  0.00  0.00    +0.000 N 
ATOM     12  C   UNL     1      47.148   5.934  19.259  0.00  0.00    +0.000 A 
ATOM     13  O   UNL     1      46.695   5.051  18.548  0.00  0.00    +0.000 OA
ATOM     14  C   UNL     1      47.909   7.067  18.777  0.00  0.00    +0.000 A 
ATOM     15  H   UNL     1      46.455   5.160  21.006  0.00  0.00    +0.000 HD
ENDBRANCH   2   5
BRANCH   3  16
ATOM     16  C   UNL     1      47.975   4.553  15.121  0.00  0.00    +0.000 C 
BRANCH  16  17
ATOM     17  C   UNL     1      47.037   4.669  13.946  0.00  0.00    +0.000 A 
ATOM     18  C   UNL     1      46.881   5.904  13.306  0.00  0.00    +0.000 A 
ATOM     19  C   UNL     1      45.971   6.049  12.259  0.00  0.00    +0.000 A 
ATOM     20  C   UNL     1      45.200   4.966  11.808  0.00  0.00    +0.000 A 
ATOM     21  C   UNL     1      45.318   3.747  12.490  0.00  0.00    +0.000 A 
ATOM     22  C   UNL     1      46.224   3.597  13.548  0.00  0.00    +0.000 A 
BRANCH  20  23
ATOM     23  C   UNL     1      44.215   5.104  10.664  0.00  0.00    +0.000 C 
BRANCH  23  24
ATOM     24  C   UNL     1      43.939   3.791   9.913  0.00  0.00    +0.000 C 
BRANCH  24  25
ATOM     25  C   UNL     1      45.014   3.411   8.944  0.00  0.00    +0.000 A 
ATOM     26  C   UNL     1      45.670   4.342   8.162  0.00  0.00    +0.000 A 
ATOM     27  N   UNL     1      46.677   4.039   7.319  0.00  0.00    +0.000 NA
ATOM     28  C   UNL     1      47.023   2.744   7.271  0.00  0.00    +0.000 A 
ATOM     29  N   UNL     1      46.450   1.748   7.964  0.00  0.00    +0.000 NA
ATOM     30  C   UNL     1      45.450   2.110   8.791  0.00  0.00    +0.000 A 
ENDBRANCH  24  25
ENDBRANCH  23  24
ENDBRANCH  20  23
ENDBRANCH  16  17
ENDBRANCH   3  16
TORSDOF 6
ENDMDL
MODEL 9
REMARK VINA RESULT:    -6.984      3.664      4.890
REMARK INTER + INTRA:         -10.241
REMARK INTER:                  -8.897
REMARK INTRA:                  -1.344
REMARK UNBOUND:                -0.807
REMARK  Name = 
REMARK  6 active torsions:
REMARK  status: ('A' for Active; 'I' for Inactive)
REMARK    1  A    between atoms: C_2  and  C_19
REMARK    2  A    between atoms: N_3  and  C_4
REMARK    3  A    between atoms: C_4  and  C_5
REMARK    4  A    between atoms: C_8  and  C_9
REMARK    5  A    between atoms: C_9  and  C_10
REMARK    6  A    between atoms: C_10  and  C_11
REMARK                            x       y       z     vdW  Elec       q    Type
REMARK                         _______ _______ _______ _____ _____    ______ ____
ROOT
ATOM      1  O   UNL     1      47.509  10.821  12.474  0.00  0.00    +0.000 OA
ATOM      2  C   UNL     1      47.795   9.889  13.205  0.00  0.00    +0.000 C 
ATOM      3  N   UNL     1      46.902   8.912  13.591  0.00  0.00    +0.000 N 
ATOM      4  H   UNL     1      47.272   8.084  14.039  0.00  0.00    +0.000 HD
ENDROOT
BRANCH   2   5
ATOM      5  C   UNL     1      49.141   9.539  13.602  0.00  0.00    +0.000 A 
ATOM      6  C   UNL     1      49.759  10.089  14.709  0.00  0.00    +0.000 A 
ATOM      7  S   UNL     1      51.469   9.982  14.597  0.00  0.00    +0.000 S 
ATOM      8  C   UNL     1      51.375   9.082  13.150  0.00  0.00    +0.000 A 
ATOM      9  N   UNL     1      52.470   8.782  12.398  0.00  0.00    +0.000 NA
ATOM     10  C   UNL     1      52.214   8.055  11.360  0.00  0.00    +0.000 A 
ATOM     11  N   UNL     1      50.978   7.556  11.033  0.00  0.00    +0.000 N 
ATOM     12  C   UNL     1      49.844   7.810  11.774  0.00  0.00    +0.000 A 
ATOM     13  O   UNL     1      48.768   7.295  11.518  0.00  0.00    +0.000 OA
ATOM     14  C   UNL     1      50.073   8.739  12.860  0.00  0.00    +0.000 A 
ATOM     15  H   UNL     1      50.862   6.914  10.259  0.00  0.00    +0.000 HD
ENDBRANCH   2   5
BRANCH   3  16
ATOM     16  C   UNL     1      45.601   8.748  13.001  0.00  0.00    +0.000 C 
BRANCH  16  17
ATOM     17  C   UNL     1      45.448   7.314  12.558  0.00  0.00    +0.000 A 
ATOM     18  C   UNL     1      44.602   7.010  11.485  0.00  0.00    +0.000 A 
ATOM     19  C   UNL     1      44.395   5.685  11.100  0.00  0.00    +0.000 A 
ATOM     20  C   UNL     1      45.035   4.625  11.761  0.00  0.00    +0.000 A 
ATOM     21  C   UNL     1      45.835   4.931  12.871  0.00  0.00    +0.000 A 
ATOM     22  C   UNL     1      46.040   6.259  13.268  0.00  0.00    +0.000 A 
BRANCH  20  23
ATOM     23  C   UNL     1      44.831   3.181  11.348  0.00  0.00    +0.000 C 
BRANCH  23  24
ATOM     24  C   UNL     1      44.233   3.011   9.942  0.00  0.00    +0.000 C 
BRANCH  24  25
ATOM     25  C   UNL     1      45.257   2.921   8.855  0.00  0.00    +0.000 A 
ATOM     26  C   UNL     1      45.906   1.742   8.544  0.00  0.00    +0.000 A 
ATOM     27  N   UNL     1      46.794   1.616   7.539  0.00  0.00    +0.000 NA
ATOM     28  C   UNL     1      47.028   2.729   6.829  0.00  0.00    +0.000 A 
ATOM     29  N   UNL     1      46.476   3.933   7.045  0.00  0.00    +0.000 NA
ATOM     30  C   UNL     1      45.596   3.999   8.062  0.00  0.00    +0.000 A 
ENDBRANCH  24  25
ENDBRANCH  23  24
ENDBRANCH  20  23
ENDBRANCH  16  17
ENDBRANCH   3  16
TORSDOF 6
ENDMDL
