MODEL 1
REMARK VINA RESULT:    -7.345      0.000      0.000
REMARK INTER + INTRA:         -11.320
REMARK INTER:                 -10.565
REMARK INTRA:                  -0.754
REMARK UNBOUND:                -0.754
REMARK  Name = 
REMARK  8 active torsions:
REMARK  status: ('A' for Active; 'I' for Inactive)
REMARK    1  A    between atoms: N_1  and  C_2
REMARK    2  A    between atoms: C_2  and  C_3
REMARK    3  A    between atoms: C_6  and  N_7
REMARK    4  A    between atoms: N_7  and  C_8
REMARK    5  A    between atoms: C_8  and  C_9
REMARK    6  A    between atoms: C_9  and  C_10
REMARK    7  A    between atoms: C_14  and  C_15
REMARK    8  A    between atoms: C_24  and  C_25
REMARK                            x       y       z     vdW  Elec       q    Type
REMARK                         _______ _______ _______ _____ _____    ______ ____
ROOT
ATOM      1  N   UNL     1      44.413   5.044   9.467  0.00  0.00    +0.000 N 
ATOM      2  H   UNL     1      45.155   5.740   9.526  0.00  0.00    +0.000 HD
ENDROOT
BRANCH   1   6
ATOM      3  C   UNL     1      46.190   1.556   8.006  0.00  0.00    +0.000 A 
ATOM      4  C   UNL     1      45.284   1.608   9.060  0.00  0.00    +0.000 A 
ATOM      5  N   UNL     1      44.702   2.741   9.532  0.00  0.00    +0.000 NA
ATOM      6  C   UNL     1      44.993   3.901   8.924  0.00  0.00    +0.000 A 
ATOM      7  C   UNL     1      45.871   3.949   7.853  0.00  0.00    +0.000 A 
ATOM      8  C   UNL     1      46.478   2.777   7.388  0.00  0.00    +0.000 A 
BRANCH   8   9
ATOM      9  C   UNL     1      47.395   2.876   6.221  0.00  0.00    +0.000 C 
ATOM     10  N   UNL     1      48.736   2.795   6.476  0.00  0.00    +0.000 N 
ATOM     11  O   UNL     1      46.984   3.023   5.075  0.00  0.00    +0.000 OA
ATOM     12  H   UNL     1      49.129   2.551   7.373  0.00  0.00    +0.000 HD
ATOM     13  H   UNL     1      49.362   2.816   5.679  0.00  0.00    +0.000 HD
ENDBRANCH   8   9
BRANCH   3  14
ATOM     14  C   UNL     1      46.785   0.237   7.603  0.00  0.00    +0.000 C 
BRANCH  14  15
ATOM     15  N   UNL     1      46.979   0.155   6.162  0.00  0.00    +0.000 NA
ATOM     16  H   UNL     1      47.828  -0.383   5.978  0.00  0.00    +0.000 HD
ATOM     17  H   UNL     1      47.202   1.099   5.832  0.00  0.00    +0.000 HD
ENDBRANCH  14  15
ENDBRANCH   3  14
ENDBRANCH   1   6
BRANCH   1  18
ATOM     18  C   UNL     1      43.594   4.880  10.664  0.00  0.00    +0.000 C 
BRANCH  18  19
ATOM     19  C   UNL     1      43.917   5.949  11.710  0.00  0.00    +0.000 C 
BRANCH  19  20
ATOM     20  C   UNL     1      45.291   5.736  12.302  0.00  0.00    +0.000 A 
ATOM     21  C   UNL     1      45.579   4.586  13.035  0.00  0.00    +0.000 A 
ATOM     22  C   UNL     1      46.850   4.446  13.561  0.00  0.00    +0.000 A 
ATOM     23  N   UNL     1      47.827   5.364  13.414  0.00  0.00    +0.000 NA
ATOM     24  C   UNL     1      47.579   6.467  12.671  0.00  0.00    +0.000 A 
ATOM     25  C   UNL     1      46.317   6.670  12.100  0.00  0.00    +0.000 A 
BRANCH  24  26
ATOM     26  C   UNL     1      48.684   7.456  12.558  0.00  0.00    +0.000 A 
ATOM     27  C   UNL     1      49.628   7.324  11.510  0.00  0.00    +0.000 A 
ATOM     28  C   UNL     1      50.680   8.229  11.332  0.00  0.00    +0.000 A 
ATOM     29  C   UNL     1      50.814   9.314  12.185  0.00  0.00    +0.000 A 
ATOM     30  C   UNL     1      49.905   9.480  13.224  0.00  0.00    +0.000 A 
ATOM     31  C   UNL     1      48.858   8.561  13.421  0.00  0.00    +0.000 A 
ATOM     32 CL   UNL     1      47.867   8.865  14.813  0.00  0.00    +0.000 Cl
ENDBRANCH  24  26
ENDBRANCH  19  20
ENDBRANCH  18  19
ENDBRANCH   1  18
TORSDOF 8
ENDMDL
MODEL 2
REMARK VINA RESULT:    -7.074      4.066      8.135
REMARK INTER + INTRA:         -10.930
REMARK INTER:                  -9.859
REMARK INTRA:                  -1.071
REMARK UNBOUND:                -0.754
REMARK  Name = 
REMARK  8 active torsions:
REMARK  status: ('A' for Active; 'I' for Inactive)
REMARK    1  A    between atoms: N_1  and  C_2
REMARK    2  A    between atoms: C_2  and  C_3
REMARK    3  A    between atoms: C_6  and  N_7
REMARK    4  A    between atoms: N_7  and  C_8
REMARK    5  A    between atoms: C_8  and  C_9
REMARK    6  A    between atoms: C_9  and  C_10
REMARK    7  A    between atoms: C_14  and  C_15
REMARK    8  A    between atoms: C_24  and  C_25
REMARK                            x       y       z     vdW  Elec       q    Type
REMARK                         _______ _______ _______ _____ _____    ______ ____
ROOT
ATOM      1  N   UNL     1      49.678   7.994  14.916  0.00  0.00    +0.000 N 
ATOM      2  H   UNL     1      50.232   8.665  15.447  0.00  0.00    +0.000 HD
ENDROOT
BRANCH   1   6
ATOM      3  C   UNL     1      49.328   4.645  17.388  0.00  0.00    +0.000 A 
ATOM      4  C   UNL     1      50.319   5.614  17.495  0.00  0.00    +0.000 A 
ATOM      5  N   UNL     1      50.431   6.706  16.694  0.00  0.00    +0.000 NA
ATOM      6  C   UNL     1      49.502   6.890  15.744  0.00  0.00    +0.000 A 
ATOM      7  C   UNL     1      48.465   5.988  15.570  0.00  0.00    +0.000 A 
ATOM      8  C   UNL     1      48.372   4.858  16.390  0.00  0.00    +0.000 A 
BRANCH   8   9
ATOM      9  C   UNL     1      47.227   3.930  16.181  0.00  0.00    +0.000 C 
ATOM     10  N   UNL     1      46.947   3.568  14.893  0.00  0.00    +0.000 N 
ATOM     11  O   UNL     1      46.554   3.500  17.111  0.00  0.00    +0.000 OA
ATOM     12  H   UNL     1      47.536   3.787  14.102  0.00  0.00    +0.000 HD
ATOM     13  H   UNL     1      46.197   2.902  14.750  0.00  0.00    +0.000 HD
ENDBRANCH   8   9
BRANCH   3  14
ATOM     14  C   UNL     1      49.338   3.467  18.320  0.00  0.00    +0.000 C 
BRANCH  14  15
ATOM     15  N   UNL     1      48.511   3.707  19.495  0.00  0.00    +0.000 NA
ATOM     16  H   UNL     1      48.560   2.885  20.100  0.00  0.00    +0.000 HD
ATOM     17  H   UNL     1      47.537   3.731  19.180  0.00  0.00    +0.000 HD
ENDBRANCH  14  15
ENDBRANCH   3  14
ENDBRANCH   1   6
BRANCH   1  18
ATOM     18  C   UNL     1      48.498   8.530  14.246  0.00  0.00    +0.000 C 
BRANCH  18  19
ATOM     19  C   UNL     1      48.523   8.229  12.746  0.00  0.00    +0.000 C 
BRANCH  19  20
ATOM     20  C   UNL     1      47.140   7.907  12.231  0.00  0.00    +0.000 A 
ATOM     21  C   UNL     1      46.097   8.821  12.372  0.00  0.00    +0.000 A 
ATOM     22  C   UNL     1      44.850   8.472  11.890  0.00  0.00    +0.000 A 
ATOM     23  N   UNL     1      44.578   7.290  11.298  0.00  0.00    +0.000 NA
ATOM     24  C   UNL     1      45.586   6.407  11.115  0.00  0.00    +0.000 A 
ATOM     25  C   UNL     1      46.879   6.698  11.570  0.00  0.00    +0.000 A 
BRANCH  24  26
ATOM     26  C   UNL     1      45.229   5.113  10.476  0.00  0.00    +0.000 A 
ATOM     27  C   UNL     1      45.558   4.897   9.115  0.00  0.00    +0.000 A 
ATOM     28  C   UNL     1      45.270   3.697   8.456  0.00  0.00    +0.000 A 
ATOM     29  C   UNL     1      44.660   2.658   9.142  0.00  0.00    +0.000 A 
ATOM     30  C   UNL     1      44.324   2.829  10.481  0.00  0.00    +0.000 A 
ATOM     31  C   UNL     1      44.592   4.041  11.142  0.00  0.00    +0.000 A 
ATOM     32 CL   UNL     1      44.031   4.122  12.782  0.00  0.00    +0.000 Cl
ENDBRANCH  24  26
ENDBRANCH  19  20
ENDBRANCH  18  19
ENDBRANCH   1  18
TORSDOF 8
ENDMDL
MODEL 3
REMARK VINA RESULT:    -7.065      4.510      8.424
REMARK INTER + INTRA:         -10.918
REMARK INTER:                  -9.664
REMARK INTRA:                  -1.253
REMARK UNBOUND:                -0.754
REMARK  Name = 
REMARK  8 active torsions:
REMARK  status: ('A' for Active; 'I' for Inactive)
REMARK    1  A    between atoms: N_1  and  C_2
REMARK    2  A    between atoms: C_2  and  C_3
REMARK    3  A    between atoms: C_6  and  N_7
REMARK    4  A    between atoms: N_7  and  C_8
REMARK    5  A    between atoms: C_8  and  C_9
REMARK    6  A    between atoms: C_9  and  C_10
REMARK    7  A    between atoms: C_14  and  C_15
REMARK    8  A    between atoms: C_24  and  C_25
REMARK                            x       y       z     vdW  Elec       q    Type
REMARK                         _______ _______ _______ _____ _____    ______ ____
ROOT
ATOM      1  N   UNL     1      49.535   7.828  14.491  0.00  0.00    +0.000 N 
ATOM      2  H   UNL     1      48.671   8.356  14.612  0.00  0.00    +0.000 HD
ENDROOT
BRANCH   1   6
ATOM      3  C   UNL     1      49.775   4.938  17.499  0.00  0.00    +0.000 A 
ATOM      4  C   UNL     1      50.863   5.602  16.942  0.00  0.00    +0.000 A 
ATOM      5  N   UNL     1      50.785   6.545  15.967  0.00  0.00    +0.000 NA
ATOM      6  C   UNL     1      49.569   6.893  15.522  0.00  0.00    +0.000 A 
ATOM      7  C   UNL     1      48.422   6.301  16.027  0.00  0.00    +0.000 A 
ATOM      8  C   UNL     1      48.518   5.317  17.018  0.00  0.00    +0.000 A 
BRANCH   8   9
ATOM      9  C   UNL     1      47.258   4.727  17.547  0.00  0.00    +0.000 C 
ATOM     10  N   UNL     1      46.607   5.427  18.524  0.00  0.00    +0.000 N 
ATOM     11  O   UNL     1      46.810   3.663  17.135  0.00  0.00    +0.000 OA
ATOM     12  H   UNL     1      46.855   6.362  18.813  0.00  0.00    +0.000 HD
ATOM     13  H   UNL     1      45.725   5.052  18.855  0.00  0.00    +0.000 HD
ENDBRANCH   8   9
BRANCH   3  14
ATOM     14  C   UNL     1      50.004   3.891  18.551  0.00  0.00    +0.000 C 
BRANCH  14  15
ATOM     15  N   UNL     1      49.871   2.547  18.005  0.00  0.00    +0.000 NA
ATOM     16  H   UNL     1      49.063   2.097  18.441  0.00  0.00    +0.000 HD
ATOM     17  H   UNL     1      50.672   2.003  18.340  0.00  0.00    +0.000 HD
ENDBRANCH  14  15
ENDBRANCH   3  14
ENDBRANCH   1   6
BRANCH   1  18
ATOM     18  C   UNL     1      49.807   7.350  13.139  0.00  0.00    +0.000 C 
BRANCH  18  19
ATOM     19  C   UNL     1      49.166   8.258  12.088  0.00  0.00    +0.000 C 
BRANCH  19  20
ATOM     20  C   UNL     1      47.663   8.105  12.078  0.00  0.00    +0.000 A 
ATOM     21  C   UNL     1      46.834   9.207  12.279  0.00  0.00    +0.000 A 
ATOM     22  C   UNL     1      45.466   9.009  12.267  0.00  0.00    +0.000 A 
ATOM     23  N   UNL     1      44.884   7.806  12.083  0.00  0.00    +0.000 NA
ATOM     24  C   UNL     1      45.671   6.732  11.845  0.00  0.00    +0.000 A 
ATOM     25  C   UNL     1      47.066   6.860  11.832  0.00  0.00    +0.000 A 
BRANCH  24  26
ATOM     26  C   UNL     1      44.981   5.427  11.668  0.00  0.00    +0.000 A 
ATOM     27  C   UNL     1      44.260   4.870  12.753  0.00  0.00    +0.000 A 
ATOM     28  C   UNL     1      43.569   3.657  12.650  0.00  0.00    +0.000 A 
ATOM     29  C   UNL     1      43.559   2.965  11.449  0.00  0.00    +0.000 A 
ATOM     30  C   UNL     1      44.253   3.480  10.359  0.00  0.00    +0.000 A 
ATOM     31  C   UNL     1      44.965   4.688  10.463  0.00  0.00    +0.000 A 
ATOM     32 CL   UNL     1      45.848   5.145   9.040  0.00  0.00    +0.000 Cl
ENDBRANCH  24  26
ENDBRANCH  19  20
ENDBRANCH  18  19
ENDBRANCH   1  18
TORSDOF 8
ENDMDL
MODEL 4
REMARK VINA RESULT:    -7.009      1.436      2.086
REMARK INTER + INTRA:         -10.837
REMARK INTER:                 -10.614
REMARK INTRA:                  -0.223
REMARK UNBOUND:                -0.754
REMARK  Name = 
REMARK  8 active torsions:
REMARK  status: ('A' for Active; 'I' for Inactive)
REMARK    1  A    between atoms: N_1  and  C_2
REMARK    2  A    between atoms: C_2  and  C_3
REMARK    3  A    between atoms: C_6  and  N_7
REMARK    4  A    between atoms: N_7  and  C_8
REMARK    5  A    between atoms: C_8  and  C_9
REMARK    6  A    between atoms: C_9  and  C_10
REMARK    7  A    between atoms: C_14  and  C_15
REMARK    8  A    between atoms: C_24  and  C_25
REMARK                            x       y       z     vdW  Elec       q    Type
REMARK                         _______ _______ _______ _____ _____    ______ ____
ROOT
ATOM      1  N   UNL     1      43.949   3.096  10.382  0.00  0.00    +0.000 N 
ATOM      2  H   UNL     1      43.270   3.806  10.110  0.00  0.00    +0.000 HD
ENDROOT
BRANCH   1   6
ATOM      3  C   UNL     1      46.632   3.003   7.182  0.00  0.00    +0.000 A 
ATOM      4  C   UNL     1      46.101   4.160   7.743  0.00  0.00    +0.000 A 
ATOM      5  N   UNL     1      45.232   4.190   8.787  0.00  0.00    +0.000 NA
ATOM      6  C   UNL     1      44.877   3.024   9.346  0.00  0.00    +0.000 A 
ATOM      7  C   UNL     1      45.366   1.820   8.870  0.00  0.00    +0.000 A 
ATOM      8  C   UNL     1      46.247   1.801   7.782  0.00  0.00    +0.000 A 
BRANCH   8   9
ATOM      9  C   UNL     1      46.765   0.484   7.320  0.00  0.00    +0.000 C 
ATOM     10  N   UNL     1      47.134   0.388   6.007  0.00  0.00    +0.000 N 
ATOM     11  O   UNL     1      46.864  -0.481   8.069  0.00  0.00    +0.000 OA
ATOM     12  H   UNL     1      47.194   1.173   5.376  0.00  0.00    +0.000 HD
ATOM     13  H   UNL     1      47.530  -0.493   5.700  0.00  0.00    +0.000 HD
ENDBRANCH   8   9
BRANCH   3  14
ATOM     14  C   UNL     1      47.561   3.108   6.005  0.00  0.00    +0.000 C 
BRANCH  14  15
ATOM     15  N   UNL     1      48.931   2.777   6.374  0.00  0.00    +0.000 NA
ATOM     16  H   UNL     1      48.907   2.072   7.114  0.00  0.00    +0.000 HD
ATOM     17  H   UNL     1      49.331   3.604   6.827  0.00  0.00    +0.000 HD
ENDBRANCH  14  15
ENDBRANCH   3  14
ENDBRANCH   1   6
BRANCH   1  18
ATOM     18  C   UNL     1      44.466   3.197  11.743  0.00  0.00    +0.000 C 
BRANCH  18  19
ATOM     19  C   UNL     1      44.321   4.618  12.291  0.00  0.00    +0.000 C 
BRANCH  19  20
ATOM     20  C   UNL     1      45.617   5.104  12.897  0.00  0.00    +0.000 A 
ATOM     21  C   UNL     1      46.129   4.513  14.050  0.00  0.00    +0.000 A 
ATOM     22  C   UNL     1      47.314   5.002  14.567  0.00  0.00    +0.000 A 
ATOM     23  N   UNL     1      48.002   6.028  14.024  0.00  0.00    +0.000 NA
ATOM     24  C   UNL     1      47.542   6.588  12.881  0.00  0.00    +0.000 A 
ATOM     25  C   UNL     1      46.352   6.136  12.296  0.00  0.00    +0.000 A 
BRANCH  24  26
ATOM     26  C   UNL     1      48.326   7.727  12.336  0.00  0.00    +0.000 A 
ATOM     27  C   UNL     1      49.681   7.527  11.973  0.00  0.00    +0.000 A 
ATOM     28  C   UNL     1      50.471   8.549  11.434  0.00  0.00    +0.000 A 
ATOM     29  C   UNL     1      49.927   9.806  11.220  0.00  0.00    +0.000 A 
ATOM     30  C   UNL     1      48.599  10.042  11.561  0.00  0.00    +0.000 A 
ATOM     31  C   UNL     1      47.807   9.025  12.122  0.00  0.00    +0.000 A 
ATOM     32 CL   UNL     1      46.202   9.508  12.571  0.00  0.00    +0.000 Cl
ENDBRANCH  24  26
ENDBRANCH  19  20
ENDBRANCH  18  19
ENDBRANCH   1  18
TORSDOF 8
ENDMDL
MODEL 5
REMARK VINA RESULT:    -6.890      4.418      8.333
REMARK INTER + INTRA:         -10.665
REMARK INTER:                  -9.627
REMARK INTRA:                  -1.039
REMARK UNBOUND:                -0.754
REMARK  Name = 
REMARK  8 active torsions:
REMARK  status: ('A' for Active; 'I' for Inactive)
REMARK    1  A    between atoms: N_1  and  C_2
REMARK    2  A    between atoms: C_2  and  C_3
REMARK    3  A    between atoms: C_6  and  N_7
REMARK    4  A    between atoms: N_7  and  C_8
REMARK    5  A    between atoms: C_8  and  C_9
REMARK    6  A    between atoms: C_9  and  C_10
REMARK    7  A    between atoms: C_14  and  C_15
REMARK    8  A    between atoms: C_24  and  C_25
REMARK                            x       y       z     vdW  Elec       q    Type
REMARK                         _______ _______ _______ _____ _____    ______ ____
ROOT
ATOM      1  N   UNL     1      49.442   7.433  14.635  0.00  0.00    +0.000 N 
ATOM      2  H   UNL     1      48.963   8.247  15.019  0.00  0.00    +0.000 HD
ENDROOT
BRANCH   1   6
ATOM      3  C   UNL     1      48.397   4.294  17.186  0.00  0.00    +0.000 A 
ATOM      4  C   UNL     1      47.738   4.613  16.004  0.00  0.00    +0.000 A 
ATOM      5  N   UNL     1      48.081   5.631  15.172  0.00  0.00    +0.000 NA
ATOM      6  C   UNL     1      49.153   6.372  15.489  0.00  0.00    +0.000 A 
ATOM      7  C   UNL     1      49.885   6.120  16.637  0.00  0.00    +0.000 A 
ATOM      8  C   UNL     1      49.511   5.080  17.496  0.00  0.00    +0.000 A 
BRANCH   8   9
ATOM      9  C   UNL     1      50.343   4.833  18.705  0.00  0.00    +0.000 C 
ATOM     10  N   UNL     1      51.479   4.092  18.536  0.00  0.00    +0.000 N 
ATOM     11  O   UNL     1      50.038   5.267  19.810  0.00  0.00    +0.000 OA
ATOM     12  H   UNL     1      51.847   3.815  17.638  0.00  0.00    +0.000 HD
ATOM     13  H   UNL     1      52.072   3.959  19.348  0.00  0.00    +0.000 HD
ENDBRANCH   8   9
BRANCH   3  14
ATOM     14  C   UNL     1      47.894   3.159  18.033  0.00  0.00    +0.000 C 
BRANCH  14  15
ATOM     15  N   UNL     1      46.523   2.805  17.693  0.00  0.00    +0.000 NA
ATOM     16  H   UNL     1      45.930   2.984  18.506  0.00  0.00    +0.000 HD
ATOM     17  H   UNL     1      46.492   1.788  17.577  0.00  0.00    +0.000 HD
ENDBRANCH  14  15
ENDBRANCH   3  14
ENDBRANCH   1   6
BRANCH   1  18
ATOM     18  C   UNL     1      49.275   7.210  13.203  0.00  0.00    +0.000 C 
BRANCH  18  19
ATOM     19  C   UNL     1      48.552   8.382  12.538  0.00  0.00    +0.000 C 
BRANCH  19  20
ATOM     20  C   UNL     1      47.153   7.993  12.119  0.00  0.00    +0.000 A 
ATOM     21  C   UNL     1      46.079   8.853  12.342  0.00  0.00    +0.000 A 
ATOM     22  C   UNL     1      44.819   8.444  11.946  0.00  0.00    +0.000 A 
ATOM     23  N   UNL     1      44.565   7.253  11.365  0.00  0.00    +0.000 NA
ATOM     24  C   UNL     1      45.601   6.422  11.104  0.00  0.00    +0.000 A 
ATOM     25  C   UNL     1      46.906   6.776  11.467  0.00  0.00    +0.000 A 
BRANCH  24  26
ATOM     26  C   UNL     1      45.264   5.115  10.480  0.00  0.00    +0.000 A 
ATOM     27  C   UNL     1      45.544   4.909   9.107  0.00  0.00    +0.000 A 
ATOM     28  C   UNL     1      45.273   3.698   8.461  0.00  0.00    +0.000 A 
ATOM     29  C   UNL     1      44.729   2.639   9.172  0.00  0.00    +0.000 A 
ATOM     30  C   UNL     1      44.442   2.801  10.523  0.00  0.00    +0.000 A 
ATOM     31  C   UNL     1      44.693   4.023  11.172  0.00  0.00    +0.000 A 
ATOM     32 CL   UNL     1      44.197   4.087  12.834  0.00  0.00    +0.000 Cl
ENDBRANCH  24  26
ENDBRANCH  19  20
ENDBRANCH  18  19
ENDBRANCH   1  18
TORSDOF 8
ENDMDL
MODEL 6
REMARK VINA RESULT:    -6.797      5.018      8.712
REMARK INTER + INTRA:         -10.531
REMARK INTER:                  -9.723
REMARK INTRA:                  -0.808
REMARK UNBOUND:                -0.754
REMARK  Name = 
REMARK  8 active torsions:
REMARK  status: ('A' for Active; 'I' for Inactive)
REMARK    1  A    between atoms: N_1  and  C_2
REMARK    2  A    between atoms: C_2  and  C_3
REMARK    3  A    between atoms: C_6  and  N_7
REMARK    4  A    between atoms: N_7  and  C_8
REMARK    5  A    between atoms: C_8  and  C_9
REMARK    6  A    between atoms: C_9  and  C_10
REMARK    7  A    between atoms: C_14  and  C_15
REMARK    8  A    between atoms: C_24  and  C_25
REMARK                            x       y       z     vdW  Elec       q    Type
REMARK                         _______ _______ _______ _____ _____    ______ ____
ROOT
ATOM      1  N   UNL     1      47.234   4.365  16.397  0.00  0.00    +0.000 N 
ATOM      2  H   UNL     1      46.541   3.895  16.979  0.00  0.00    +0.000 HD
ENDROOT
BRANCH   1   6
ATOM      3  C   UNL     1      50.858   2.601  17.495  0.00  0.00    +0.000 A 
ATOM      4  C   UNL     1      49.909   2.019  16.662  0.00  0.00    +0.000 A 
ATOM      5  N   UNL     1      48.732   2.595  16.301  0.00  0.00    +0.000 NA
ATOM      6  C   UNL     1      48.469   3.830  16.752  0.00  0.00    +0.000 A 
ATOM      7  C   UNL     1      49.361   4.500  17.574  0.00  0.00    +0.000 A 
ATOM      8  C   UNL     1      50.562   3.888  17.953  0.00  0.00    +0.000 A 
BRANCH   8   9
ATOM      9  C   UNL     1      51.499   4.655  18.817  0.00  0.00    +0.000 C 
ATOM     10  N   UNL     1      51.363   4.504  20.169  0.00  0.00    +0.000 N 
ATOM     11  O   UNL     1      52.361   5.394  18.355  0.00  0.00    +0.000 OA
ATOM     12  H   UNL     1      50.761   3.821  20.605  0.00  0.00    +0.000 HD
ATOM     13  H   UNL     1      52.028   4.990  20.760  0.00  0.00    +0.000 HD
ENDBRANCH   8   9
BRANCH   3  14
ATOM     14  C   UNL     1      52.106   1.840  17.842  0.00  0.00    +0.000 C 
BRANCH  14  15
ATOM     15  N   UNL     1      51.826   0.430  18.078  0.00  0.00    +0.000 NA
ATOM     16  H   UNL     1      52.540  -0.127  17.606  0.00  0.00    +0.000 HD
ATOM     17  H   UNL     1      50.960   0.205  17.579  0.00  0.00    +0.000 HD
ENDBRANCH  14  15
ENDBRANCH   3  14
ENDBRANCH   1   6
BRANCH   1  18
ATOM     18  C   UNL     1      46.921   4.452  14.975  0.00  0.00    +0.000 C 
BRANCH  18  19
ATOM     19  C   UNL     1      47.224   5.846  14.422  0.00  0.00    +0.000 C 
BRANCH  19  20
ATOM     20  C   UNL     1      46.431   6.118  13.165  0.00  0.00    +0.000 A 
ATOM     21  C   UNL     1      45.853   7.367  12.944  0.00  0.00    +0.000 A 
ATOM     22  C   UNL     1      45.131   7.559  11.781  0.00  0.00    +0.000 A 
ATOM     23  N   UNL     1      44.944   6.602  10.848  0.00  0.00    +0.000 NA
ATOM     24  C   UNL     1      45.531   5.397  11.025  0.00  0.00    +0.000 A 
ATOM     25  C   UNL     1      46.286   5.134  12.175  0.00  0.00    +0.000 A 
BRANCH  24  26
ATOM     26  C   UNL     1      45.277   4.373   9.977  0.00  0.00    +0.000 A 
ATOM     27  C   UNL     1      45.838   4.545   8.688  0.00  0.00    +0.000 A 
ATOM     28  C   UNL     1      45.657   3.612   7.661  0.00  0.00    +0.000 A 
ATOM     29  C   UNL     1      44.923   2.459   7.894  0.00  0.00    +0.000 A 
ATOM     30  C   UNL     1      44.358   2.251   9.148  0.00  0.00    +0.000 A 
ATOM     31  C   UNL     1      44.519   3.196  10.176  0.00  0.00    +0.000 A 
ATOM     32 CL   UNL     1      43.678   2.828  11.650  0.00  0.00    +0.000 Cl
ENDBRANCH  24  26
ENDBRANCH  19  20
ENDBRANCH  18  19
ENDBRANCH   1  18
TORSDOF 8
ENDMDL
MODEL 7
REMARK VINA RESULT:    -6.794      4.246      6.482
REMARK INTER + INTRA:         -10.527
REMARK INTER:                  -9.255
REMARK INTRA:                  -1.272
REMARK UNBOUND:                -0.754
REMARK  Name = 
REMARK  8 active torsions:
REMARK  status: ('A' for Active; 'I' for Inactive)
REMARK    1  A    between atoms: N_1  and  C_2
REMARK    2  A    between atoms: C_2  and  C_3
REMARK    3  A    between atoms: C_6  and  N_7
REMARK    4  A    between atoms: N_7  and  C_8
REMARK    5  A    between atoms: C_8  and  C_9
REMARK    6  A    between atoms: C_9  and  C_10
REMARK    7  A    between atoms: C_14  and  C_15
REMARK    8  A    between atoms: C_24  and  C_25
REMARK                            x       y       z     vdW  Elec       q    Type
REMARK                         _______ _______ _______ _____ _____    ______ ____
ROOT
ATOM      1  N   UNL     1      47.928   8.152  12.161  0.00  0.00    +0.000 N 
ATOM      2  H   UNL     1      48.326   7.942  11.246  0.00  0.00    +0.000 HD
ENDROOT
BRANCH   1   6
ATOM      3  C   UNL     1      44.729   5.554  12.846  0.00  0.00    +0.000 A 
ATOM      4  C   UNL     1      44.607   6.905  12.538  0.00  0.00    +0.000 A 
ATOM      5  N   UNL     1      45.647   7.749  12.311  0.00  0.00    +0.000 NA
ATOM      6  C   UNL     1      46.889   7.245  12.353  0.00  0.00    +0.000 A 
ATOM      7  C   UNL     1      47.113   5.907  12.634  0.00  0.00    +0.000 A 
ATOM      8  C   UNL     1      46.033   5.052  12.884  0.00  0.00    +0.000 A 
BRANCH   8   9
ATOM      9  C   UNL     1      46.321   3.618  13.158  0.00  0.00    +0.000 C 
ATOM     10  N   UNL     1      45.544   2.695  12.515  0.00  0.00    +0.000 N 
ATOM     11  O   UNL     1      47.212   3.262  13.921  0.00  0.00    +0.000 OA
ATOM     12  H   UNL     1      44.883   2.919  11.785  0.00  0.00    +0.000 HD
ATOM     13  H   UNL     1      45.766   1.717  12.663  0.00  0.00    +0.000 HD
ENDBRANCH   8   9
BRANCH   3  14
ATOM     14  C   UNL     1      43.494   4.738  13.106  0.00  0.00    +0.000 C 
BRANCH  14  15
ATOM     15  N   UNL     1      42.898   4.259  11.866  0.00  0.00    +0.000 NA
ATOM     16  H   UNL     1      43.235   3.310  11.689  0.00  0.00    +0.000 HD
ATOM     17  H   UNL     1      43.297   4.814  11.104  0.00  0.00    +0.000 HD
ENDBRANCH  14  15
ENDBRANCH   3  14
ENDBRANCH   1   6
BRANCH   1  18
ATOM     18  C   UNL     1      48.885   8.320  13.250  0.00  0.00    +0.000 C 
BRANCH  18  19
ATOM     19  C   UNL     1      48.305   9.179  14.375  0.00  0.00    +0.000 C 
BRANCH  19  20
ATOM     20  C   UNL     1      48.473   8.506  15.717  0.00  0.00    +0.000 A 
ATOM     21  C   UNL     1      48.182   9.188  16.897  0.00  0.00    +0.000 A 
ATOM     22  C   UNL     1      48.361   8.528  18.098  0.00  0.00    +0.000 A 
ATOM     23  N   UNL     1      48.814   7.261  18.196  0.00  0.00    +0.000 NA
ATOM     24  C   UNL     1      49.063   6.569  17.061  0.00  0.00    +0.000 A 
ATOM     25  C   UNL     1      48.894   7.171  15.808  0.00  0.00    +0.000 A 
BRANCH  24  26
ATOM     26  C   UNL     1      49.578   5.183  17.226  0.00  0.00    +0.000 A 
ATOM     27  C   UNL     1      50.973   4.972  17.358  0.00  0.00    +0.000 A 
ATOM     28  C   UNL     1      51.524   3.699  17.537  0.00  0.00    +0.000 A 
ATOM     29  C   UNL     1      50.697   2.589  17.611  0.00  0.00    +0.000 A 
ATOM     30  C   UNL     1      49.321   2.755  17.489  0.00  0.00    +0.000 A 
ATOM     31  C   UNL     1      48.764   4.030  17.287  0.00  0.00    +0.000 A 
ATOM     32 CL   UNL     1      47.042   4.052  17.067  0.00  0.00    +0.000 Cl
ENDBRANCH  24  26
ENDBRANCH  19  20
ENDBRANCH  18  19
ENDBRANCH   1  18
TORSDOF 8
ENDMDL
MODEL 8
REMARK VINA RESULT:    -6.769      4.744      7.045
REMARK INTER + INTRA:         -10.492
REMARK INTER:                  -9.827
REMARK INTRA:                  -0.665
REMARK UNBOUND:                -0.754
REMARK  Name = 
REMARK  8 active torsions:
REMARK  status: ('A' for Active; 'I' for Inactive)
REMARK    1  A    between atoms: N_1  and  C_2
REMARK    2  A    between atoms: C_2  and  C_3
REMARK    3  A    between atoms: C_6  and  N_7
REMARK    4  A    between atoms: N_7  and  C_8
REMARK    5  A    between atoms: C_8  and  C_9
REMARK    6  A    between atoms: C_9  and  C_10
REMARK    7  A    between atoms: C_14  and  C_15
REMARK    8  A    between atoms: C_24  and  C_25
REMARK                            x       y       z     vdW  Elec       q    Type
REMARK                         _______ _______ _______ _____ _____    ______ ____
ROOT
ATOM      1  N   UNL     1      47.839   6.033  14.532  0.00  0.00    +0.000 N 
ATOM      2  H   UNL     1      47.484   5.946  15.484  0.00  0.00    +0.000 HD
ENDROOT
BRANCH   1   6
ATOM      3  C   UNL     1      44.445   5.840  12.104  0.00  0.00    +0.000 A 
ATOM      4  C   UNL     1      45.082   7.014  12.492  0.00  0.00    +0.000 A 
ATOM      5  N   UNL     1      46.188   7.077  13.278  0.00  0.00    +0.000 NA
ATOM      6  C   UNL     1      46.735   5.924  13.691  0.00  0.00    +0.000 A 
ATOM      7  C   UNL     1      46.184   4.702  13.342  0.00  0.00    +0.000 A 
ATOM      8  C   UNL     1      45.033   4.651  12.547  0.00  0.00    +0.000 A 
BRANCH   8   9
ATOM      9  C   UNL     1      44.492   3.315  12.178  0.00  0.00    +0.000 C 
ATOM     10  N   UNL     1      44.971   2.746  11.031  0.00  0.00    +0.000 N 
ATOM     11  O   UNL     1      43.655   2.736  12.861  0.00  0.00    +0.000 OA
ATOM     12  H   UNL     1      45.745   3.112  10.497  0.00  0.00    +0.000 HD
ATOM     13  H   UNL     1      44.638   1.817  10.800  0.00  0.00    +0.000 HD
ENDBRANCH   8   9
BRANCH   3  14
ATOM     14  C   UNL     1      43.207   5.912  11.256  0.00  0.00    +0.000 C 
BRANCH  14  15
ATOM     15  N   UNL     1      42.782   7.290  11.047  0.00  0.00    +0.000 NA
ATOM     16  H   UNL     1      41.949   7.463  11.615  0.00  0.00    +0.000 HD
ATOM     17  H   UNL     1      42.448   7.361  10.082  0.00  0.00    +0.000 HD
ENDBRANCH  14  15
ENDBRANCH   3  14
ENDBRANCH   1   6
BRANCH   1  18
ATOM     18  C   UNL     1      48.761   7.138  14.293  0.00  0.00    +0.000 C 
BRANCH  18  19
ATOM     19  C   UNL     1      49.120   7.856  15.596  0.00  0.00    +0.000 C 
BRANCH  19  20
ATOM     20  C   UNL     1      49.208   6.882  16.748  0.00  0.00    +0.000 A 
ATOM     21  C   UNL     1      48.460   7.082  17.908  0.00  0.00    +0.000 A 
ATOM     22  C   UNL     1      48.584   6.165  18.934  0.00  0.00    +0.000 A 
ATOM     23  N   UNL     1      49.397   5.089  18.884  0.00  0.00    +0.000 NA
ATOM     24  C   UNL     1      50.099   4.856  17.751  0.00  0.00    +0.000 A 
ATOM     25  C   UNL     1      50.015   5.738  16.667  0.00  0.00    +0.000 A 
BRANCH  24  26
ATOM     26  C   UNL     1      50.994   3.668  17.756  0.00  0.00    +0.000 A 
ATOM     27  C   UNL     1      52.310   3.792  18.267  0.00  0.00    +0.000 A 
ATOM     28  C   UNL     1      53.197   2.711  18.321  0.00  0.00    +0.000 A 
ATOM     29  C   UNL     1      52.793   1.459  17.883  0.00  0.00    +0.000 A 
ATOM     30  C   UNL     1      51.507   1.296  17.377  0.00  0.00    +0.000 A 
ATOM     31  C   UNL     1      50.619   2.383  17.301  0.00  0.00    +0.000 A 
ATOM     32 CL   UNL     1      49.088   2.029  16.564  0.00  0.00    +0.000 Cl
ENDBRANCH  24  26
ENDBRANCH  19  20
ENDBRANCH  18  19
ENDBRANCH   1  18
TORSDOF 8
ENDMDL
MODEL 9
REMARK VINA RESULT:    -6.714      4.322      8.701
REMARK INTER + INTRA:         -10.412
REMARK INTER:                  -9.313
REMARK INTRA:                  -1.099
REMARK UNBOUND:                -0.754
REMARK  Name = 
REMARK  8 active torsions:
REMARK  status: ('A' for Active; 'I' for Inactive)
REMARK    1  A    between atoms: N_1  and  C_2
REMARK    2  A    between atoms: C_2  and  C_3
REMARK    3  A    between atoms: C_6  and  N_7
REMARK    4  A    between atoms: N_7  and  C_8
REMARK    5  A    between atoms: C_8  and  C_9
REMARK    6  A    between atoms: C_9  and  C_10
REMARK    7  A    between atoms: C_14  and  C_15
REMARK    8  A    between atoms: C_24  and  C_25
REMARK                            x       y       z     vdW  Elec       q    Type
REMARK                         _______ _______ _______ _____ _____    ______ ____
ROOT
ATOM      1  N   UNL     1      49.668   7.043  14.921  0.00  0.00    +0.000 N 
ATOM      2  H   UNL     1      50.229   7.863  15.145  0.00  0.00    +0.000 HD
ENDROOT
BRANCH   1   6
ATOM      3  C   UNL     1      47.906   6.001  18.563  0.00  0.00    +0.000 A 
ATOM      4  C   UNL     1      48.320   7.282  18.215  0.00  0.00    +0.000 A 
ATOM      5  N   UNL     1      48.888   7.622  17.029  0.00  0.00    +0.000 NA
ATOM      6  C   UNL     1      49.039   6.663  16.103  0.00  0.00    +0.000 A 
ATOM      7  C   UNL     1      48.642   5.359  16.349  0.00  0.00    +0.000 A 
ATOM      8  C   UNL     1      48.074   5.018  17.582  0.00  0.00    +0.000 A 
BRANCH   8   9
ATOM      9  C   UNL     1      47.641   3.610  17.791  0.00  0.00    +0.000 C 
ATOM     10  N   UNL     1      48.495   2.793  18.478  0.00  0.00    +0.000 N 
ATOM     11  O   UNL     1      46.570   3.185  17.373  0.00  0.00    +0.000 OA
ATOM     12  H   UNL     1      49.327   3.112  18.952  0.00  0.00    +0.000 HD
ATOM     13  H   UNL     1      48.184   1.845  18.662  0.00  0.00    +0.000 HD
ENDBRANCH   8   9
BRANCH   3  14
ATOM     14  C   UNL     1      47.320   5.754  19.924  0.00  0.00    +0.000 C 
BRANCH  14  15
ATOM     15  N   UNL     1      48.215   4.961  20.756  0.00  0.00    +0.000 NA
ATOM     16  H   UNL     1      49.168   5.308  20.631  0.00  0.00    +0.000 HD
ATOM     17  H   UNL     1      48.238   4.016  20.361  0.00  0.00    +0.000 HD
ENDBRANCH  14  15
ENDBRANCH   3  14
ENDBRANCH   1   6
BRANCH   1  18
ATOM     18  C   UNL     1      48.842   7.143  13.722  0.00  0.00    +0.000 C 
BRANCH  18  19
ATOM     19  C   UNL     1      47.813   8.268  13.846  0.00  0.00    +0.000 C 
BRANCH  19  20
ATOM     20  C   UNL     1      46.659   8.059  12.894  0.00  0.00    +0.000 A 
ATOM     21  C   UNL     1      45.796   9.108  12.580  0.00  0.00    +0.000 A 
ATOM     22  C   UNL     1      44.752   8.860  11.710  0.00  0.00    +0.000 A 
ATOM     23  N   UNL     1      44.511   7.655  11.152  0.00  0.00    +0.000 NA
ATOM     24  C   UNL     1      45.360   6.635  11.413  0.00  0.00    +0.000 A 
ATOM     25  C   UNL     1      46.447   6.817  12.278  0.00  0.00    +0.000 A 
BRANCH  24  26
ATOM     26  C   UNL     1      45.038   5.324  10.789  0.00  0.00    +0.000 A 
ATOM     27  C   UNL     1      45.498   5.048   9.478  0.00  0.00    +0.000 A 
ATOM     28  C   UNL     1      45.250   3.828   8.839  0.00  0.00    +0.000 A 
ATOM     29  C   UNL     1      44.546   2.831   9.497  0.00  0.00    +0.000 A 
ATOM     30  C   UNL     1      44.079   3.063  10.787  0.00  0.00    +0.000 A 
ATOM     31  C   UNL     1      44.309   4.294  11.425  0.00  0.00    +0.000 A 
ATOM     32 CL   UNL     1      43.585   4.453  12.995  0.00  0.00    +0.000 Cl
ENDBRANCH  24  26
ENDBRANCH  19  20
ENDBRANCH  18  19
ENDBRANCH   1  18
TORSDOF 8
ENDMDL
