MODEL 1
REMARK VINA RESULT:    -8.086      0.000      0.000
REMARK INTER + INTRA:         -10.541
REMARK INTER:                  -9.976
REMARK INTRA:                  -0.565
REMARK UNBOUND:                -0.565
REMARK  Name = 
REMARK  4 active torsions:
REMARK  status: ('A' for Active; 'I' for Inactive)
REMARK    1  A    between atoms: C_2  and  C_5
REMARK    2  A    between atoms: N_10  and  C_11
REMARK    3  A    between atoms: C_11  and  C_12
REMARK    4  A    between atoms: C_16  and  C_17
REMARK                            x       y       z     vdW  Elec       q    Type
REMARK                         _______ _______ _______ _____ _____    ______ ____
ROOT
ATOM      1  C   UNL     1      43.728   5.254  11.521  0.00  0.00    +0.000 C 
ATOM      2  C   UNL     1      42.726   5.715  12.586  0.00  0.00    +0.000 C 
ATOM      3  C   UNL     1      42.918   6.532  11.354  0.00  0.00    +0.000 C 
ENDROOT
BRANCH   1   9
ATOM      4  C   UNL     1      45.952   3.125   8.226  0.00  0.00    +0.000 A 
ATOM      5  C   UNL     1      45.751   1.756   8.246  0.00  0.00    +0.000 A 
ATOM      6  N   UNL     1      44.901   1.180   9.108  0.00  0.00    +0.000 NA
ATOM      7  N   UNL     1      44.172   1.965   9.966  0.00  0.00    +0.000 NA
ATOM      8  C   UNL     1      44.309   3.310   9.984  0.00  0.00    +0.000 A 
ATOM      9  N   UNL     1      43.412   4.014  10.801  0.00  0.00    +0.000 N 
ATOM     10  C   UNL     1      45.217   3.911   9.130  0.00  0.00    +0.000 A 
ATOM     11  H   UNL     1      42.934   3.305  11.357  0.00  0.00    +0.000 HD
BRANCH   4  13
ATOM     12  F   UNL     1      46.367   3.876   5.995  0.00  0.00    +0.000 F 
ATOM     13  C   UNL     1      46.893   3.735   7.243  0.00  0.00    +0.000 C 
ATOM     14  F   UNL     1      48.029   3.002   7.089  0.00  0.00    +0.000 F 
ATOM     15  F   UNL     1      47.301   4.981   7.615  0.00  0.00    +0.000 F 
ENDBRANCH   4  13
ENDBRANCH   1   9
BRANCH   1  16
ATOM     16  C   UNL     1      45.186   5.403  11.909  0.00  0.00    +0.000 A 
ATOM     17  C   UNL     1      46.013   6.347  11.287  0.00  0.00    +0.000 A 
ATOM     18  C   UNL     1      47.254   6.666  11.826  0.00  0.00    +0.000 A 
ATOM     19  C   UNL     1      47.688   6.041  12.992  0.00  0.00    +0.000 A 
ATOM     20  C   UNL     1      46.933   5.023  13.604  0.00  0.00    +0.000 A 
ATOM     21  C   UNL     1      45.710   4.689  13.002  0.00  0.00    +0.000 A 
BRANCH  20  22
ATOM     22  C   UNL     1      47.353   4.411  14.878  0.00  0.00    +0.000 A 
ATOM     23  N   UNL     1      47.592   3.090  14.882  0.00  0.00    +0.000 NA
ATOM     24  C   UNL     1      48.060   2.558  16.034  0.00  0.00    +0.000 A 
ATOM     25  C   UNL     1      48.299   3.299  17.162  0.00  0.00    +0.000 A 
ATOM     26  C   UNL     1      48.022   4.637  17.066  0.00  0.00    +0.000 A 
ATOM     27  N   UNL     1      47.559   5.222  15.940  0.00  0.00    +0.000 NA
ENDBRANCH  20  22
ENDBRANCH   1  16
TORSDOF 4
ENDMDL
MODEL 2
REMARK VINA RESULT:    -7.644      1.593      2.319
REMARK INTER + INTRA:          -9.996
REMARK INTER:                  -9.209
REMARK INTRA:                  -0.787
REMARK UNBOUND:                -0.565
REMARK  Name = 
REMARK  4 active torsions:
REMARK  status: ('A' for Active; 'I' for Inactive)
REMARK    1  A    between atoms: C_2  and  C_5
REMARK    2  A    between atoms: N_10  and  C_11
REMARK    3  A    between atoms: C_11  and  C_12
REMARK    4  A    between atoms: C_16  and  C_17
REMARK                            x       y       z     vdW  Elec       q    Type
REMARK                         _______ _______ _______ _____ _____    ______ ____
ROOT
ATOM      1  C   UNL     1      45.062   7.704  11.921  0.00  0.00    +0.000 C 
ATOM      2  C   UNL     1      44.703   9.058  12.546  0.00  0.00    +0.000 C 
ATOM      3  C   UNL     1      45.029   8.981  11.094  0.00  0.00    +0.000 C 
ENDROOT
BRANCH   1   9
ATOM      4  C   UNL     1      44.807   3.839   9.612  0.00  0.00    +0.000 A 
ATOM      5  C   UNL     1      44.037   2.884  10.254  0.00  0.00    +0.000 A 
ATOM      6  N   UNL     1      43.376   3.158  11.388  0.00  0.00    +0.000 NA
ATOM      7  N   UNL     1      43.421   4.427  11.910  0.00  0.00    +0.000 NA
ATOM      8  C   UNL     1      44.142   5.408  11.320  0.00  0.00    +0.000 A 
ATOM      9  N   UNL     1      43.999   6.693  11.864  0.00  0.00    +0.000 N 
ATOM     10  C   UNL     1      44.865   5.126  10.175  0.00  0.00    +0.000 A 
ATOM     11  H   UNL     1      43.479   6.568  12.733  0.00  0.00    +0.000 HD
BRANCH   4  13
ATOM     12  F   UNL     1      46.175   2.314   8.381  0.00  0.00    +0.000 F 
ATOM     13  C   UNL     1      45.518   3.506   8.344  0.00  0.00    +0.000 C 
ATOM     14  F   UNL     1      46.453   4.438   8.014  0.00  0.00    +0.000 F 
ATOM     15  F   UNL     1      44.674   3.431   7.277  0.00  0.00    +0.000 F 
ENDBRANCH   4  13
ENDBRANCH   1   9
BRANCH   1  16
ATOM     16  C   UNL     1      46.425   7.163  12.308  0.00  0.00    +0.000 A 
ATOM     17  C   UNL     1      47.591   7.606  11.672  0.00  0.00    +0.000 A 
ATOM     18  C   UNL     1      48.842   7.319  12.206  0.00  0.00    +0.000 A 
ATOM     19  C   UNL     1      48.944   6.580  13.382  0.00  0.00    +0.000 A 
ATOM     20  C   UNL     1      47.805   6.038  14.009  0.00  0.00    +0.000 A 
ATOM     21  C   UNL     1      46.564   6.303  13.412  0.00  0.00    +0.000 A 
BRANCH  20  22
ATOM     22  C   UNL     1      47.901   5.319  15.292  0.00  0.00    +0.000 A 
ATOM     23  N   UNL     1      47.051   4.300  15.497  0.00  0.00    +0.000 NA
ATOM     24  C   UNL     1      47.208   3.594  16.640  0.00  0.00    +0.000 A 
ATOM     25  C   UNL     1      48.180   3.870  17.566  0.00  0.00    +0.000 A 
ATOM     26  C   UNL     1      48.998   4.929  17.275  0.00  0.00    +0.000 A 
ATOM     27  N   UNL     1      48.891   5.665  16.147  0.00  0.00    +0.000 NA
ENDBRANCH  20  22
ENDBRANCH   1  16
TORSDOF 4
ENDMDL
MODEL 3
REMARK VINA RESULT:    -7.148      3.436      6.035
REMARK INTER + INTRA:          -9.384
REMARK INTER:                  -9.389
REMARK INTRA:                   0.005
REMARK UNBOUND:                -0.565
REMARK  Name = 
REMARK  4 active torsions:
REMARK  status: ('A' for Active; 'I' for Inactive)
REMARK    1  A    between atoms: C_2  and  C_5
REMARK    2  A    between atoms: N_10  and  C_11
REMARK    3  A    between atoms: C_11  and  C_12
REMARK    4  A    between atoms: C_16  and  C_17
REMARK                            x       y       z     vdW  Elec       q    Type
REMARK                         _______ _______ _______ _____ _____    ______ ____
ROOT
ATOM      1  C   UNL     1      47.022   7.201  13.300  0.00  0.00    +0.000 C 
ATOM      2  C   UNL     1      48.232   6.513  12.656  0.00  0.00    +0.000 C 
ATOM      3  C   UNL     1      48.308   6.956  14.077  0.00  0.00    +0.000 C 
ENDROOT
BRANCH   1   9
ATOM      4  C   UNL     1      45.037   4.222  10.559  0.00  0.00    +0.000 A 
ATOM      5  C   UNL     1      44.368   3.225  11.250  0.00  0.00    +0.000 A 
ATOM      6  N   UNL     1      44.265   3.241  12.586  0.00  0.00    +0.000 NA
ATOM      7  N   UNL     1      44.793   4.292  13.294  0.00  0.00    +0.000 NA
ATOM      8  C   UNL     1      45.443   5.304  12.677  0.00  0.00    +0.000 A 
ATOM      9  N   UNL     1      45.815   6.388  13.487  0.00  0.00    +0.000 N 
ATOM     10  C   UNL     1      45.596   5.276  11.302  0.00  0.00    +0.000 A 
ATOM     11  H   UNL     1      45.647   6.083  14.446  0.00  0.00    +0.000 HD
BRANCH   4  13
ATOM     12  F   UNL     1      43.931   4.413   8.449  0.00  0.00    +0.000 F 
ATOM     13  C   UNL     1      45.120   4.182   9.071  0.00  0.00    +0.000 C 
ATOM     14  F   UNL     1      45.557   2.979   8.607  0.00  0.00    +0.000 F 
ATOM     15  F   UNL     1      45.985   5.109   8.572  0.00  0.00    +0.000 F 
ENDBRANCH   4  13
ENDBRANCH   1   9
BRANCH   1  16
ATOM     16  C   UNL     1      46.762   8.615  12.819  0.00  0.00    +0.000 A 
ATOM     17  C   UNL     1      47.813   9.463  12.446  0.00  0.00    +0.000 A 
ATOM     18  C   UNL     1      47.560  10.643  11.757  0.00  0.00    +0.000 A 
ATOM     19  C   UNL     1      46.252  10.995  11.435  0.00  0.00    +0.000 A 
ATOM     20  C   UNL     1      45.156  10.221  11.865  0.00  0.00    +0.000 A 
ATOM     21  C   UNL     1      45.446   9.065  12.606  0.00  0.00    +0.000 A 
BRANCH  20  22
ATOM     22  C   UNL     1      43.776  10.549  11.465  0.00  0.00    +0.000 A 
ATOM     23  N   UNL     1      43.085   9.611  10.797  0.00  0.00    +0.000 NA
ATOM     24  C   UNL     1      41.793   9.893  10.513  0.00  0.00    +0.000 A 
ATOM     25  C   UNL     1      41.180  11.063  10.878  0.00  0.00    +0.000 A 
ATOM     26  C   UNL     1      41.964  11.961  11.552  0.00  0.00    +0.000 A 
ATOM     27  N   UNL     1      43.257  11.732  11.867  0.00  0.00    +0.000 NA
ENDBRANCH  20  22
ENDBRANCH   1  16
TORSDOF 4
ENDMDL
MODEL 4
REMARK VINA RESULT:    -7.141      2.410      4.081
REMARK INTER + INTRA:          -9.375
REMARK INTER:                  -9.085
REMARK INTRA:                  -0.291
REMARK UNBOUND:                -0.565
REMARK  Name = 
REMARK  4 active torsions:
REMARK  status: ('A' for Active; 'I' for Inactive)
REMARK    1  A    between atoms: C_2  and  C_5
REMARK    2  A    between atoms: N_10  and  C_11
REMARK    3  A    between atoms: C_11  and  C_12
REMARK    4  A    between atoms: C_16  and  C_17
REMARK                            x       y       z     vdW  Elec       q    Type
REMARK                         _______ _______ _______ _____ _____    ______ ____
ROOT
ATOM      1  C   UNL     1      47.364   7.860  13.051  0.00  0.00    +0.000 C 
ATOM      2  C   UNL     1      47.814   9.002  12.133  0.00  0.00    +0.000 C 
ATOM      3  C   UNL     1      48.196   7.601  11.804  0.00  0.00    +0.000 C 
ENDROOT
BRANCH   1   9
ATOM      4  C   UNL     1      44.823   4.958  10.716  0.00  0.00    +0.000 A 
ATOM      5  C   UNL     1      43.728   4.510  11.435  0.00  0.00    +0.000 A 
ATOM      6  N   UNL     1      43.440   4.990  12.653  0.00  0.00    +0.000 NA
ATOM      7  N   UNL     1      44.218   5.985  13.191  0.00  0.00    +0.000 NA
ATOM      8  C   UNL     1      45.291   6.477  12.531  0.00  0.00    +0.000 A 
ATOM      9  N   UNL     1      45.923   7.584  13.116  0.00  0.00    +0.000 N 
ATOM     10  C   UNL     1      45.625   5.957  11.293  0.00  0.00    +0.000 A 
ATOM     11  H   UNL     1      45.510   7.678  14.044  0.00  0.00    +0.000 HD
BRANCH   4  13
ATOM     12  F   UNL     1      45.541   3.123   9.363  0.00  0.00    +0.000 F 
ATOM     13  C   UNL     1      45.106   4.414   9.356  0.00  0.00    +0.000 C 
ATOM     14  F   UNL     1      46.063   5.127   8.701  0.00  0.00    +0.000 F 
ATOM     15  F   UNL     1      44.010   4.431   8.548  0.00  0.00    +0.000 F 
ENDBRANCH   4  13
ENDBRANCH   1   9
BRANCH   1  16
ATOM     16  C   UNL     1      48.078   7.795  14.387  0.00  0.00    +0.000 A 
ATOM     17  C   UNL     1      48.105   8.896  15.253  0.00  0.00    +0.000 A 
ATOM     18  C   UNL     1      48.517   8.750  16.572  0.00  0.00    +0.000 A 
ATOM     19  C   UNL     1      48.913   7.501  17.043  0.00  0.00    +0.000 A 
ATOM     20  C   UNL     1      48.987   6.384  16.190  0.00  0.00    +0.000 A 
ATOM     21  C   UNL     1      48.616   6.581  14.851  0.00  0.00    +0.000 A 
BRANCH  20  22
ATOM     22  C   UNL     1      49.334   5.045  16.700  0.00  0.00    +0.000 A 
ATOM     23  N   UNL     1      48.397   4.087  16.616  0.00  0.00    +0.000 NA
ATOM     24  C   UNL     1      48.759   2.844  17.007  0.00  0.00    +0.000 A 
ATOM     25  C   UNL     1      50.013   2.535  17.466  0.00  0.00    +0.000 A 
ATOM     26  C   UNL     1      50.901   3.576  17.521  0.00  0.00    +0.000 A 
ATOM     27  N   UNL     1      50.597   4.835  17.138  0.00  0.00    +0.000 NA
ENDBRANCH  20  22
ENDBRANCH   1  16
TORSDOF 4
ENDMDL
MODEL 5
REMARK VINA RESULT:    -6.998      4.701      8.247
REMARK INTER + INTRA:          -9.199
REMARK INTER:                  -8.267
REMARK INTRA:                  -0.931
REMARK UNBOUND:                -0.565
REMARK  Name = 
REMARK  4 active torsions:
REMARK  status: ('A' for Active; 'I' for Inactive)
REMARK    1  A    between atoms: C_2  and  C_5
REMARK    2  A    between atoms: N_10  and  C_11
REMARK    3  A    between atoms: C_11  and  C_12
REMARK    4  A    between atoms: C_16  and  C_17
REMARK                            x       y       z     vdW  Elec       q    Type
REMARK                         _______ _______ _______ _____ _____    ______ ____
ROOT
ATOM      1  C   UNL     1      48.986   7.854  12.759  0.00  0.00    +0.000 C 
ATOM      2  C   UNL     1      49.850   8.038  11.506  0.00  0.00    +0.000 C 
ATOM      3  C   UNL     1      49.593   9.202  12.399  0.00  0.00    +0.000 C 
ENDROOT
BRANCH   1   9
ATOM      4  C   UNL     1      48.439   8.029  17.231  0.00  0.00    +0.000 A 
ATOM      5  C   UNL     1      48.523   6.783  17.828  0.00  0.00    +0.000 A 
ATOM      6  N   UNL     1      48.835   5.685  17.125  0.00  0.00    +0.000 NA
ATOM      7  N   UNL     1      49.124   5.795  15.788  0.00  0.00    +0.000 NA
ATOM      8  C   UNL     1      49.076   6.987  15.151  0.00  0.00    +0.000 A 
ATOM      9  N   UNL     1      49.526   6.998  13.822  0.00  0.00    +0.000 N 
ATOM     10  C   UNL     1      48.711   8.120  15.855  0.00  0.00    +0.000 A 
ATOM     11  H   UNL     1      49.645   6.018  13.565  0.00  0.00    +0.000 HD
BRANCH   4  13
ATOM     12  F   UNL     1      49.149   9.702  18.785  0.00  0.00    +0.000 F 
ATOM     13  C   UNL     1      48.105   9.234  18.045  0.00  0.00    +0.000 C 
ATOM     14  F   UNL     1      47.097   9.000  18.928  0.00  0.00    +0.000 F 
ATOM     15  F   UNL     1      47.694  10.283  17.280  0.00  0.00    +0.000 F 
ENDBRANCH   4  13
ENDBRANCH   1   9
BRANCH   1  16
ATOM     16  C   UNL     1      47.505   7.667  12.491  0.00  0.00    +0.000 A 
ATOM     17  C   UNL     1      46.581   8.683  12.766  0.00  0.00    +0.000 A 
ATOM     18  C   UNL     1      45.284   8.613  12.272  0.00  0.00    +0.000 A 
ATOM     19  C   UNL     1      44.891   7.523  11.500  0.00  0.00    +0.000 A 
ATOM     20  C   UNL     1      45.755   6.435  11.271  0.00  0.00    +0.000 A 
ATOM     21  C   UNL     1      47.039   6.515  11.831  0.00  0.00    +0.000 A 
BRANCH  20  22
ATOM     22  C   UNL     1      45.369   5.314  10.395  0.00  0.00    +0.000 A 
ATOM     23  N   UNL     1      45.846   5.316   9.140  0.00  0.00    +0.000 NA
ATOM     24  C   UNL     1      45.555   4.239   8.376  0.00  0.00    +0.000 A 
ATOM     25  C   UNL     1      44.819   3.174   8.826  0.00  0.00    +0.000 A 
ATOM     26  C   UNL     1      44.372   3.262  10.117  0.00  0.00    +0.000 A 
ATOM     27  N   UNL     1      44.636   4.310  10.927  0.00  0.00    +0.000 NA
ENDBRANCH  20  22
ENDBRANCH   1  16
TORSDOF 4
ENDMDL
MODEL 6
REMARK VINA RESULT:    -6.751      3.624      7.398
REMARK INTER + INTRA:          -8.895
REMARK INTER:                  -8.592
REMARK INTRA:                  -0.303
REMARK UNBOUND:                -0.565
REMARK  Name = 
REMARK  4 active torsions:
REMARK  status: ('A' for Active; 'I' for Inactive)
REMARK    1  A    between atoms: C_2  and  C_5
REMARK    2  A    between atoms: N_10  and  C_11
REMARK    3  A    between atoms: C_11  and  C_12
REMARK    4  A    between atoms: C_16  and  C_17
REMARK                            x       y       z     vdW  Elec       q    Type
REMARK                         _______ _______ _______ _____ _____    ______ ____
ROOT
ATOM      1  C   UNL     1      48.756   8.232  12.685  0.00  0.00    +0.000 C 
ATOM      2  C   UNL     1      49.741   7.486  11.776  0.00  0.00    +0.000 C 
ATOM      3  C   UNL     1      49.522   8.947  11.580  0.00  0.00    +0.000 C 
ENDROOT
BRANCH   1   9
ATOM      4  C   UNL     1      48.367   5.271  16.063  0.00  0.00    +0.000 A 
ATOM      5  C   UNL     1      49.339   5.440  17.034  0.00  0.00    +0.000 A 
ATOM      6  N   UNL     1      50.218   6.451  16.984  0.00  0.00    +0.000 NA
ATOM      7  N   UNL     1      50.132   7.374  15.972  0.00  0.00    +0.000 NA
ATOM      8  C   UNL     1      49.195   7.274  15.002  0.00  0.00    +0.000 A 
ATOM      9  N   UNL     1      49.115   8.349  14.103  0.00  0.00    +0.000 N 
ATOM     10  C   UNL     1      48.311   6.209  15.018  0.00  0.00    +0.000 A 
ATOM     11  H   UNL     1      49.936   8.925  14.292  0.00  0.00    +0.000 HD
BRANCH   4  13
ATOM     12  F   UNL     1      46.701   4.116  17.329  0.00  0.00    +0.000 F 
ATOM     13  C   UNL     1      47.394   4.145  16.157  0.00  0.00    +0.000 C 
ATOM     14  F   UNL     1      47.996   2.929  16.050  0.00  0.00    +0.000 F 
ATOM     15  F   UNL     1      46.454   4.183  15.171  0.00  0.00    +0.000 F 
ENDBRANCH   4  13
ENDBRANCH   1   9
BRANCH   1  16
ATOM     16  C   UNL     1      47.294   7.926  12.428  0.00  0.00    +0.000 A 
ATOM     17  C   UNL     1      46.296   8.878  12.678  0.00  0.00    +0.000 A 
ATOM     18  C   UNL     1      45.007   8.696  12.191  0.00  0.00    +0.000 A 
ATOM     19  C   UNL     1      44.696   7.558  11.452  0.00  0.00    +0.000 A 
ATOM     20  C   UNL     1      45.639   6.533  11.250  0.00  0.00    +0.000 A 
ATOM     21  C   UNL     1      46.915   6.725  11.802  0.00  0.00    +0.000 A 
BRANCH  20  22
ATOM     22  C   UNL     1      45.338   5.361  10.408  0.00  0.00    +0.000 A 
ATOM     23  N   UNL     1      45.831   5.353   9.159  0.00  0.00    +0.000 NA
ATOM     24  C   UNL     1      45.620   4.235   8.428  0.00  0.00    +0.000 A 
ATOM     25  C   UNL     1      44.947   3.140   8.904  0.00  0.00    +0.000 A 
ATOM     26  C   UNL     1      44.476   3.241  10.186  0.00  0.00    +0.000 A 
ATOM     27  N   UNL     1      44.662   4.330  10.964  0.00  0.00    +0.000 NA
ENDBRANCH  20  22
ENDBRANCH   1  16
TORSDOF 4
ENDMDL
MODEL 7
REMARK VINA RESULT:    -6.532      4.587      8.050
REMARK INTER + INTRA:          -8.625
REMARK INTER:                  -8.182
REMARK INTRA:                  -0.443
REMARK UNBOUND:                -0.565
REMARK  Name = 
REMARK  4 active torsions:
REMARK  status: ('A' for Active; 'I' for Inactive)
REMARK    1  A    between atoms: C_2  and  C_5
REMARK    2  A    between atoms: N_10  and  C_11
REMARK    3  A    between atoms: C_11  and  C_12
REMARK    4  A    between atoms: C_16  and  C_17
REMARK                            x       y       z     vdW  Elec       q    Type
REMARK                         _______ _______ _______ _____ _____    ______ ____
ROOT
ATOM      1  C   UNL     1      47.852   6.392  13.923  0.00  0.00    +0.000 C 
ATOM      2  C   UNL     1      49.142   7.050  13.420  0.00  0.00    +0.000 C 
ATOM      3  C   UNL     1      48.417   7.645  14.577  0.00  0.00    +0.000 C 
ENDROOT
BRANCH   1   9
ATOM      4  C   UNL     1      47.817   5.107  18.245  0.00  0.00    +0.000 A 
ATOM      5  C   UNL     1      47.315   3.828  18.417  0.00  0.00    +0.000 A 
ATOM      6  N   UNL     1      46.981   3.056  17.373  0.00  0.00    +0.000 NA
ATOM      7  N   UNL     1      47.181   3.518  16.096  0.00  0.00    +0.000 NA
ATOM      8  C   UNL     1      47.684   4.751  15.863  0.00  0.00    +0.000 A 
ATOM      9  N   UNL     1      47.975   5.059  14.524  0.00  0.00    +0.000 N 
ATOM     10  C   UNL     1      47.989   5.575  16.931  0.00  0.00    +0.000 A 
ATOM     11  H   UNL     1      47.568   4.301  13.975  0.00  0.00    +0.000 HD
BRANCH   4  13
ATOM     12  F   UNL     1      48.550   7.211  19.112  0.00  0.00    +0.000 F 
ATOM     13  C   UNL     1      48.193   5.934  19.427  0.00  0.00    +0.000 C 
ATOM     14  F   UNL     1      49.246   5.411  20.113  0.00  0.00    +0.000 F 
ATOM     15  F   UNL     1      47.179   6.046  20.330  0.00  0.00    +0.000 F 
ENDBRANCH   4  13
ENDBRANCH   1   9
BRANCH   1  16
ATOM     16  C   UNL     1      46.650   6.566  13.015  0.00  0.00    +0.000 A 
ATOM     17  C   UNL     1      45.993   7.798  12.904  0.00  0.00    +0.000 A 
ATOM     18  C   UNL     1      45.080   8.024  11.882  0.00  0.00    +0.000 A 
ATOM     19  C   UNL     1      44.805   7.018  10.958  0.00  0.00    +0.000 A 
ATOM     20  C   UNL     1      45.373   5.735  11.079  0.00  0.00    +0.000 A 
ATOM     21  C   UNL     1      46.250   5.527  12.155  0.00  0.00    +0.000 A 
BRANCH  20  22
ATOM     22  C   UNL     1      45.144   4.691  10.064  0.00  0.00    +0.000 A 
ATOM     23  N   UNL     1      45.635   4.906   8.833  0.00  0.00    +0.000 NA
ATOM     24  C   UNL     1      45.494   3.903   7.937  0.00  0.00    +0.000 A 
ATOM     25  C   UNL     1      44.892   2.708   8.234  0.00  0.00    +0.000 A 
ATOM     26  C   UNL     1      44.418   2.581   9.512  0.00  0.00    +0.000 A 
ATOM     27  N   UNL     1      44.536   3.546  10.449  0.00  0.00    +0.000 NA
ENDBRANCH  20  22
ENDBRANCH   1  16
TORSDOF 4
ENDMDL
MODEL 8
REMARK VINA RESULT:    -6.328      4.504      7.940
REMARK INTER + INTRA:          -8.372
REMARK INTER:                  -7.202
REMARK INTRA:                  -1.170
REMARK UNBOUND:                -0.565
REMARK  Name = 
REMARK  4 active torsions:
REMARK  status: ('A' for Active; 'I' for Inactive)
REMARK    1  A    between atoms: C_2  and  C_5
REMARK    2  A    between atoms: N_10  and  C_11
REMARK    3  A    between atoms: C_11  and  C_12
REMARK    4  A    between atoms: C_16  and  C_17
REMARK                            x       y       z     vdW  Elec       q    Type
REMARK                         _______ _______ _______ _____ _____    ______ ____
ROOT
ATOM      1  C   UNL     1      49.253   8.706  15.858  0.00  0.00    +0.000 C 
ATOM      2  C   UNL     1      49.228  10.206  16.173  0.00  0.00    +0.000 C 
ATOM      3  C   UNL     1      48.073   9.352  16.569  0.00  0.00    +0.000 C 
ENDROOT
BRANCH   1   9
ATOM      4  C   UNL     1      49.056   4.463  17.371  0.00  0.00    +0.000 A 
ATOM      5  C   UNL     1      50.292   3.840  17.375  0.00  0.00    +0.000 A 
ATOM      6  N   UNL     1      51.414   4.498  17.050  0.00  0.00    +0.000 NA
ATOM      7  N   UNL     1      51.352   5.836  16.748  0.00  0.00    +0.000 NA
ATOM      8  C   UNL     1      50.177   6.505  16.744  0.00  0.00    +0.000 A 
ATOM      9  N   UNL     1      50.255   7.894  16.559  0.00  0.00    +0.000 N 
ATOM     10  C   UNL     1      49.007   5.826  17.033  0.00  0.00    +0.000 A 
ATOM     11  H   UNL     1      51.222   8.081  16.293  0.00  0.00    +0.000 HD
BRANCH   4  13
ATOM     12  F   UNL     1      47.371   2.875  16.775  0.00  0.00    +0.000 F 
ATOM     13  C   UNL     1      47.829   3.705  17.753  0.00  0.00    +0.000 C 
ATOM     14  F   UNL     1      46.789   4.526  18.063  0.00  0.00    +0.000 F 
ATOM     15  F   UNL     1      48.022   2.917  18.847  0.00  0.00    +0.000 F 
ENDBRANCH   4  13
ENDBRANCH   1   9
BRANCH   1  16
ATOM     16  C   UNL     1      49.074   8.358  14.393  0.00  0.00    +0.000 A 
ATOM     17  C   UNL     1      50.113   8.535  13.470  0.00  0.00    +0.000 A 
ATOM     18  C   UNL     1      50.039   7.969  12.204  0.00  0.00    +0.000 A 
ATOM     19  C   UNL     1      48.923   7.220  11.839  0.00  0.00    +0.000 A 
ATOM     20  C   UNL     1      47.815   7.088  12.699  0.00  0.00    +0.000 A 
ATOM     21  C   UNL     1      47.902   7.719  13.949  0.00  0.00    +0.000 A 
BRANCH  20  22
ATOM     22  C   UNL     1      46.664   6.237  12.348  0.00  0.00    +0.000 A 
ATOM     23  N   UNL     1      46.040   5.595  13.349  0.00  0.00    +0.000 NA
ATOM     24  C   UNL     1      44.933   4.889  13.023  0.00  0.00    +0.000 A 
ATOM     25  C   UNL     1      44.437   4.813  11.748  0.00  0.00    +0.000 A 
ATOM     26  C   UNL     1      45.142   5.495  10.793  0.00  0.00    +0.000 A 
ATOM     27  N   UNL     1      46.249   6.221  11.061  0.00  0.00    +0.000 NA
ENDBRANCH  20  22
ENDBRANCH   1  16
TORSDOF 4
ENDMDL
MODEL 9
REMARK VINA RESULT:    -6.180      4.937      8.738
REMARK INTER + INTRA:          -8.190
REMARK INTER:                  -8.038
REMARK INTRA:                  -0.151
REMARK UNBOUND:                -0.565
REMARK  Name = 
REMARK  4 active torsions:
REMARK  status: ('A' for Active; 'I' for Inactive)
REMARK    1  A    between atoms: C_2  and  C_5
REMARK    2  A    between atoms: N_10  and  C_11
REMARK    3  A    between atoms: C_11  and  C_12
REMARK    4  A    between atoms: C_16  and  C_17
REMARK                            x       y       z     vdW  Elec       q    Type
REMARK                         _______ _______ _______ _____ _____    ______ ____
ROOT
ATOM      1  C   UNL     1      48.364   3.992  16.942  0.00  0.00    +0.000 C 
ATOM      2  C   UNL     1      47.281   3.086  17.542  0.00  0.00    +0.000 C 
ATOM      3  C   UNL     1      48.328   2.496  16.661  0.00  0.00    +0.000 C 
ENDROOT
BRANCH   1   9
ATOM      4  C   UNL     1      52.631   2.905  17.912  0.00  0.00    +0.000 A 
ATOM      5  C   UNL     1      53.385   4.000  18.297  0.00  0.00    +0.000 A 
ATOM      6  N   UNL     1      52.839   5.215  18.447  0.00  0.00    +0.000 NA
ATOM      7  N   UNL     1      51.489   5.379  18.261  0.00  0.00    +0.000 NA
ATOM      8  C   UNL     1      50.695   4.345  17.901  0.00  0.00    +0.000 A 
ATOM      9  N   UNL     1      49.316   4.602  17.878  0.00  0.00    +0.000 N 
ATOM     10  C   UNL     1      51.255   3.096  17.698  0.00  0.00    +0.000 A 
ATOM     11  H   UNL     1      49.223   5.612  17.987  0.00  0.00    +0.000 HD
BRANCH   4  13
ATOM     12  F   UNL     1      52.390   0.573  17.445  0.00  0.00    +0.000 F 
ATOM     13  C   UNL     1      53.267   1.564  17.769  0.00  0.00    +0.000 C 
ATOM     14  F   UNL     1      53.884   1.158  18.912  0.00  0.00    +0.000 F 
ATOM     15  F   UNL     1      54.225   1.541  16.800  0.00  0.00    +0.000 F 
ENDBRANCH   4  13
ENDBRANCH   1   9
BRANCH   1  16
ATOM     16  C   UNL     1      47.884   4.916  15.840  0.00  0.00    +0.000 A 
ATOM     17  C   UNL     1      48.559   6.106  15.542  0.00  0.00    +0.000 A 
ATOM     18  C   UNL     1      48.285   6.803  14.372  0.00  0.00    +0.000 A 
ATOM     19  C   UNL     1      47.327   6.321  13.483  0.00  0.00    +0.000 A 
ATOM     20  C   UNL     1      46.560   5.177  13.779  0.00  0.00    +0.000 A 
ATOM     21  C   UNL     1      46.827   4.531  14.995  0.00  0.00    +0.000 A 
BRANCH  20  22
ATOM     22  C   UNL     1      45.599   4.622  12.810  0.00  0.00    +0.000 A 
ATOM     23  N   UNL     1      45.651   5.084  11.550  0.00  0.00    +0.000 NA
ATOM     24  C   UNL     1      44.822   4.503  10.653  0.00  0.00    +0.000 A 
ATOM     25  C   UNL     1      43.962   3.485  10.972  0.00  0.00    +0.000 A 
ATOM     26  C   UNL     1      43.975   3.082  12.281  0.00  0.00    +0.000 A 
ATOM     27  N   UNL     1      44.785   3.621  13.218  0.00  0.00    +0.000 NA
ENDBRANCH  20  22
ENDBRANCH   1  16
TORSDOF 4
ENDMDL
