MODEL 1
REMARK VINA RESULT:    -8.580      0.000      0.000
REMARK INTER + INTRA:         -13.095
REMARK INTER:                 -12.091
REMARK INTRA:                  -1.004
REMARK UNBOUND:                -1.004
REMARK  Name = 
REMARK  7 active torsions:
REMARK  status: ('A' for Active; 'I' for Inactive)
REMARK    1  A    between atoms: C_2  and  C_20
REMARK    2  A    between atoms: N_3  and  C_4
REMARK    3  A    between atoms: C_4  and  C_5
REMARK    4  A    between atoms: C_10  and  C_11
REMARK    5  A    between atoms: C_11  and  N_12
REMARK    6  A    between atoms: N_12  and  C_13
REMARK    7  A    between atoms: C_13  and  C_14
REMARK                            x       y       z     vdW  Elec       q    Type
REMARK                         _______ _______ _______ _____ _____    ______ ____
ROOT
ATOM      1  C   UNL     1      46.786   4.125  14.575  0.00  0.00    +0.000 C 
ENDROOT
BRANCH   1   2
ATOM      2  C   UNL     1      46.683   5.092  13.416  0.00  0.00    +0.000 A 
ATOM      3  C   UNL     1      47.609   6.156  13.385  0.00  0.00    +0.000 A 
ATOM      4  C   UNL     1      47.621   7.081  12.342  0.00  0.00    +0.000 A 
ATOM      5  C   UNL     1      46.723   6.949  11.292  0.00  0.00    +0.000 A 
ATOM      6  C   UNL     1      45.808   5.897  11.296  0.00  0.00    +0.000 A 
ATOM      7  C   UNL     1      45.758   4.963  12.354  0.00  0.00    +0.000 A 
BRANCH   7   8
ATOM      8  C   UNL     1      44.686   3.888  12.281  0.00  0.00    +0.000 C 
BRANCH   8   9
ATOM      9  N   UNL     1      45.005   2.748  11.413  0.00  0.00    +0.000 NA
ATOM     10  H   UNL     1      44.798   1.880  11.902  0.00  0.00    +0.000 HD
BRANCH   9  11
ATOM     11  C   UNL     1      44.292   2.753  10.135  0.00  0.00    +0.000 C 
BRANCH  11  12
ATOM     12  C   UNL     1      45.218   2.810   8.944  0.00  0.00    +0.000 A 
ATOM     13  C   UNL     1      45.936   1.694   8.502  0.00  0.00    +0.000 A 
ATOM     14  C   UNL     1      46.874   1.830   7.477  0.00  0.00    +0.000 A 
ATOM     15  C   UNL     1      47.063   3.083   6.922  0.00  0.00    +0.000 A 
ATOM     16  N   UNL     1      46.366   4.178   7.293  0.00  0.00    +0.000 NA
ATOM     17  C   UNL     1      45.462   4.015   8.286  0.00  0.00    +0.000 A 
ENDBRANCH  11  12
ENDBRANCH   9  11
ENDBRANCH   8   9
ENDBRANCH   7   8
ENDBRANCH   1   2
BRANCH   1  20
ATOM     18  O   UNL     1      46.504   3.168  17.167  0.00  0.00    +0.000 OA
ATOM     19  C   UNL     1      47.173   4.182  16.995  0.00  0.00    +0.000 C 
ATOM     20  N   UNL     1      47.319   4.762  15.757  0.00  0.00    +0.000 N 
ATOM     21  H   UNL     1      48.000   5.503  15.627  0.00  0.00    +0.000 HD
BRANCH  19  22
ATOM     22  C   UNL     1      47.832   4.849  18.118  0.00  0.00    +0.000 A 
ATOM     23  C   UNL     1      47.127   5.713  18.944  0.00  0.00    +0.000 A 
ATOM     24  S   UNL     1      48.052   6.334  20.237  0.00  0.00    +0.000 S 
ATOM     25  C   UNL     1      49.422   5.450  19.748  0.00  0.00    +0.000 A 
ATOM     26  N   UNL     1      50.577   5.488  20.473  0.00  0.00    +0.000 NA
ATOM     27  C   UNL     1      51.522   4.742  20.008  0.00  0.00    +0.000 A 
ATOM     28  N   UNL     1      51.427   3.977  18.873  0.00  0.00    +0.000 N 
ATOM     29  C   UNL     1      50.308   3.959  18.072  0.00  0.00    +0.000 A 
ATOM     30  O   UNL     1      50.295   3.363  17.002  0.00  0.00    +0.000 OA
ATOM     31  C   UNL     1      49.196   4.737  18.592  0.00  0.00    +0.000 A 
ATOM     32  H   UNL     1      52.219   3.446  18.538  0.00  0.00    +0.000 HD
ENDBRANCH  19  22
ENDBRANCH   1  20
TORSDOF 7
ENDMDL
MODEL 2
REMARK VINA RESULT:    -8.434      2.112      2.448
REMARK INTER + INTRA:         -12.889
REMARK INTER:                 -11.550
REMARK INTRA:                  -1.339
REMARK UNBOUND:                -1.004
REMARK  Name = 
REMARK  7 active torsions:
REMARK  status: ('A' for Active; 'I' for Inactive)
REMARK    1  A    between atoms: C_2  and  C_20
REMARK    2  A    between atoms: N_3  and  C_4
REMARK    3  A    between atoms: C_4  and  C_5
REMARK    4  A    between atoms: C_10  and  C_11
REMARK    5  A    between atoms: C_11  and  N_12
REMARK    6  A    between atoms: N_12  and  C_13
REMARK    7  A    between atoms: C_13  and  C_14
REMARK                            x       y       z     vdW  Elec       q    Type
REMARK                         _______ _______ _______ _____ _____    ______ ____
ROOT
ATOM      1  C   UNL     1      45.857   5.069  13.110  0.00  0.00    +0.000 C 
ENDROOT
BRANCH   1   2
ATOM      2  C   UNL     1      45.509   6.454  12.614  0.00  0.00    +0.000 A 
ATOM      3  C   UNL     1      46.398   7.498  12.950  0.00  0.00    +0.000 A 
ATOM      4  C   UNL     1      46.186   8.805  12.511  0.00  0.00    +0.000 A 
ATOM      5  C   UNL     1      45.094   9.094  11.705  0.00  0.00    +0.000 A 
ATOM      6  C   UNL     1      44.211   8.075  11.350  0.00  0.00    +0.000 A 
ATOM      7  C   UNL     1      44.388   6.750  11.803  0.00  0.00    +0.000 A 
BRANCH   7   8
ATOM      8  C   UNL     1      43.336   5.732  11.398  0.00  0.00    +0.000 C 
BRANCH   8   9
ATOM      9  N   UNL     1      43.563   5.082  10.101  0.00  0.00    +0.000 NA
ATOM     10  H   UNL     1      44.287   5.584   9.591  0.00  0.00    +0.000 HD
BRANCH   9  11
ATOM     11  C   UNL     1      43.944   3.672  10.199  0.00  0.00    +0.000 C 
BRANCH  11  12
ATOM     12  C   UNL     1      45.016   3.281   9.210  0.00  0.00    +0.000 A 
ATOM     13  C   UNL     1      45.633   4.214   8.370  0.00  0.00    +0.000 A 
ATOM     14  C   UNL     1      46.525   3.782   7.386  0.00  0.00    +0.000 A 
ATOM     15  C   UNL     1      46.775   2.426   7.276  0.00  0.00    +0.000 A 
ATOM     16  N   UNL     1      46.232   1.497   8.091  0.00  0.00    +0.000 NA
ATOM     17  C   UNL     1      45.373   1.945   9.036  0.00  0.00    +0.000 A 
ENDBRANCH  11  12
ENDBRANCH   9  11
ENDBRANCH   8   9
ENDBRANCH   7   8
ENDBRANCH   1   2
BRANCH   1  20
ATOM     18  O   UNL     1      47.368   3.047  14.270  0.00  0.00    +0.000 OA
ATOM     19  C   UNL     1      47.181   4.072  14.917  0.00  0.00    +0.000 C 
ATOM     20  N   UNL     1      46.397   5.100  14.449  0.00  0.00    +0.000 N 
ATOM     21  H   UNL     1      46.392   5.990  14.939  0.00  0.00    +0.000 HD
BRANCH  19  22
ATOM     22  C   UNL     1      47.765   4.240  16.248  0.00  0.00    +0.000 A 
ATOM     23  C   UNL     1      47.419   3.389  17.288  0.00  0.00    +0.000 A 
ATOM     24  S   UNL     1      48.260   3.703  18.740  0.00  0.00    +0.000 S 
ATOM     25  C   UNL     1      49.132   4.975  18.020  0.00  0.00    +0.000 A 
ATOM     26  N   UNL     1      50.088   5.653  18.717  0.00  0.00    +0.000 NA
ATOM     27  C   UNL     1      50.695   6.567  18.037  0.00  0.00    +0.000 A 
ATOM     28  N   UNL     1      50.421   6.879  16.729  0.00  0.00    +0.000 N 
ATOM     29  C   UNL     1      49.421   6.270  16.006  0.00  0.00    +0.000 A 
ATOM     30  O   UNL     1      49.119   6.654  14.882  0.00  0.00    +0.000 OA
ATOM     31  C   UNL     1      48.752   5.191  16.714  0.00  0.00    +0.000 A 
ATOM     32  H   UNL     1      50.905   7.636  16.265  0.00  0.00    +0.000 HD
ENDBRANCH  19  22
ENDBRANCH   1  20
TORSDOF 7
ENDMDL
MODEL 3
REMARK VINA RESULT:    -8.370      2.155      2.977
REMARK INTER + INTRA:         -12.799
REMARK INTER:                 -11.822
REMARK INTRA:                  -0.977
REMARK UNBOUND:                -1.004
REMARK  Name = 
REMARK  7 active torsions:
REMARK  status: ('A' for Active; 'I' for Inactive)
REMARK    1  A    between atoms: C_2  and  C_20
REMARK    2  A    between atoms: N_3  and  C_4
REMARK    3  A    between atoms: C_4  and  C_5
REMARK    4  A    between atoms: C_10  and  C_11
REMARK    5  A    between atoms: C_11  and  N_12
REMARK    6  A    between atoms: N_12  and  C_13
REMARK    7  A    between atoms: C_13  and  C_14
REMARK                            x       y       z     vdW  Elec       q    Type
REMARK                         _______ _______ _______ _____ _____    ______ ____
ROOT
ATOM      1  C   UNL     1      46.258   4.236  12.929  0.00  0.00    +0.000 C 
ENDROOT
BRANCH   1   2
ATOM      2  C   UNL     1      44.933   4.767  12.430  0.00  0.00    +0.000 A 
ATOM      3  C   UNL     1      43.808   4.561  13.256  0.00  0.00    +0.000 A 
ATOM      4  C   UNL     1      42.547   5.042  12.904  0.00  0.00    +0.000 A 
ATOM      5  C   UNL     1      42.388   5.763  11.729  0.00  0.00    +0.000 A 
ATOM      6  C   UNL     1      43.489   5.991  10.906  0.00  0.00    +0.000 A 
ATOM      7  C   UNL     1      44.770   5.491  11.226  0.00  0.00    +0.000 A 
BRANCH   7   8
ATOM      8  C   UNL     1      45.887   5.754  10.230  0.00  0.00    +0.000 C 
BRANCH   8   9
ATOM      9  N   UNL     1      45.620   5.303   8.859  0.00  0.00    +0.000 NA
ATOM     10  H   UNL     1      46.487   5.298   8.327  0.00  0.00    +0.000 HD
BRANCH   9  11
ATOM     11  C   UNL     1      45.006   3.977   8.777  0.00  0.00    +0.000 C 
BRANCH  11  12
ATOM     12  C   UNL     1      45.906   2.950   8.134  0.00  0.00    +0.000 A 
ATOM     13  C   UNL     1      46.766   3.266   7.077  0.00  0.00    +0.000 A 
ATOM     14  C   UNL     1      47.482   2.255   6.434  0.00  0.00    +0.000 A 
ATOM     15  C   UNL     1      47.318   0.953   6.874  0.00  0.00    +0.000 A 
ATOM     16  N   UNL     1      46.530   0.609   7.914  0.00  0.00    +0.000 NA
ATOM     17  C   UNL     1      45.850   1.611   8.519  0.00  0.00    +0.000 A 
ENDBRANCH  11  12
ENDBRANCH   9  11
ENDBRANCH   8   9
ENDBRANCH   7   8
ENDBRANCH   1   2
BRANCH   1  20
ATOM     18  O   UNL     1      47.682   2.915  14.915  0.00  0.00    +0.000 OA
ATOM     19  C   UNL     1      47.368   4.084  15.111  0.00  0.00    +0.000 C 
ATOM     20  N   UNL     1      46.612   4.799  14.212  0.00  0.00    +0.000 N 
ATOM     21  H   UNL     1      46.504   5.802  14.332  0.00  0.00    +0.000 HD
BRANCH  19  22
ATOM     22  C   UNL     1      47.760   4.775  16.339  0.00  0.00    +0.000 A 
ATOM     23  C   UNL     1      47.314   4.333  17.577  0.00  0.00    +0.000 A 
ATOM     24  S   UNL     1      47.938   5.225  18.891  0.00  0.00    +0.000 S 
ATOM     25  C   UNL     1      48.844   6.221  17.849  0.00  0.00    +0.000 A 
ATOM     26  N   UNL     1      49.668   7.188  18.345  0.00  0.00    +0.000 NA
ATOM     27  C   UNL     1      50.323   7.843  17.445  0.00  0.00    +0.000 A 
ATOM     28  N   UNL     1      50.214   7.633  16.093  0.00  0.00    +0.000 N 
ATOM     29  C   UNL     1      49.347   6.717  15.543  0.00  0.00    +0.000 A 
ATOM     30  O   UNL     1      49.182   6.638  14.332  0.00  0.00    +0.000 OA
ATOM     31  C   UNL     1      48.635   5.914  16.523  0.00  0.00    +0.000 A 
ATOM     32  H   UNL     1      50.723   8.209  15.437  0.00  0.00    +0.000 HD
ENDBRANCH  19  22
ENDBRANCH   1  20
TORSDOF 7
ENDMDL
MODEL 4
REMARK VINA RESULT:    -7.755      3.316      8.248
REMARK INTER + INTRA:         -11.933
REMARK INTER:                 -10.438
REMARK INTRA:                  -1.495
REMARK UNBOUND:                -1.004
REMARK  Name = 
REMARK  7 active torsions:
REMARK  status: ('A' for Active; 'I' for Inactive)
REMARK    1  A    between atoms: C_2  and  C_20
REMARK    2  A    between atoms: N_3  and  C_4
REMARK    3  A    between atoms: C_4  and  C_5
REMARK    4  A    between atoms: C_10  and  C_11
REMARK    5  A    between atoms: C_11  and  N_12
REMARK    6  A    between atoms: N_12  and  C_13
REMARK    7  A    between atoms: C_13  and  C_14
REMARK                            x       y       z     vdW  Elec       q    Type
REMARK                         _______ _______ _______ _____ _____    ______ ____
ROOT
ATOM      1  C   UNL     1      48.966   6.663  15.600  0.00  0.00    +0.000 C 
ENDROOT
BRANCH   1   2
ATOM      2  C   UNL     1      48.682   6.500  17.076  0.00  0.00    +0.000 A 
ATOM      3  C   UNL     1      49.161   7.511  17.937  0.00  0.00    +0.000 A 
ATOM      4  C   UNL     1      48.922   7.473  19.310  0.00  0.00    +0.000 A 
ATOM      5  C   UNL     1      48.176   6.437  19.851  0.00  0.00    +0.000 A 
ATOM      6  C   UNL     1      47.681   5.435  19.017  0.00  0.00    +0.000 A 
ATOM      7  C   UNL     1      47.932   5.436  17.628  0.00  0.00    +0.000 A 
BRANCH   7   8
ATOM      8  C   UNL     1      47.388   4.268  16.824  0.00  0.00    +0.000 C 
BRANCH   8   9
ATOM      9  N   UNL     1      48.402   3.451  16.146  0.00  0.00    +0.000 NA
ATOM     10  H   UNL     1      49.207   4.029  15.915  0.00  0.00    +0.000 HD
BRANCH   9  11
ATOM     11  C   UNL     1      48.855   2.297  16.924  0.00  0.00    +0.000 C 
BRANCH  11  12
ATOM     12  C   UNL     1      50.299   2.406  17.353  0.00  0.00    +0.000 A 
ATOM     13  C   UNL     1      50.879   3.624  17.720  0.00  0.00    +0.000 A 
ATOM     14  C   UNL     1      52.249   3.692  17.985  0.00  0.00    +0.000 A 
ATOM     15  C   UNL     1      52.996   2.533  17.878  0.00  0.00    +0.000 A 
ATOM     16  N   UNL     1      52.470   1.330  17.564  0.00  0.00    +0.000 NA
ATOM     17  C   UNL     1      51.140   1.294  17.315  0.00  0.00    +0.000 A 
ENDBRANCH  11  12
ENDBRANCH   9  11
ENDBRANCH   8   9
ENDBRANCH   7   8
ENDBRANCH   1   2
BRANCH   1  20
ATOM     18  O   UNL     1      48.841   6.143  12.874  0.00  0.00    +0.000 OA
ATOM     19  C   UNL     1      47.787   6.313  13.478  0.00  0.00    +0.000 C 
ATOM     20  N   UNL     1      47.754   6.635  14.815  0.00  0.00    +0.000 N 
ATOM     21  H   UNL     1      46.870   6.616  15.313  0.00  0.00    +0.000 HD
BRANCH  19  22
ATOM     22  C   UNL     1      46.500   6.213  12.791  0.00  0.00    +0.000 A 
ATOM     23  C   UNL     1      45.901   7.335  12.236  0.00  0.00    +0.000 A 
ATOM     24  S   UNL     1      44.441   6.999  11.417  0.00  0.00    +0.000 S 
ATOM     25  C   UNL     1      44.572   5.337  11.759  0.00  0.00    +0.000 A 
ATOM     26  N   UNL     1      43.651   4.449  11.287  0.00  0.00    +0.000 NA
ATOM     27  C   UNL     1      43.894   3.218  11.591  0.00  0.00    +0.000 A 
ATOM     28  N   UNL     1      44.962   2.795  12.341  0.00  0.00    +0.000 N 
ATOM     29  C   UNL     1      45.878   3.658  12.896  0.00  0.00    +0.000 A 
ATOM     30  O   UNL     1      46.749   3.263  13.661  0.00  0.00    +0.000 OA
ATOM     31  C   UNL     1      45.678   5.050  12.528  0.00  0.00    +0.000 A 
ATOM     32  H   UNL     1      45.073   1.819  12.580  0.00  0.00    +0.000 HD
ENDBRANCH  19  22
ENDBRANCH   1  20
TORSDOF 7
ENDMDL
MODEL 5
REMARK VINA RESULT:    -7.491      3.524      8.042
REMARK INTER + INTRA:         -11.560
REMARK INTER:                  -9.882
REMARK INTRA:                  -1.678
REMARK UNBOUND:                -1.004
REMARK  Name = 
REMARK  7 active torsions:
REMARK  status: ('A' for Active; 'I' for Inactive)
REMARK    1  A    between atoms: C_2  and  C_20
REMARK    2  A    between atoms: N_3  and  C_4
REMARK    3  A    between atoms: C_4  and  C_5
REMARK    4  A    between atoms: C_10  and  C_11
REMARK    5  A    between atoms: C_11  and  N_12
REMARK    6  A    between atoms: N_12  and  C_13
REMARK    7  A    between atoms: C_13  and  C_14
REMARK                            x       y       z     vdW  Elec       q    Type
REMARK                         _______ _______ _______ _____ _____    ______ ____
ROOT
ATOM      1  C   UNL     1      47.091   3.283  16.836  0.00  0.00    +0.000 C 
ENDROOT
BRANCH   1   2
ATOM      2  C   UNL     1      48.549   3.306  17.237  0.00  0.00    +0.000 A 
ATOM      3  C   UNL     1      49.343   2.212  16.831  0.00  0.00    +0.000 A 
ATOM      4  C   UNL     1      50.706   2.154  17.119  0.00  0.00    +0.000 A 
ATOM      5  C   UNL     1      51.313   3.201  17.799  0.00  0.00    +0.000 A 
ATOM      6  C   UNL     1      50.550   4.297  18.198  0.00  0.00    +0.000 A 
ATOM      7  C   UNL     1      49.163   4.367  17.942  0.00  0.00    +0.000 A 
BRANCH   7   8
ATOM      8  C   UNL     1      48.421   5.585  18.469  0.00  0.00    +0.000 C 
BRANCH   8   9
ATOM      9  N   UNL     1      48.039   6.571  17.451  0.00  0.00    +0.000 NA
ATOM     10  H   UNL     1      47.049   6.786  17.539  0.00  0.00    +0.000 HD
BRANCH   9  11
ATOM     11  C   UNL     1      48.802   7.818  17.514  0.00  0.00    +0.000 C 
BRANCH  11  12
ATOM     12  C   UNL     1      49.245   8.308  16.157  0.00  0.00    +0.000 A 
ATOM     13  C   UNL     1      48.662   9.416  15.534  0.00  0.00    +0.000 A 
ATOM     14  C   UNL     1      49.019   9.749  14.227  0.00  0.00    +0.000 A 
ATOM     15  C   UNL     1      49.956   8.963  13.581  0.00  0.00    +0.000 A 
ATOM     16  N   UNL     1      50.572   7.909  14.158  0.00  0.00    +0.000 NA
ATOM     17  C   UNL     1      50.207   7.611  15.426  0.00  0.00    +0.000 A 
ENDBRANCH  11  12
ENDBRANCH   9  11
ENDBRANCH   8   9
ENDBRANCH   7   8
ENDBRANCH   1   2
BRANCH   1  20
ATOM     18  O   UNL     1      47.272   3.122  14.069  0.00  0.00    +0.000 OA
ATOM     19  C   UNL     1      46.840   4.159  14.560  0.00  0.00    +0.000 C 
ATOM     20  N   UNL     1      46.771   4.353  15.920  0.00  0.00    +0.000 N 
ATOM     21  H   UNL     1      46.268   5.154  16.288  0.00  0.00    +0.000 HD
BRANCH  19  22
ATOM     22  C   UNL     1      46.401   5.269  13.713  0.00  0.00    +0.000 A 
ATOM     23  C   UNL     1      47.230   6.356  13.480  0.00  0.00    +0.000 A 
ATOM     24  S   UNL     1      46.567   7.508  12.409  0.00  0.00    +0.000 S 
ATOM     25  C   UNL     1      45.155   6.580  12.205  0.00  0.00    +0.000 A 
ATOM     26  N   UNL     1      44.170   6.980  11.351  0.00  0.00    +0.000 NA
ATOM     27  C   UNL     1      43.174   6.163  11.266  0.00  0.00    +0.000 A 
ATOM     28  N   UNL     1      43.063   4.992  11.973  0.00  0.00    +0.000 N 
ATOM     29  C   UNL     1      43.997   4.580  12.896  0.00  0.00    +0.000 A 
ATOM     30  O   UNL     1      43.811   3.594  13.599  0.00  0.00    +0.000 OA
ATOM     31  C   UNL     1      45.166   5.440  12.978  0.00  0.00    +0.000 A 
ATOM     32  H   UNL     1      42.236   4.415  11.892  0.00  0.00    +0.000 HD
ENDBRANCH  19  22
ENDBRANCH   1  20
TORSDOF 7
ENDMDL
MODEL 6
REMARK VINA RESULT:    -7.302      1.911      2.380
REMARK INTER + INTRA:         -11.294
REMARK INTER:                 -10.476
REMARK INTRA:                  -0.818
REMARK UNBOUND:                -1.004
REMARK  Name = 
REMARK  7 active torsions:
REMARK  status: ('A' for Active; 'I' for Inactive)
REMARK    1  A    between atoms: C_2  and  C_20
REMARK    2  A    between atoms: N_3  and  C_4
REMARK    3  A    between atoms: C_4  and  C_5
REMARK    4  A    between atoms: C_10  and  C_11
REMARK    5  A    between atoms: C_11  and  N_12
REMARK    6  A    between atoms: N_12  and  C_13
REMARK    7  A    between atoms: C_13  and  C_14
REMARK                            x       y       z     vdW  Elec       q    Type
REMARK                         _______ _______ _______ _____ _____    ______ ____
ROOT
ATOM      1  C   UNL     1      47.836   6.294  13.332  0.00  0.00    +0.000 C 
ENDROOT
BRANCH   1   2
ATOM      2  C   UNL     1      46.653   7.019  12.730  0.00  0.00    +0.000 A 
ATOM      3  C   UNL     1      46.514   8.388  13.043  0.00  0.00    +0.000 A 
ATOM      4  C   UNL     1      45.478   9.155  12.512  0.00  0.00    +0.000 A 
ATOM      5  C   UNL     1      44.572   8.577  11.635  0.00  0.00    +0.000 A 
ATOM      6  C   UNL     1      44.698   7.230  11.302  0.00  0.00    +0.000 A 
ATOM      7  C   UNL     1      45.722   6.424  11.848  0.00  0.00    +0.000 A 
BRANCH   7   8
ATOM      8  C   UNL     1      45.734   4.957  11.456  0.00  0.00    +0.000 C 
BRANCH   8   9
ATOM      9  N   UNL     1      44.422   4.390  11.120  0.00  0.00    +0.000 NA
ATOM     10  H   UNL     1      43.690   4.934  11.571  0.00  0.00    +0.000 HD
BRANCH   9  11
ATOM     11  C   UNL     1      44.149   4.329   9.684  0.00  0.00    +0.000 C 
BRANCH  11  12
ATOM     12  C   UNL     1      45.151   3.489   8.928  0.00  0.00    +0.000 A 
ATOM     13  C   UNL     1      45.968   4.022   7.926  0.00  0.00    +0.000 A 
ATOM     14  C   UNL     1      46.785   3.179   7.171  0.00  0.00    +0.000 A 
ATOM     15  C   UNL     1      46.762   1.823   7.447  0.00  0.00    +0.000 A 
ATOM     16  N   UNL     1      46.018   1.273   8.429  0.00  0.00    +0.000 NA
ATOM     17  C   UNL     1      45.238   2.115   9.146  0.00  0.00    +0.000 A 
ENDBRANCH  11  12
ENDBRANCH   9  11
ENDBRANCH   8   9
ENDBRANCH   7   8
ENDBRANCH   1   2
BRANCH   1  20
ATOM     18  O   UNL     1      50.054   6.847  14.910  0.00  0.00    +0.000 OA
ATOM     19  C   UNL     1      48.971   6.700  15.467  0.00  0.00    +0.000 C 
ATOM     20  N   UNL     1      47.831   6.365  14.774  0.00  0.00    +0.000 N 
ATOM     21  H   UNL     1      46.931   6.405  15.241  0.00  0.00    +0.000 HD
BRANCH  19  22
ATOM     22  C   UNL     1      48.843   6.845  16.917  0.00  0.00    +0.000 A 
ATOM     23  C   UNL     1      48.584   8.083  17.488  0.00  0.00    +0.000 A 
ATOM     24  S   UNL     1      48.398   8.033  19.184  0.00  0.00    +0.000 S 
ATOM     25  C   UNL     1      48.636   6.348  19.210  0.00  0.00    +0.000 A 
ATOM     26  N   UNL     1      48.549   5.645  20.376  0.00  0.00    +0.000 NA
ATOM     27  C   UNL     1      48.715   4.372  20.243  0.00  0.00    +0.000 A 
ATOM     28  N   UNL     1      48.980   3.737  19.056  0.00  0.00    +0.000 N 
ATOM     29  C   UNL     1      49.144   4.410  17.866  0.00  0.00    +0.000 A 
ATOM     30  O   UNL     1      49.500   3.831  16.847  0.00  0.00    +0.000 OA
ATOM     31  C   UNL     1      48.905   5.841  17.958  0.00  0.00    +0.000 A 
ATOM     32  H   UNL     1      49.141   2.740  19.026  0.00  0.00    +0.000 HD
ENDBRANCH  19  22
ENDBRANCH   1  20
TORSDOF 7
ENDMDL
MODEL 7
REMARK VINA RESULT:    -7.242      3.173      8.267
REMARK INTER + INTRA:         -11.210
REMARK INTER:                  -9.808
REMARK INTRA:                  -1.402
REMARK UNBOUND:                -1.004
REMARK  Name = 
REMARK  7 active torsions:
REMARK  status: ('A' for Active; 'I' for Inactive)
REMARK    1  A    between atoms: C_2  and  C_20
REMARK    2  A    between atoms: N_3  and  C_4
REMARK    3  A    between atoms: C_4  and  C_5
REMARK    4  A    between atoms: C_10  and  C_11
REMARK    5  A    between atoms: C_11  and  N_12
REMARK    6  A    between atoms: N_12  and  C_13
REMARK    7  A    between atoms: C_13  and  C_14
REMARK                            x       y       z     vdW  Elec       q    Type
REMARK                         _______ _______ _______ _____ _____    ______ ____
ROOT
ATOM      1  C   UNL     1      49.106   6.839  15.585  0.00  0.00    +0.000 C 
ENDROOT
BRANCH   1   2
ATOM      2  C   UNL     1      49.055   7.938  16.622  0.00  0.00    +0.000 A 
ATOM      3  C   UNL     1      48.132   8.983  16.404  0.00  0.00    +0.000 A 
ATOM      4  C   UNL     1      47.983  10.026  17.317  0.00  0.00    +0.000 A 
ATOM      5  C   UNL     1      48.734  10.034  18.484  0.00  0.00    +0.000 A 
ATOM      6  C   UNL     1      49.641   9.004  18.726  0.00  0.00    +0.000 A 
ATOM      7  C   UNL     1      49.832   7.952  17.804  0.00  0.00    +0.000 A 
BRANCH   7   8
ATOM      8  C   UNL     1      50.884   6.911  18.147  0.00  0.00    +0.000 C 
BRANCH   8   9
ATOM      9  N   UNL     1      50.555   6.041  19.282  0.00  0.00    +0.000 NA
ATOM     10  H   UNL     1      49.548   6.039  19.430  0.00  0.00    +0.000 HD
BRANCH   9  11
ATOM     11  C   UNL     1      51.013   4.659  19.127  0.00  0.00    +0.000 C 
BRANCH  11  12
ATOM     12  C   UNL     1      50.176   3.868  18.150  0.00  0.00    +0.000 A 
ATOM     13  C   UNL     1      48.797   4.061  18.019  0.00  0.00    +0.000 A 
ATOM     14  C   UNL     1      48.050   3.217  17.196  0.00  0.00    +0.000 A 
ATOM     15  C   UNL     1      48.710   2.204  16.523  0.00  0.00    +0.000 A 
ATOM     16  N   UNL     1      50.043   2.006  16.591  0.00  0.00    +0.000 NA
ATOM     17  C   UNL     1      50.742   2.841  17.395  0.00  0.00    +0.000 A 
ENDBRANCH  11  12
ENDBRANCH   9  11
ENDBRANCH   8   9
ENDBRANCH   7   8
ENDBRANCH   1   2
BRANCH   1  20
ATOM     18  O   UNL     1      48.898   6.115  12.911  0.00  0.00    +0.000 OA
ATOM     19  C   UNL     1      47.863   6.323  13.536  0.00  0.00    +0.000 C 
ATOM     20  N   UNL     1      47.870   6.744  14.845  0.00  0.00    +0.000 N 
ATOM     21  H   UNL     1      47.002   6.755  15.372  0.00  0.00    +0.000 HD
BRANCH  19  22
ATOM     22  C   UNL     1      46.555   6.163  12.901  0.00  0.00    +0.000 A 
ATOM     23  C   UNL     1      45.881   7.256  12.375  0.00  0.00    +0.000 A 
ATOM     24  S   UNL     1      44.407   6.853  11.614  0.00  0.00    +0.000 S 
ATOM     25  C   UNL     1      44.631   5.198  11.944  0.00  0.00    +0.000 A 
ATOM     26  N   UNL     1      43.735   4.269  11.505  0.00  0.00    +0.000 NA
ATOM     27  C   UNL     1      44.048   3.050  11.794  0.00  0.00    +0.000 A 
ATOM     28  N   UNL     1      45.164   2.676  12.499  0.00  0.00    +0.000 N 
ATOM     29  C   UNL     1      46.060   3.581  13.020  0.00  0.00    +0.000 A 
ATOM     30  O   UNL     1      46.979   3.226  13.748  0.00  0.00    +0.000 OA
ATOM     31  C   UNL     1      45.780   4.962  12.666  0.00  0.00    +0.000 A 
ATOM     32  H   UNL     1      45.331   1.706  12.729  0.00  0.00    +0.000 HD
ENDBRANCH  19  22
ENDBRANCH   1  20
TORSDOF 7
ENDMDL
MODEL 8
REMARK VINA RESULT:    -7.160      3.143      9.429
REMARK INTER + INTRA:         -11.094
REMARK INTER:                  -9.456
REMARK INTRA:                  -1.637
REMARK UNBOUND:                -1.004
REMARK  Name = 
REMARK  7 active torsions:
REMARK  status: ('A' for Active; 'I' for Inactive)
REMARK    1  A    between atoms: C_2  and  C_20
REMARK    2  A    between atoms: N_3  and  C_4
REMARK    3  A    between atoms: C_4  and  C_5
REMARK    4  A    between atoms: C_10  and  C_11
REMARK    5  A    between atoms: C_11  and  N_12
REMARK    6  A    between atoms: N_12  and  C_13
REMARK    7  A    between atoms: C_13  and  C_14
REMARK                            x       y       z     vdW  Elec       q    Type
REMARK                         _______ _______ _______ _____ _____    ______ ____
ROOT
ATOM      1  C   UNL     1      48.715   6.306  15.706  0.00  0.00    +0.000 C 
ENDROOT
BRANCH   1   2
ATOM      2  C   UNL     1      48.702   5.118  16.641  0.00  0.00    +0.000 A 
ATOM      3  C   UNL     1      47.504   4.375  16.718  0.00  0.00    +0.000 A 
ATOM      4  C   UNL     1      47.399   3.242  17.523  0.00  0.00    +0.000 A 
ATOM      5  C   UNL     1      48.497   2.810  18.252  0.00  0.00    +0.000 A 
ATOM      6  C   UNL     1      49.694   3.521  18.181  0.00  0.00    +0.000 A 
ATOM      7  C   UNL     1      49.818   4.687  17.394  0.00  0.00    +0.000 A 
BRANCH   7   8
ATOM      8  C   UNL     1      51.154   5.411  17.432  0.00  0.00    +0.000 C 
BRANCH   8   9
ATOM      9  N   UNL     1      51.573   5.877  18.759  0.00  0.00    +0.000 NA
ATOM     10  H   UNL     1      52.532   6.215  18.714  0.00  0.00    +0.000 HD
BRANCH   9  11
ATOM     11  C   UNL     1      50.725   6.932  19.315  0.00  0.00    +0.000 C 
BRANCH  11  12
ATOM     12  C   UNL     1      49.640   6.401  20.220  0.00  0.00    +0.000 A 
ATOM     13  C   UNL     1      48.288   6.698  20.019  0.00  0.00    +0.000 A 
ATOM     14  C   UNL     1      47.338   6.288  20.956  0.00  0.00    +0.000 A 
ATOM     15  C   UNL     1      47.772   5.587  22.067  0.00  0.00    +0.000 A 
ATOM     16  N   UNL     1      49.060   5.247  22.280  0.00  0.00    +0.000 NA
ATOM     17  C   UNL     1      49.958   5.655  21.354  0.00  0.00    +0.000 A 
ENDBRANCH  11  12
ENDBRANCH   9  11
ENDBRANCH   8   9
ENDBRANCH   7   8
ENDBRANCH   1   2
BRANCH   1  20
ATOM     18  O   UNL     1      48.794   6.207  12.930  0.00  0.00    +0.000 OA
ATOM     19  C   UNL     1      47.696   6.212  13.477  0.00  0.00    +0.000 C 
ATOM     20  N   UNL     1      47.558   6.319  14.841  0.00  0.00    +0.000 N 
ATOM     21  H   UNL     1      46.649   6.164  15.267  0.00  0.00    +0.000 HD
BRANCH  19  22
ATOM     22  C   UNL     1      46.463   6.134  12.694  0.00  0.00    +0.000 A 
ATOM     23  C   UNL     1      45.947   7.259  12.067  0.00  0.00    +0.000 A 
ATOM     24  S   UNL     1      44.546   6.949  11.143  0.00  0.00    +0.000 S 
ATOM     25  C   UNL     1      44.594   5.293  11.533  0.00  0.00    +0.000 A 
ATOM     26  N   UNL     1      43.684   4.423  11.010  0.00  0.00    +0.000 NA
ATOM     27  C   UNL     1      43.861   3.193  11.361  0.00  0.00    +0.000 A 
ATOM     28  N   UNL     1      44.852   2.755  12.204  0.00  0.00    +0.000 N 
ATOM     29  C   UNL     1      45.751   3.604  12.809  0.00  0.00    +0.000 A 
ATOM     30  O   UNL     1      46.545   3.201  13.649  0.00  0.00    +0.000 OA
ATOM     31  C   UNL     1      45.627   4.991  12.393  0.00  0.00    +0.000 A 
ATOM     32  H   UNL     1      44.911   1.783  12.473  0.00  0.00    +0.000 HD
ENDBRANCH  19  22
ENDBRANCH   1  20
TORSDOF 7
ENDMDL
MODEL 9
REMARK VINA RESULT:    -7.100      2.109      2.586
REMARK INTER + INTRA:         -11.009
REMARK INTER:                  -9.623
REMARK INTRA:                  -1.386
REMARK UNBOUND:                -1.004
REMARK  Name = 
REMARK  7 active torsions:
REMARK  status: ('A' for Active; 'I' for Inactive)
REMARK    1  A    between atoms: C_2  and  C_20
REMARK    2  A    between atoms: N_3  and  C_4
REMARK    3  A    between atoms: C_4  and  C_5
REMARK    4  A    between atoms: C_10  and  C_11
REMARK    5  A    between atoms: C_11  and  N_12
REMARK    6  A    between atoms: N_12  and  C_13
REMARK    7  A    between atoms: C_13  and  C_14
REMARK                            x       y       z     vdW  Elec       q    Type
REMARK                         _______ _______ _______ _____ _____    ______ ____
ROOT
ATOM      1  C   UNL     1      47.185   4.366  14.778  0.00  0.00    +0.000 C 
ENDROOT
BRANCH   1   2
ATOM      2  C   UNL     1      46.992   5.344  13.641  0.00  0.00    +0.000 A 
ATOM      3  C   UNL     1      48.090   6.167  13.310  0.00  0.00    +0.000 A 
ATOM      4  C   UNL     1      48.028   7.077  12.256  0.00  0.00    +0.000 A 
ATOM      5  C   UNL     1      46.874   7.167  11.490  0.00  0.00    +0.000 A 
ATOM      6  C   UNL     1      45.783   6.354  11.790  0.00  0.00    +0.000 A 
ATOM      7  C   UNL     1      45.811   5.444  12.870  0.00  0.00    +0.000 A 
BRANCH   7   8
ATOM      8  C   UNL     1      44.546   4.646  13.138  0.00  0.00    +0.000 C 
BRANCH   8   9
ATOM      9  N   UNL     1      44.443   3.377  12.407  0.00  0.00    +0.000 NA
ATOM     10  H   UNL     1      43.976   2.686  12.990  0.00  0.00    +0.000 HD
BRANCH   9  11
ATOM     11  C   UNL     1      43.733   3.480  11.132  0.00  0.00    +0.000 C 
BRANCH  11  12
ATOM     12  C   UNL     1      44.635   3.280   9.938  0.00  0.00    +0.000 A 
ATOM     13  C   UNL     1      45.049   4.342   9.128  0.00  0.00    +0.000 A 
ATOM     14  C   UNL     1      45.777   4.088   7.963  0.00  0.00    +0.000 A 
ATOM     15  C   UNL     1      46.073   2.774   7.647  0.00  0.00    +0.000 A 
ATOM     16  N   UNL     1      45.727   1.724   8.420  0.00  0.00    +0.000 NA
ATOM     17  C   UNL     1      45.024   2.000   9.543  0.00  0.00    +0.000 A 
ENDBRANCH  11  12
ENDBRANCH   9  11
ENDBRANCH   8   9
ENDBRANCH   7   8
ENDBRANCH   1   2
BRANCH   1  20
ATOM     18  O   UNL     1      49.221   4.154  16.656  0.00  0.00    +0.000 OA
ATOM     19  C   UNL     1      48.286   4.909  16.901  0.00  0.00    +0.000 C 
ATOM     20  N   UNL     1      47.205   5.033  16.059  0.00  0.00    +0.000 N 
ATOM     21  H   UNL     1      46.530   5.775  16.216  0.00  0.00    +0.000 HD
BRANCH  19  22
ATOM     22  C   UNL     1      48.258   5.700  18.131  0.00  0.00    +0.000 A 
ATOM     23  C   UNL     1      48.109   5.088  19.367  0.00  0.00    +0.000 A 
ATOM     24  S   UNL     1      48.174   6.173  20.683  0.00  0.00    +0.000 S 
ATOM     25  C   UNL     1      48.425   7.497  19.644  0.00  0.00    +0.000 A 
ATOM     26  N   UNL     1      48.622   8.751  20.142  0.00  0.00    +0.000 NA
ATOM     27  C   UNL     1      48.837   9.653  19.244  0.00  0.00    +0.000 A 
ATOM     28  N   UNL     1      48.854   9.420  17.891  0.00  0.00    +0.000 N 
ATOM     29  C   UNL     1      48.595   8.187  17.339  0.00  0.00    +0.000 A 
ATOM     30  O   UNL     1      48.496   8.035  16.128  0.00  0.00    +0.000 OA
ATOM     31  C   UNL     1      48.408   7.128  18.317  0.00  0.00    +0.000 A 
ATOM     32  H   UNL     1      48.987  10.179  17.237  0.00  0.00    +0.000 HD
ENDBRANCH  19  22
ENDBRANCH   1  20
TORSDOF 7
ENDMDL
