MODEL 1
REMARK VINA RESULT:    -7.316      0.000      0.000
REMARK INTER + INTRA:         -13.515
REMARK INTER:                 -11.806
REMARK INTRA:                  -1.709
REMARK UNBOUND:                -1.709
REMARK  Name = 
REMARK  11 active torsions:
REMARK  status: ('A' for Active; 'I' for Inactive)
REMARK    1  A    between atoms: N_1  and  C_2
REMARK    2  A    between atoms: C_2  and  C_3
REMARK    3  A    between atoms: C_3  and  S_4
REMARK    4  A    between atoms: S_4  and  N_7
REMARK    5  A    between atoms: N_7  and  C_8
REMARK    6  A    between atoms: C_12  and  C_13
REMARK    7  A    between atoms: C_13  and  O_14
REMARK    8  A    between atoms: O_14  and  C_15
REMARK    9  A    between atoms: C_18  and  C_19
REMARK   10  A    between atoms: C_19  and  N_20
REMARK   11  A    between atoms: C_21  and  C_23
REMARK                            x       y       z     vdW  Elec       q    Type
REMARK                         _______ _______ _______ _____ _____    ______ ____
ROOT
ATOM      1  C   UNL     1      50.036   8.304  15.706  0.00  0.00    +0.000 A 
ATOM      2  C   UNL     1      49.863   7.050  15.132  0.00  0.00    +0.000 A 
ATOM      3  N   UNL     1      49.285   6.873  13.914  0.00  0.00    +0.000 NA
ATOM      4  C   UNL     1      48.856   8.008  13.296  0.00  0.00    +0.000 A 
ATOM      5  C   UNL     1      49.034   9.257  13.885  0.00  0.00    +0.000 A 
ATOM      6  N   UNL     1      49.614   9.429  15.097  0.00  0.00    +0.000 NA
ENDROOT
BRANCH   1   7
ATOM      7  O   UNL     1      50.565   8.374  16.975  0.00  0.00    +0.000 OA
BRANCH   7   8
ATOM      8  C   UNL     1      49.705   9.035  17.905  0.00  0.00    +0.000 C 
BRANCH   8  13
ATOM      9  C   UNL     1      47.540   6.102  19.017  0.00  0.00    +0.000 A 
ATOM     10  C   UNL     1      47.878   5.986  20.362  0.00  0.00    +0.000 A 
ATOM     11  C   UNL     1      48.769   6.899  20.924  0.00  0.00    +0.000 A 
ATOM     12  C   UNL     1      49.330   7.907  20.136  0.00  0.00    +0.000 A 
ATOM     13  C   UNL     1      49.005   8.016  18.775  0.00  0.00    +0.000 A 
ATOM     14  C   UNL     1      48.092   7.109  18.223  0.00  0.00    +0.000 A 
BRANCH   9  15
ATOM     15  N   UNL     1      46.701   5.145  18.397  0.00  0.00    +0.000 N 
ATOM     16  H   UNL     1      45.736   5.424  18.254  0.00  0.00    +0.000 HD
BRANCH  15  17
ATOM     17  S   UNL     1      47.373   3.969  17.409  0.00  0.00    +0.000 S 
ATOM     18  O   UNL     1      47.660   4.604  16.139  0.00  0.00    +0.000 OA
ATOM     19  O   UNL     1      46.582   2.760  17.475  0.00  0.00    +0.000 OA
BRANCH  17  20
ATOM     20  C   UNL     1      48.944   3.628  18.201  0.00  0.00    +0.000 C 
BRANCH  20  21
ATOM     21  C   UNL     1      49.859   2.796  17.316  0.00  0.00    +0.000 C 
BRANCH  21  22
ATOM     22  N   UNL     1      49.115   2.093  16.269  0.00  0.00    +0.000 NA
ATOM     23  H   UNL     1      49.678   2.070  15.416  0.00  0.00    +0.000 HD
ATOM     24  H   UNL     1      48.278   2.624  16.025  0.00  0.00    +0.000 HD
ENDBRANCH  21  22
ENDBRANCH  20  21
ENDBRANCH  17  20
ENDBRANCH  15  17
ENDBRANCH   9  15
ENDBRANCH   8  13
ENDBRANCH   7   8
ENDBRANCH   1   7
BRANCH   4  25
ATOM     25  C   UNL     1      48.178   7.889  11.952  0.00  0.00    +0.000 C 
BRANCH  25  26
ATOM     26  N   UNL     1      47.320   6.727  11.848  0.00  0.00    +0.000 N 
ATOM     27  C   UNL     1      45.957   6.814  11.952  0.00  0.00    +0.000 C 
ATOM     28  O   UNL     1      45.392   7.892  12.115  0.00  0.00    +0.000 OA
ATOM     29  H   UNL     1      47.773   5.821  11.786  0.00  0.00    +0.000 HD
BRANCH  27  30
ATOM     30  C   UNL     1      45.197   5.567  11.807  0.00  0.00    +0.000 A 
ATOM     31  C   UNL     1      44.490   5.067  12.892  0.00  0.00    +0.000 A 
ATOM     32  S   UNL     1      43.670   3.611  12.563  0.00  0.00    +0.000 S 
ATOM     33  C   UNL     1      44.265   3.572  10.969  0.00  0.00    +0.000 A 
ATOM     34  N   UNL     1      43.966   2.539  10.138  0.00  0.00    +0.000 NA
ATOM     35  C   UNL     1      44.512   2.618   8.971  0.00  0.00    +0.000 A 
ATOM     36  N   UNL     1      45.320   3.646   8.556  0.00  0.00    +0.000 N 
ATOM     37  C   UNL     1      45.608   4.736   9.343  0.00  0.00    +0.000 A 
ATOM     38  O   UNL     1      46.258   5.683   8.912  0.00  0.00    +0.000 OA
ATOM     39  C   UNL     1      45.050   4.675  10.681  0.00  0.00    +0.000 A 
ATOM     40  H   UNL     1      45.696   3.658   7.619  0.00  0.00    +0.000 HD
ENDBRANCH  27  30
ENDBRANCH  25  26
ENDBRANCH   4  25
TORSDOF 11
ENDMDL
MODEL 2
REMARK VINA RESULT:    -7.314      1.850      2.396
REMARK INTER + INTRA:         -13.513
REMARK INTER:                 -11.920
REMARK INTRA:                  -1.593
REMARK UNBOUND:                -1.709
REMARK  Name = 
REMARK  11 active torsions:
REMARK  status: ('A' for Active; 'I' for Inactive)
REMARK    1  A    between atoms: N_1  and  C_2
REMARK    2  A    between atoms: C_2  and  C_3
REMARK    3  A    between atoms: C_3  and  S_4
REMARK    4  A    between atoms: S_4  and  N_7
REMARK    5  A    between atoms: N_7  and  C_8
REMARK    6  A    between atoms: C_12  and  C_13
REMARK    7  A    between atoms: C_13  and  O_14
REMARK    8  A    between atoms: O_14  and  C_15
REMARK    9  A    between atoms: C_18  and  C_19
REMARK   10  A    between atoms: C_19  and  N_20
REMARK   11  A    between atoms: C_21  and  C_23
REMARK                            x       y       z     vdW  Elec       q    Type
REMARK                         _______ _______ _______ _____ _____    ______ ____
ROOT
ATOM      1  C   UNL     1      49.905   8.120  15.400  0.00  0.00    +0.000 A 
ATOM      2  C   UNL     1      50.521   7.771  14.204  0.00  0.00    +0.000 A 
ATOM      3  N   UNL     1      49.855   7.731  13.019  0.00  0.00    +0.000 NA
ATOM      4  C   UNL     1      48.528   8.030  13.079  0.00  0.00    +0.000 A 
ATOM      5  C   UNL     1      47.925   8.376  14.285  0.00  0.00    +0.000 A 
ATOM      6  N   UNL     1      48.593   8.419  15.463  0.00  0.00    +0.000 NA
ENDROOT
BRANCH   1   7
ATOM      7  O   UNL     1      50.646   8.061  16.558  0.00  0.00    +0.000 OA
BRANCH   7   8
ATOM      8  C   UNL     1      51.853   7.311  16.413  0.00  0.00    +0.000 C 
BRANCH   8  13
ATOM      9  C   UNL     1      50.317   4.172  17.933  0.00  0.00    +0.000 A 
ATOM     10  C   UNL     1      51.435   3.365  18.122  0.00  0.00    +0.000 A 
ATOM     11  C   UNL     1      52.699   3.862  17.808  0.00  0.00    +0.000 A 
ATOM     12  C   UNL     1      52.834   5.153  17.289  0.00  0.00    +0.000 A 
ATOM     13  C   UNL     1      51.708   5.963  17.082  0.00  0.00    +0.000 A 
ATOM     14  C   UNL     1      50.445   5.464  17.421  0.00  0.00    +0.000 A 
BRANCH   9  15
ATOM     15  N   UNL     1      49.015   3.669  18.167  0.00  0.00    +0.000 N 
ATOM     16  H   UNL     1      48.566   3.973  19.025  0.00  0.00    +0.000 HD
BRANCH  15  17
ATOM     17  S   UNL     1      48.068   3.183  16.872  0.00  0.00    +0.000 S 
ATOM     18  O   UNL     1      46.783   2.792  17.415  0.00  0.00    +0.000 OA
ATOM     19  O   UNL     1      48.821   2.286  16.021  0.00  0.00    +0.000 OA
BRANCH  17  20
ATOM     20  C   UNL     1      47.821   4.707  15.962  0.00  0.00    +0.000 C 
BRANCH  20  21
ATOM     21  C   UNL     1      46.880   4.519  14.782  0.00  0.00    +0.000 C 
BRANCH  21  22
ATOM     22  N   UNL     1      47.258   3.368  13.959  0.00  0.00    +0.000 NA
ATOM     23  H   UNL     1      47.890   3.678  13.218  0.00  0.00    +0.000 HD
ATOM     24  H   UNL     1      46.436   3.003  13.476  0.00  0.00    +0.000 HD
ENDBRANCH  21  22
ENDBRANCH  20  21
ENDBRANCH  17  20
ENDBRANCH  15  17
ENDBRANCH   9  15
ENDBRANCH   8  13
ENDBRANCH   7   8
ENDBRANCH   1   7
BRANCH   4  25
ATOM     25  C   UNL     1      47.716   7.979  11.808  0.00  0.00    +0.000 C 
BRANCH  25  26
ATOM     26  N   UNL     1      46.944   6.760  11.673  0.00  0.00    +0.000 N 
ATOM     27  C   UNL     1      45.586   6.734  11.845  0.00  0.00    +0.000 C 
ATOM     28  O   UNL     1      44.949   7.754  12.099  0.00  0.00    +0.000 OA
ATOM     29  H   UNL     1      47.461   5.898  11.536  0.00  0.00    +0.000 HD
BRANCH  27  30
ATOM     30  C   UNL     1      44.916   5.442  11.660  0.00  0.00    +0.000 A 
ATOM     31  C   UNL     1      44.168   4.905  12.700  0.00  0.00    +0.000 A 
ATOM     32  S   UNL     1      43.464   3.398  12.329  0.00  0.00    +0.000 S 
ATOM     33  C   UNL     1      44.168   3.388  10.780  0.00  0.00    +0.000 A 
ATOM     34  N   UNL     1      43.992   2.334   9.941  0.00  0.00    +0.000 NA
ATOM     35  C   UNL     1      44.611   2.441   8.812  0.00  0.00    +0.000 A 
ATOM     36  N   UNL     1      45.381   3.514   8.444  0.00  0.00    +0.000 N 
ATOM     37  C   UNL     1      45.546   4.625   9.239  0.00  0.00    +0.000 A 
ATOM     38  O   UNL     1      46.165   5.608   8.844  0.00  0.00    +0.000 OA
ATOM     39  C   UNL     1      44.902   4.536  10.536  0.00  0.00    +0.000 A 
ATOM     40  H   UNL     1      45.819   3.545   7.536  0.00  0.00    +0.000 HD
ENDBRANCH  27  30
ENDBRANCH  25  26
ENDBRANCH   4  25
TORSDOF 11
ENDMDL
MODEL 3
REMARK VINA RESULT:    -7.283      3.259      9.387
REMARK INTER + INTRA:         -13.463
REMARK INTER:                 -12.198
REMARK INTRA:                  -1.265
REMARK UNBOUND:                -1.709
REMARK  Name = 
REMARK  11 active torsions:
REMARK  status: ('A' for Active; 'I' for Inactive)
REMARK    1  A    between atoms: N_1  and  C_2
REMARK    2  A    between atoms: C_2  and  C_3
REMARK    3  A    between atoms: C_3  and  S_4
REMARK    4  A    between atoms: S_4  and  N_7
REMARK    5  A    between atoms: N_7  and  C_8
REMARK    6  A    between atoms: C_12  and  C_13
REMARK    7  A    between atoms: C_13  and  O_14
REMARK    8  A    between atoms: O_14  and  C_15
REMARK    9  A    between atoms: C_18  and  C_19
REMARK   10  A    between atoms: C_19  and  N_20
REMARK   11  A    between atoms: C_21  and  C_23
REMARK                            x       y       z     vdW  Elec       q    Type
REMARK                         _______ _______ _______ _____ _____    ______ ____
ROOT
ATOM      1  C   UNL     1      47.550   5.528  14.207  0.00  0.00    +0.000 A 
ATOM      2  C   UNL     1      46.977   4.267  14.326  0.00  0.00    +0.000 A 
ATOM      3  N   UNL     1      47.109   3.503  15.445  0.00  0.00    +0.000 NA
ATOM      4  C   UNL     1      47.865   4.043  16.440  0.00  0.00    +0.000 A 
ATOM      5  C   UNL     1      48.434   5.306  16.304  0.00  0.00    +0.000 A 
ATOM      6  N   UNL     1      48.297   6.065  15.190  0.00  0.00    +0.000 NA
ENDROOT
BRANCH   1   7
ATOM      7  O   UNL     1      47.422   6.192  13.008  0.00  0.00    +0.000 OA
BRANCH   7   8
ATOM      8  C   UNL     1      46.198   6.921  12.900  0.00  0.00    +0.000 C 
BRANCH   8  13
ATOM      9  C   UNL     1      44.760   4.402  10.429  0.00  0.00    +0.000 A 
ATOM     10  C   UNL     1      43.394   4.658  10.515  0.00  0.00    +0.000 A 
ATOM     11  C   UNL     1      42.943   5.691  11.336  0.00  0.00    +0.000 A 
ATOM     12  C   UNL     1      43.855   6.445  12.079  0.00  0.00    +0.000 A 
ATOM     13  C   UNL     1      45.231   6.178  12.006  0.00  0.00    +0.000 A 
ATOM     14  C   UNL     1      45.678   5.154  11.163  0.00  0.00    +0.000 A 
BRANCH   9  15
ATOM     15  N   UNL     1      45.243   3.311   9.667  0.00  0.00    +0.000 N 
ATOM     16  H   UNL     1      44.985   2.387   9.998  0.00  0.00    +0.000 HD
BRANCH  15  17
ATOM     17  S   UNL     1      45.615   3.531   8.047  0.00  0.00    +0.000 S 
ATOM     18  O   UNL     1      46.416   4.735   7.961  0.00  0.00    +0.000 OA
ATOM     19  O   UNL     1      44.424   3.369   7.242  0.00  0.00    +0.000 OA
BRANCH  17  20
ATOM     20  C   UNL     1      46.696   2.146   7.692  0.00  0.00    +0.000 C 
BRANCH  20  21
ATOM     21  C   UNL     1      47.739   2.493   6.640  0.00  0.00    +0.000 C 
BRANCH  21  22
ATOM     22  N   UNL     1      47.163   3.259   5.532  0.00  0.00    +0.000 NA
ATOM     23  H   UNL     1      46.583   2.640   4.962  0.00  0.00    +0.000 HD
ATOM     24  H   UNL     1      47.907   3.579   4.911  0.00  0.00    +0.000 HD
ENDBRANCH  21  22
ENDBRANCH  20  21
ENDBRANCH  17  20
ENDBRANCH  15  17
ENDBRANCH   9  15
ENDBRANCH   8  13
ENDBRANCH   7   8
ENDBRANCH   1   7
BRANCH   4  25
ATOM     25  C   UNL     1      48.080   3.242  17.701  0.00  0.00    +0.000 C 
BRANCH  25  26
ATOM     26  N   UNL     1      49.477   2.987  17.984  0.00  0.00    +0.000 N 
ATOM     27  C   UNL     1      50.251   2.193  17.180  0.00  0.00    +0.000 C 
ATOM     28  O   UNL     1      49.800   1.676  16.160  0.00  0.00    +0.000 OA
ATOM     29  H   UNL     1      49.846   3.345  18.859  0.00  0.00    +0.000 HD
BRANCH  27  30
ATOM     30  C   UNL     1      51.658   2.029  17.561  0.00  0.00    +0.000 A 
ATOM     31  C   UNL     1      52.192   0.752  17.672  0.00  0.00    +0.000 A 
ATOM     32  S   UNL     1      53.833   0.734  18.131  0.00  0.00    +0.000 S 
ATOM     33  C   UNL     1      53.878   2.431  18.240  0.00  0.00    +0.000 A 
ATOM     34  N   UNL     1      55.008   3.075  18.635  0.00  0.00    +0.000 NA
ATOM     35  C   UNL     1      54.893   4.359  18.709  0.00  0.00    +0.000 A 
ATOM     36  N   UNL     1      53.751   5.057  18.410  0.00  0.00    +0.000 N 
ATOM     37  C   UNL     1      52.601   4.454  17.957  0.00  0.00    +0.000 A 
ATOM     38  O   UNL     1      51.627   5.113  17.611  0.00  0.00    +0.000 OA
ATOM     39  C   UNL     1      52.667   3.006  17.895  0.00  0.00    +0.000 A 
ATOM     40  H   UNL     1      53.736   6.065  18.466  0.00  0.00    +0.000 HD
ENDBRANCH  27  30
ENDBRANCH  25  26
ENDBRANCH   4  25
TORSDOF 11
ENDMDL
MODEL 4
REMARK VINA RESULT:    -6.890      2.884      9.177
REMARK INTER + INTRA:         -12.829
REMARK INTER:                 -11.258
REMARK INTRA:                  -1.570
REMARK UNBOUND:                -1.709
REMARK  Name = 
REMARK  11 active torsions:
REMARK  status: ('A' for Active; 'I' for Inactive)
REMARK    1  A    between atoms: N_1  and  C_2
REMARK    2  A    between atoms: C_2  and  C_3
REMARK    3  A    between atoms: C_3  and  S_4
REMARK    4  A    between atoms: S_4  and  N_7
REMARK    5  A    between atoms: N_7  and  C_8
REMARK    6  A    between atoms: C_12  and  C_13
REMARK    7  A    between atoms: C_13  and  O_14
REMARK    8  A    between atoms: O_14  and  C_15
REMARK    9  A    between atoms: C_18  and  C_19
REMARK   10  A    between atoms: C_19  and  N_20
REMARK   11  A    between atoms: C_21  and  C_23
REMARK                            x       y       z     vdW  Elec       q    Type
REMARK                         _______ _______ _______ _____ _____    ______ ____
ROOT
ATOM      1  C   UNL     1      47.359   6.849  12.708  0.00  0.00    +0.000 A 
ATOM      2  C   UNL     1      47.660   5.765  13.525  0.00  0.00    +0.000 A 
ATOM      3  N   UNL     1      48.274   5.903  14.732  0.00  0.00    +0.000 NA
ATOM      4  C   UNL     1      48.603   7.176  15.082  0.00  0.00    +0.000 A 
ATOM      5  C   UNL     1      48.297   8.251  14.252  0.00  0.00    +0.000 A 
ATOM      6  N   UNL     1      47.682   8.110  13.053  0.00  0.00    +0.000 NA
ENDROOT
BRANCH   1   7
ATOM      7  O   UNL     1      46.804   6.602  11.474  0.00  0.00    +0.000 OA
BRANCH   7   8
ATOM      8  C   UNL     1      45.377   6.553  11.502  0.00  0.00    +0.000 C 
BRANCH   8  13
ATOM      9  C   UNL     1      44.692   3.688   9.083  0.00  0.00    +0.000 A 
ATOM     10  C   UNL     1      44.194   2.704   9.933  0.00  0.00    +0.000 A 
ATOM     11  C   UNL     1      44.026   2.991  11.287  0.00  0.00    +0.000 A 
ATOM     12  C   UNL     1      44.375   4.249  11.785  0.00  0.00    +0.000 A 
ATOM     13  C   UNL     1      44.893   5.237  10.934  0.00  0.00    +0.000 A 
ATOM     14  C   UNL     1      45.038   4.949   9.572  0.00  0.00    +0.000 A 
BRANCH   9  15
ATOM     15  N   UNL     1      44.948   3.403   7.720  0.00  0.00    +0.000 N 
ATOM     16  H   UNL     1      44.327   3.842   7.049  0.00  0.00    +0.000 HD
BRANCH  15  17
ATOM     17  S   UNL     1      46.491   2.954   7.243  0.00  0.00    +0.000 S 
ATOM     18  O   UNL     1      46.801   1.720   7.935  0.00  0.00    +0.000 OA
ATOM     19  O   UNL     1      47.380   4.093   7.317  0.00  0.00    +0.000 OA
BRANCH  17  20
ATOM     20  C   UNL     1      46.274   2.554   5.510  0.00  0.00    +0.000 C 
BRANCH  20  21
ATOM     21  C   UNL     1      47.226   1.457   5.056  0.00  0.00    +0.000 C 
BRANCH  21  22
ATOM     22  N   UNL     1      48.597   1.701   5.509  0.00  0.00    +0.000 NA
ATOM     23  H   UNL     1      48.592   2.453   6.202  0.00  0.00    +0.000 HD
ATOM     24  H   UNL     1      49.160   2.053   4.734  0.00  0.00    +0.000 HD
ENDBRANCH  21  22
ENDBRANCH  20  21
ENDBRANCH  17  20
ENDBRANCH  15  17
ENDBRANCH   9  15
ENDBRANCH   8  13
ENDBRANCH   7   8
ENDBRANCH   1   7
BRANCH   4  25
ATOM     25  C   UNL     1      49.313   7.405  16.395  0.00  0.00    +0.000 C 
BRANCH  25  26
ATOM     26  N   UNL     1      50.255   6.355  16.725  0.00  0.00    +0.000 N 
ATOM     27  C   UNL     1      50.649   6.106  18.013  0.00  0.00    +0.000 C 
ATOM     28  O   UNL     1      50.199   6.749  18.959  0.00  0.00    +0.000 OA
ATOM     29  H   UNL     1      50.690   5.865  15.951  0.00  0.00    +0.000 HD
BRANCH  27  30
ATOM     30  C   UNL     1      51.591   5.001  18.219  0.00  0.00    +0.000 A 
ATOM     31  C   UNL     1      52.829   5.257  18.794  0.00  0.00    +0.000 A 
ATOM     32  S   UNL     1      53.808   3.872  18.956  0.00  0.00    +0.000 S 
ATOM     33  C   UNL     1      52.630   2.887  18.224  0.00  0.00    +0.000 A 
ATOM     34  N   UNL     1      52.860   1.564  18.013  0.00  0.00    +0.000 NA
ATOM     35  C   UNL     1      51.898   0.943  17.417  0.00  0.00    +0.000 A 
ATOM     36  N   UNL     1      50.721   1.525  17.022  0.00  0.00    +0.000 N 
ATOM     37  C   UNL     1      50.423   2.847  17.259  0.00  0.00    +0.000 A 
ATOM     38  O   UNL     1      49.326   3.316  16.976  0.00  0.00    +0.000 OA
ATOM     39  C   UNL     1      51.490   3.599  17.893  0.00  0.00    +0.000 A 
ATOM     40  H   UNL     1      49.999   0.976  16.580  0.00  0.00    +0.000 HD
ENDBRANCH  27  30
ENDBRANCH  25  26
ENDBRANCH   4  25
TORSDOF 11
ENDMDL
MODEL 5
REMARK VINA RESULT:    -6.467      3.199      9.742
REMARK INTER + INTRA:         -12.145
REMARK INTER:                 -11.641
REMARK INTRA:                  -0.504
REMARK UNBOUND:                -1.709
REMARK  Name = 
REMARK  11 active torsions:
REMARK  status: ('A' for Active; 'I' for Inactive)
REMARK    1  A    between atoms: N_1  and  C_2
REMARK    2  A    between atoms: C_2  and  C_3
REMARK    3  A    between atoms: C_3  and  S_4
REMARK    4  A    between atoms: S_4  and  N_7
REMARK    5  A    between atoms: N_7  and  C_8
REMARK    6  A    between atoms: C_12  and  C_13
REMARK    7  A    between atoms: C_13  and  O_14
REMARK    8  A    between atoms: O_14  and  C_15
REMARK    9  A    between atoms: C_18  and  C_19
REMARK   10  A    between atoms: C_19  and  N_20
REMARK   11  A    between atoms: C_21  and  C_23
REMARK                            x       y       z     vdW  Elec       q    Type
REMARK                         _______ _______ _______ _____ _____    ______ ____
ROOT
ATOM      1  C   UNL     1      45.301   4.052  12.765  0.00  0.00    +0.000 A 
ATOM      2  C   UNL     1      46.571   3.645  13.155  0.00  0.00    +0.000 A 
ATOM      3  N   UNL     1      47.509   4.512  13.623  0.00  0.00    +0.000 NA
ATOM      4  C   UNL     1      47.134   5.820  13.661  0.00  0.00    +0.000 A 
ATOM      5  C   UNL     1      45.859   6.213  13.265  0.00  0.00    +0.000 A 
ATOM      6  N   UNL     1      44.926   5.345  12.803  0.00  0.00    +0.000 NA
ENDROOT
BRANCH   1   7
ATOM      7  O   UNL     1      44.447   3.111  12.237  0.00  0.00    +0.000 OA
BRANCH   7   8
ATOM      8  C   UNL     1      43.750   3.575  11.079  0.00  0.00    +0.000 C 
BRANCH   8  13
ATOM      9  C   UNL     1      45.765   3.031   7.891  0.00  0.00    +0.000 A 
ATOM     10  C   UNL     1      46.361   4.276   7.708  0.00  0.00    +0.000 A 
ATOM     11  C   UNL     1      46.153   5.279   8.655  0.00  0.00    +0.000 A 
ATOM     12  C   UNL     1      45.338   5.037   9.763  0.00  0.00    +0.000 A 
ATOM     13  C   UNL     1      44.722   3.789   9.941  0.00  0.00    +0.000 A 
ATOM     14  C   UNL     1      44.953   2.781   8.998  0.00  0.00    +0.000 A 
BRANCH   9  15
ATOM     15  N   UNL     1      45.891   2.019   6.909  0.00  0.00    +0.000 N 
ATOM     16  H   UNL     1      45.426   2.195   6.024  0.00  0.00    +0.000 HD
BRANCH  15  17
ATOM     17  S   UNL     1      47.204   0.978   6.955  0.00  0.00    +0.000 S 
ATOM     18  O   UNL     1      46.949   0.029   8.020  0.00  0.00    +0.000 OA
ATOM     19  O   UNL     1      48.436   1.736   6.913  0.00  0.00    +0.000 OA
BRANCH  17  20
ATOM     20  C   UNL     1      47.067   0.089   5.405  0.00  0.00    +0.000 C 
BRANCH  20  21
ATOM     21  C   UNL     1      47.018   1.031   4.212  0.00  0.00    +0.000 C 
BRANCH  21  22
ATOM     22  N   UNL     1      47.414   0.362   2.971  0.00  0.00    +0.000 NA
ATOM     23  H   UNL     1      48.300  -0.126   3.121  0.00  0.00    +0.000 HD
ATOM     24  H   UNL     1      47.609   1.058   2.250  0.00  0.00    +0.000 HD
ENDBRANCH  21  22
ENDBRANCH  20  21
ENDBRANCH  17  20
ENDBRANCH  15  17
ENDBRANCH   9  15
ENDBRANCH   8  13
ENDBRANCH   7   8
ENDBRANCH   1   7
BRANCH   4  25
ATOM     25  C   UNL     1      48.132   6.846  14.142  0.00  0.00    +0.000 C 
BRANCH  25  26
ATOM     26  N   UNL     1      48.345   6.806  15.575  0.00  0.00    +0.000 N 
ATOM     27  C   UNL     1      49.599   6.758  16.125  0.00  0.00    +0.000 C 
ATOM     28  O   UNL     1      50.609   6.772  15.426  0.00  0.00    +0.000 OA
ATOM     29  H   UNL     1      47.523   6.720  16.163  0.00  0.00    +0.000 HD
BRANCH  27  30
ATOM     30  C   UNL     1      49.684   6.742  17.589  0.00  0.00    +0.000 A 
ATOM     31  C   UNL     1      50.294   7.800  18.250  0.00  0.00    +0.000 A 
ATOM     32  S   UNL     1      50.318   7.626  19.945  0.00  0.00    +0.000 S 
ATOM     33  C   UNL     1      49.553   6.110  19.855  0.00  0.00    +0.000 A 
ATOM     34  N   UNL     1      49.309   5.384  20.978  0.00  0.00    +0.000 NA
ATOM     35  C   UNL     1      48.756   4.237  20.762  0.00  0.00    +0.000 A 
ATOM     36  N   UNL     1      48.415   3.756  19.525  0.00  0.00    +0.000 N 
ATOM     37  C   UNL     1      48.594   4.476  18.366  0.00  0.00    +0.000 A 
ATOM     38  O   UNL     1      48.195   4.057  17.285  0.00  0.00    +0.000 OA
ATOM     39  C   UNL     1      49.250   5.757  18.551  0.00  0.00    +0.000 A 
ATOM     40  H   UNL     1      47.962   2.859  19.429  0.00  0.00    +0.000 HD
ENDBRANCH  27  30
ENDBRANCH  25  26
ENDBRANCH   4  25
TORSDOF 11
ENDMDL
MODEL 6
REMARK VINA RESULT:    -6.463      3.271      8.550
REMARK INTER + INTRA:         -12.140
REMARK INTER:                 -11.272
REMARK INTRA:                  -0.868
REMARK UNBOUND:                -1.709
REMARK  Name = 
REMARK  11 active torsions:
REMARK  status: ('A' for Active; 'I' for Inactive)
REMARK    1  A    between atoms: N_1  and  C_2
REMARK    2  A    between atoms: C_2  and  C_3
REMARK    3  A    between atoms: C_3  and  S_4
REMARK    4  A    between atoms: S_4  and  N_7
REMARK    5  A    between atoms: N_7  and  C_8
REMARK    6  A    between atoms: C_12  and  C_13
REMARK    7  A    between atoms: C_13  and  O_14
REMARK    8  A    between atoms: O_14  and  C_15
REMARK    9  A    between atoms: C_18  and  C_19
REMARK   10  A    between atoms: C_19  and  N_20
REMARK   11  A    between atoms: C_21  and  C_23
REMARK                            x       y       z     vdW  Elec       q    Type
REMARK                         _______ _______ _______ _____ _____    ______ ____
ROOT
ATOM      1  C   UNL     1      48.086   6.764  14.288  0.00  0.00    +0.000 A 
ATOM      2  C   UNL     1      47.420   5.565  14.067  0.00  0.00    +0.000 A 
ATOM      3  N   UNL     1      47.393   4.559  14.983  0.00  0.00    +0.000 NA
ATOM      4  C   UNL     1      48.087   4.790  16.131  0.00  0.00    +0.000 A 
ATOM      5  C   UNL     1      48.752   5.996  16.337  0.00  0.00    +0.000 A 
ATOM      6  N   UNL     1      48.773   6.996  15.423  0.00  0.00    +0.000 NA
ENDROOT
BRANCH   1   7
ATOM      7  O   UNL     1      48.118   7.691  13.272  0.00  0.00    +0.000 OA
BRANCH   7   8
ATOM      8  C   UNL     1      47.384   8.879  13.575  0.00  0.00    +0.000 C 
BRANCH   8  13
ATOM      9  C   UNL     1      44.297   8.193  11.449  0.00  0.00    +0.000 A 
ATOM     10  C   UNL     1      44.023   9.452  10.921  0.00  0.00    +0.000 A 
ATOM     11  C   UNL     1      44.878  10.515  11.210  0.00  0.00    +0.000 A 
ATOM     12  C   UNL     1      45.985  10.319  12.039  0.00  0.00    +0.000 A 
ATOM     13  C   UNL     1      46.254   9.055  12.587  0.00  0.00    +0.000 A 
ATOM     14  C   UNL     1      45.404   7.988  12.274  0.00  0.00    +0.000 A 
BRANCH   9  15
ATOM     15  N   UNL     1      43.406   7.113  11.239  0.00  0.00    +0.000 N 
ATOM     16  H   UNL     1      42.520   7.344  10.802  0.00  0.00    +0.000 HD
BRANCH  15  17
ATOM     17  S   UNL     1      44.011   5.555  11.103  0.00  0.00    +0.000 S 
ATOM     18  O   UNL     1      45.440   5.676  10.902  0.00  0.00    +0.000 OA
ATOM     19  O   UNL     1      43.193   4.789  10.188  0.00  0.00    +0.000 OA
BRANCH  17  20
ATOM     20  C   UNL     1      43.757   4.881  12.744  0.00  0.00    +0.000 C 
BRANCH  20  21
ATOM     21  C   UNL     1      43.773   3.360  12.742  0.00  0.00    +0.000 C 
BRANCH  21  22
ATOM     22  N   UNL     1      45.104   2.827  12.446  0.00  0.00    +0.000 NA
ATOM     23  H   UNL     1      45.694   2.917  13.277  0.00  0.00    +0.000 HD
ATOM     24  H   UNL     1      45.555   3.400  11.732  0.00  0.00    +0.000 HD
ENDBRANCH  21  22
ENDBRANCH  20  21
ENDBRANCH  17  20
ENDBRANCH  15  17
ENDBRANCH   9  15
ENDBRANCH   8  13
ENDBRANCH   7   8
ENDBRANCH   1   7
BRANCH   4  25
ATOM     25  C   UNL     1      48.127   3.708  17.183  0.00  0.00    +0.000 C 
BRANCH  25  26
ATOM     26  N   UNL     1      49.473   3.350  17.582  0.00  0.00    +0.000 N 
ATOM     27  C   UNL     1      50.162   2.326  16.986  0.00  0.00    +0.000 C 
ATOM     28  O   UNL     1      49.678   1.677  16.062  0.00  0.00    +0.000 OA
ATOM     29  H   UNL     1      49.859   3.826  18.390  0.00  0.00    +0.000 HD
BRANCH  27  30
ATOM     30  C   UNL     1      51.526   2.075  17.464  0.00  0.00    +0.000 A 
ATOM     31  C   UNL     1      51.944   0.769  17.680  0.00  0.00    +0.000 A 
ATOM     32  S   UNL     1      53.549   0.648  18.242  0.00  0.00    +0.000 S 
ATOM     33  C   UNL     1      53.728   2.340  18.259  0.00  0.00    +0.000 A 
ATOM     34  N   UNL     1      54.882   2.915  18.690  0.00  0.00    +0.000 NA
ATOM     35  C   UNL     1      54.869   4.206  18.684  0.00  0.00    +0.000 A 
ATOM     36  N   UNL     1      53.809   4.974  18.276  0.00  0.00    +0.000 N 
ATOM     37  C   UNL     1      52.642   4.437  17.784  0.00  0.00    +0.000 A 
ATOM     38  O   UNL     1      51.747   5.150  17.341  0.00  0.00    +0.000 OA
ATOM     39  C   UNL     1      52.591   2.987  17.807  0.00  0.00    +0.000 A 
ATOM     40  H   UNL     1      53.874   5.981  18.275  0.00  0.00    +0.000 HD
ENDBRANCH  27  30
ENDBRANCH  25  26
ENDBRANCH   4  25
TORSDOF 11
ENDMDL
MODEL 7
REMARK VINA RESULT:    -6.230      2.072      2.420
REMARK INTER + INTRA:         -11.764
REMARK INTER:                 -10.780
REMARK INTRA:                  -0.983
REMARK UNBOUND:                -1.709
REMARK  Name = 
REMARK  11 active torsions:
REMARK  status: ('A' for Active; 'I' for Inactive)
REMARK    1  A    between atoms: N_1  and  C_2
REMARK    2  A    between atoms: C_2  and  C_3
REMARK    3  A    between atoms: C_3  and  S_4
REMARK    4  A    between atoms: S_4  and  N_7
REMARK    5  A    between atoms: N_7  and  C_8
REMARK    6  A    between atoms: C_12  and  C_13
REMARK    7  A    between atoms: C_13  and  O_14
REMARK    8  A    between atoms: O_14  and  C_15
REMARK    9  A    between atoms: C_18  and  C_19
REMARK   10  A    between atoms: C_19  and  N_20
REMARK   11  A    between atoms: C_21  and  C_23
REMARK                            x       y       z     vdW  Elec       q    Type
REMARK                         _______ _______ _______ _____ _____    ______ ____
ROOT
ATOM      1  C   UNL     1      49.487   9.320  17.499  0.00  0.00    +0.000 A 
ATOM      2  C   UNL     1      50.688   8.760  17.081  0.00  0.00    +0.000 A 
ATOM      3  N   UNL     1      50.834   8.150  15.873  0.00  0.00    +0.000 NA
ATOM      4  C   UNL     1      49.713   8.099  15.102  0.00  0.00    +0.000 A 
ATOM      5  C   UNL     1      48.517   8.662  15.537  0.00  0.00    +0.000 A 
ATOM      6  N   UNL     1      48.377   9.272  16.738  0.00  0.00    +0.000 NA
ENDROOT
BRANCH   1   7
ATOM      7  O   UNL     1      49.420   9.850  18.768  0.00  0.00    +0.000 OA
BRANCH   7   8
ATOM      8  C   UNL     1      50.011   9.007  19.758  0.00  0.00    +0.000 C 
BRANCH   8  13
ATOM      9  C   UNL     1      48.213   5.678  20.215  0.00  0.00    +0.000 A 
ATOM     10  C   UNL     1      47.301   5.977  21.223  0.00  0.00    +0.000 A 
ATOM     11  C   UNL     1      47.230   7.279  21.716  0.00  0.00    +0.000 A 
ATOM     12  C   UNL     1      48.083   8.266  21.215  0.00  0.00    +0.000 A 
ATOM     13  C   UNL     1      49.015   7.964  20.211  0.00  0.00    +0.000 A 
ATOM     14  C   UNL     1      49.065   6.659  19.705  0.00  0.00    +0.000 A 
BRANCH   9  15
ATOM     15  N   UNL     1      48.365   4.350  19.749  0.00  0.00    +0.000 N 
ATOM     16  H   UNL     1      48.261   3.618  20.444  0.00  0.00    +0.000 HD
BRANCH  15  17
ATOM     17  S   UNL     1      48.074   3.999  18.135  0.00  0.00    +0.000 S 
ATOM     18  O   UNL     1      47.504   5.192  17.544  0.00  0.00    +0.000 OA
ATOM     19  O   UNL     1      47.408   2.720  18.022  0.00  0.00    +0.000 OA
BRANCH  17  20
ATOM     20  C   UNL     1      49.724   3.807  17.463  0.00  0.00    +0.000 C 
BRANCH  20  21
ATOM     21  C   UNL     1      50.056   2.350  17.176  0.00  0.00    +0.000 C 
BRANCH  21  22
ATOM     22  N   UNL     1      49.331   1.844  16.009  0.00  0.00    +0.000 NA
ATOM     23  H   UNL     1      49.370   2.541  15.262  0.00  0.00    +0.000 HD
ATOM     24  H   UNL     1      48.340   1.746  16.233  0.00  0.00    +0.000 HD
ENDBRANCH  21  22
ENDBRANCH  20  21
ENDBRANCH  17  20
ENDBRANCH  15  17
ENDBRANCH   9  15
ENDBRANCH   8  13
ENDBRANCH   7   8
ENDBRANCH   1   7
BRANCH   4  25
ATOM     25  C   UNL     1      49.789   7.412  13.760  0.00  0.00    +0.000 C 
BRANCH  25  26
ATOM     26  N   UNL     1      48.490   7.190  13.158  0.00  0.00    +0.000 N 
ATOM     27  C   UNL     1      47.705   6.118  13.493  0.00  0.00    +0.000 C 
ATOM     28  O   UNL     1      48.057   5.304  14.343  0.00  0.00    +0.000 OA
ATOM     29  H   UNL     1      48.217   7.810  12.404  0.00  0.00    +0.000 HD
BRANCH  27  30
ATOM     30  C   UNL     1      46.401   6.015  12.829  0.00  0.00    +0.000 A 
ATOM     31  C   UNL     1      45.780   7.165  12.360  0.00  0.00    +0.000 A 
ATOM     32  S   UNL     1      44.271   6.876  11.624  0.00  0.00    +0.000 S 
ATOM     33  C   UNL     1      44.372   5.209  11.945  0.00  0.00    +0.000 A 
ATOM     34  N   UNL     1      43.359   4.370  11.602  0.00  0.00    +0.000 NA
ATOM     35  C   UNL     1      43.550   3.137  11.936  0.00  0.00    +0.000 A 
ATOM     36  N   UNL     1      44.670   2.667  12.572  0.00  0.00    +0.000 N 
ATOM     37  C   UNL     1      45.741   3.468  12.892  0.00  0.00    +0.000 A 
ATOM     38  O   UNL     1      46.766   3.001  13.378  0.00  0.00    +0.000 OA
ATOM     39  C   UNL     1      45.558   4.871  12.573  0.00  0.00    +0.000 A 
ATOM     40  H   UNL     1      44.766   1.685  12.784  0.00  0.00    +0.000 HD
ENDBRANCH  27  30
ENDBRANCH  25  26
ENDBRANCH   4  25
TORSDOF 11
ENDMDL
MODEL 8
REMARK VINA RESULT:    -6.166      2.801      7.364
REMARK INTER + INTRA:         -11.659
REMARK INTER:                  -9.202
REMARK INTRA:                  -2.457
REMARK UNBOUND:                -1.709
REMARK  Name = 
REMARK  11 active torsions:
REMARK  status: ('A' for Active; 'I' for Inactive)
REMARK    1  A    between atoms: N_1  and  C_2
REMARK    2  A    between atoms: C_2  and  C_3
REMARK    3  A    between atoms: C_3  and  S_4
REMARK    4  A    between atoms: S_4  and  N_7
REMARK    5  A    between atoms: N_7  and  C_8
REMARK    6  A    between atoms: C_12  and  C_13
REMARK    7  A    between atoms: C_13  and  O_14
REMARK    8  A    between atoms: O_14  and  C_15
REMARK    9  A    between atoms: C_18  and  C_19
REMARK   10  A    between atoms: C_19  and  N_20
REMARK   11  A    between atoms: C_21  and  C_23
REMARK                            x       y       z     vdW  Elec       q    Type
REMARK                         _______ _______ _______ _____ _____    ______ ____
ROOT
ATOM      1  C   UNL     1      49.373  10.559  12.055  0.00  0.00    +0.000 A 
ATOM      2  C   UNL     1      49.613   9.222  11.760  0.00  0.00    +0.000 A 
ATOM      3  N   UNL     1      50.480   8.456  12.476  0.00  0.00    +0.000 NA
ATOM      4  C   UNL     1      51.126   9.091  13.492  0.00  0.00    +0.000 A 
ATOM      5  C   UNL     1      50.876  10.432  13.774  0.00  0.00    +0.000 A 
ATOM      6  N   UNL     1      50.008  11.190  13.061  0.00  0.00    +0.000 NA
ENDROOT
BRANCH   1   7
ATOM      7  O   UNL     1      48.533  11.270  11.229  0.00  0.00    +0.000 OA
BRANCH   7   8
ATOM      8  C   UNL     1      47.340  11.705  11.882  0.00  0.00    +0.000 C 
BRANCH   8  13
ATOM      9  C   UNL     1      44.865   8.807  11.862  0.00  0.00    +0.000 A 
ATOM     10  C   UNL     1      43.913   9.245  10.947  0.00  0.00    +0.000 A 
ATOM     11  C   UNL     1      44.104  10.461  10.290  0.00  0.00    +0.000 A 
ATOM     12  C   UNL     1      45.232  11.237  10.568  0.00  0.00    +0.000 A 
ATOM     13  C   UNL     1      46.185  10.806  11.503  0.00  0.00    +0.000 A 
ATOM     14  C   UNL     1      45.997   9.574  12.141  0.00  0.00    +0.000 A 
BRANCH   9  15
ATOM     15  N   UNL     1      44.661   7.618  12.603  0.00  0.00    +0.000 N 
ATOM     16  H   UNL     1      43.794   7.562  13.128  0.00  0.00    +0.000 HD
BRANCH  15  17
ATOM     17  S   UNL     1      45.430   6.205  12.131  0.00  0.00    +0.000 S 
ATOM     18  O   UNL     1      45.782   5.494  13.343  0.00  0.00    +0.000 OA
ATOM     19  O   UNL     1      46.426   6.499  11.124  0.00  0.00    +0.000 OA
BRANCH  17  20
ATOM     20  C   UNL     1      44.117   5.281  11.334  0.00  0.00    +0.000 C 
BRANCH  20  21
ATOM     21  C   UNL     1      42.745   5.670  11.863  0.00  0.00    +0.000 C 
BRANCH  21  22
ATOM     22  N   UNL     1      42.604   5.368  13.289  0.00  0.00    +0.000 NA
ATOM     23  H   UNL     1      41.614   5.238  13.509  0.00  0.00    +0.000 HD
ATOM     24  H   UNL     1      42.900   6.173  13.843  0.00  0.00    +0.000 HD
ENDBRANCH  21  22
ENDBRANCH  20  21
ENDBRANCH  17  20
ENDBRANCH  15  17
ENDBRANCH   9  15
ENDBRANCH   8  13
ENDBRANCH   7   8
ENDBRANCH   1   7
BRANCH   4  25
ATOM     25  C   UNL     1      52.125   8.313  14.313  0.00  0.00    +0.000 C 
BRANCH  25  26
ATOM     26  N   UNL     1      51.513   7.300  15.148  0.00  0.00    +0.000 N 
ATOM     27  C   UNL     1      51.164   7.541  16.451  0.00  0.00    +0.000 C 
ATOM     28  O   UNL     1      51.332   8.643  16.969  0.00  0.00    +0.000 OA
ATOM     29  H   UNL     1      51.434   6.366  14.760  0.00  0.00    +0.000 HD
BRANCH  27  30
ATOM     30  C   UNL     1      50.531   6.441  17.185  0.00  0.00    +0.000 A 
ATOM     31  C   UNL     1      51.143   5.938  18.325  0.00  0.00    +0.000 A 
ATOM     32  S   UNL     1      50.286   4.658  19.055  0.00  0.00    +0.000 S 
ATOM     33  C   UNL     1      49.088   4.701  17.849  0.00  0.00    +0.000 A 
ATOM     34  N   UNL     1      48.057   3.814  17.858  0.00  0.00    +0.000 NA
ATOM     35  C   UNL     1      47.240   3.935  16.866  0.00  0.00    +0.000 A 
ATOM     36  N   UNL     1      47.355   4.871  15.871  0.00  0.00    +0.000 N 
ATOM     37  C   UNL     1      48.350   5.821  15.848  0.00  0.00    +0.000 A 
ATOM     38  O   UNL     1      48.373   6.702  14.995  0.00  0.00    +0.000 OA
ATOM     39  C   UNL     1      49.318   5.702  16.921  0.00  0.00    +0.000 A 
ATOM     40  H   UNL     1      46.666   4.926  15.135  0.00  0.00    +0.000 HD
ENDBRANCH  27  30
ENDBRANCH  25  26
ENDBRANCH   4  25
TORSDOF 11
ENDMDL
MODEL 9
REMARK VINA RESULT:    -6.126      2.489      3.385
REMARK INTER + INTRA:         -11.595
REMARK INTER:                  -9.742
REMARK INTRA:                  -1.853
REMARK UNBOUND:                -1.709
REMARK  Name = 
REMARK  11 active torsions:
REMARK  status: ('A' for Active; 'I' for Inactive)
REMARK    1  A    between atoms: N_1  and  C_2
REMARK    2  A    between atoms: C_2  and  C_3
REMARK    3  A    between atoms: C_3  and  S_4
REMARK    4  A    between atoms: S_4  and  N_7
REMARK    5  A    between atoms: N_7  and  C_8
REMARK    6  A    between atoms: C_12  and  C_13
REMARK    7  A    between atoms: C_13  and  O_14
REMARK    8  A    between atoms: O_14  and  C_15
REMARK    9  A    between atoms: C_18  and  C_19
REMARK   10  A    between atoms: C_19  and  N_20
REMARK   11  A    between atoms: C_21  and  C_23
REMARK                            x       y       z     vdW  Elec       q    Type
REMARK                         _______ _______ _______ _____ _____    ______ ____
ROOT
ATOM      1  C   UNL     1      49.091   9.658  19.177  0.00  0.00    +0.000 A 
ATOM      2  C   UNL     1      50.184   9.810  18.331  0.00  0.00    +0.000 A 
ATOM      3  N   UNL     1      50.068   9.825  16.976  0.00  0.00    +0.000 NA
ATOM      4  C   UNL     1      48.807   9.653  16.492  0.00  0.00    +0.000 A 
ATOM      5  C   UNL     1      47.723   9.499  17.352  0.00  0.00    +0.000 A 
ATOM      6  N   UNL     1      47.843   9.489  18.701  0.00  0.00    +0.000 NA
ENDROOT
BRANCH   1   7
ATOM      7  O   UNL     1      49.320   9.583  20.532  0.00  0.00    +0.000 OA
BRANCH   7   8
ATOM      8  C   UNL     1      50.281   8.586  20.883  0.00  0.00    +0.000 C 
BRANCH   8  13
ATOM      9  C   UNL     1      49.652   4.950  19.932  0.00  0.00    +0.000 A 
ATOM     10  C   UNL     1      48.629   4.595  20.806  0.00  0.00    +0.000 A 
ATOM     11  C   UNL     1      48.102   5.555  21.669  0.00  0.00    +0.000 A 
ATOM     12  C   UNL     1      48.614   6.855  21.666  0.00  0.00    +0.000 A 
ATOM     13  C   UNL     1      49.657   7.213  20.797  0.00  0.00    +0.000 A 
ATOM     14  C   UNL     1      50.165   6.248  19.919  0.00  0.00    +0.000 A 
BRANCH   9  15
ATOM     15  N   UNL     1      50.262   3.980  19.101  0.00  0.00    +0.000 N 
ATOM     16  H   UNL     1      50.520   3.107  19.549  0.00  0.00    +0.000 HD
BRANCH  15  17
ATOM     17  S   UNL     1      49.974   4.003  17.450  0.00  0.00    +0.000 S 
ATOM     18  O   UNL     1      49.918   2.623  17.015  0.00  0.00    +0.000 OA
ATOM     19  O   UNL     1      50.860   4.950  16.809  0.00  0.00    +0.000 OA
BRANCH  17  20
ATOM     20  C   UNL     1      48.312   4.664  17.342  0.00  0.00    +0.000 C 
BRANCH  20  21
ATOM     21  C   UNL     1      47.340   3.663  16.734  0.00  0.00    +0.000 C 
BRANCH  21  22
ATOM     22  N   UNL     1      46.738   2.799  17.751  0.00  0.00    +0.000 NA
ATOM     23  H   UNL     1      47.420   2.093  18.037  0.00  0.00    +0.000 HD
ATOM     24  H   UNL     1      45.962   2.275  17.344  0.00  0.00    +0.000 HD
ENDBRANCH  21  22
ENDBRANCH  20  21
ENDBRANCH  17  20
ENDBRANCH  15  17
ENDBRANCH   9  15
ENDBRANCH   8  13
ENDBRANCH   7   8
ENDBRANCH   1   7
BRANCH   4  25
ATOM     25  C   UNL     1      48.603   9.629  14.996  0.00  0.00    +0.000 C 
BRANCH  25  26
ATOM     26  N   UNL     1      47.690   8.591  14.562  0.00  0.00    +0.000 N 
ATOM     27  C   UNL     1      48.046   7.648  13.634  0.00  0.00    +0.000 C 
ATOM     28  O   UNL     1      49.172   7.622  13.143  0.00  0.00    +0.000 OA
ATOM     29  H   UNL     1      46.736   8.642  14.901  0.00  0.00    +0.000 HD
BRANCH  27  30
ATOM     30  C   UNL     1      47.040   6.636  13.293  0.00  0.00    +0.000 A 
ATOM     31  C   UNL     1      47.265   5.308  13.628  0.00  0.00    +0.000 A 
ATOM     32  S   UNL     1      46.007   4.260  13.155  0.00  0.00    +0.000 S 
ATOM     33  C   UNL     1      45.135   5.538  12.447  0.00  0.00    +0.000 A 
ATOM     34  N   UNL     1      43.955   5.309  11.813  0.00  0.00    +0.000 NA
ATOM     35  C   UNL     1      43.418   6.361  11.290  0.00  0.00    +0.000 A 
ATOM     36  N   UNL     1      43.950   7.623  11.355  0.00  0.00    +0.000 N 
ATOM     37  C   UNL     1      45.114   7.910  12.029  0.00  0.00    +0.000 A 
ATOM     38  O   UNL     1      45.517   9.063  12.147  0.00  0.00    +0.000 OA
ATOM     39  C   UNL     1      45.778   6.754  12.601  0.00  0.00    +0.000 A 
ATOM     40  H   UNL     1      43.466   8.407  10.944  0.00  0.00    +0.000 HD
ENDBRANCH  27  30
ENDBRANCH  25  26
ENDBRANCH   4  25
TORSDOF 11
ENDMDL
