MODEL 1
REMARK VINA RESULT:    -8.447      0.000      0.000
REMARK INTER + INTRA:         -13.023
REMARK INTER:                 -11.904
REMARK INTRA:                  -1.119
REMARK UNBOUND:                -1.119
REMARK  Name = 
REMARK  8 active torsions:
REMARK  status: ('A' for Active; 'I' for Inactive)
REMARK    1  A    between atoms: C_1  and  C_2
REMARK    2  A    between atoms: C_2  and  N_3
REMARK    3  A    between atoms: C_2  and  C_11
REMARK    4  A    between atoms: N_3  and  C_4
REMARK    5  A    between atoms: C_4  and  C_5
REMARK    6  A    between atoms: C_14  and  C_15
REMARK    7  A    between atoms: C_15  and  N_16
REMARK    8  A    between atoms: C_17  and  C_19
REMARK                            x       y       z     vdW  Elec       q    Type
REMARK                         _______ _______ _______ _____ _____    ______ ____
ROOT
ATOM      1  C   UNL     1      45.437   4.557  12.087  0.00  0.00    +0.000 A 
ATOM      2  C   UNL     1      45.909   5.747  11.500  0.00  0.00    +0.000 A 
ATOM      3  C   UNL     1      46.872   6.533  12.135  0.00  0.00    +0.000 A 
ATOM      4  C   UNL     1      47.436   6.108  13.342  0.00  0.00    +0.000 A 
ATOM      5  C   UNL     1      46.955   4.937  13.941  0.00  0.00    +0.000 A 
ATOM      6  C   UNL     1      45.963   4.175  13.326  0.00  0.00    +0.000 A 
ENDROOT
BRANCH   1   8
ATOM      7  C   UNL     1      43.564   4.638  10.367  0.00  0.00    +0.000 C 
ATOM      8  C   UNL     1      44.305   3.789  11.412  0.00  0.00    +0.000 C 
BRANCH   8   9
ATOM      9  N   UNL     1      44.780   2.545  10.773  0.00  0.00    +0.000 NA
ATOM     10  H   UNL     1      44.347   1.750  11.239  0.00  0.00    +0.000 HD
BRANCH   9  11
ATOM     11  C   UNL     1      44.424   2.489   9.349  0.00  0.00    +0.000 C 
BRANCH  11  12
ATOM     12  C   UNL     1      45.599   2.493   8.404  0.00  0.00    +0.000 A 
ATOM     13  C   UNL     1      46.286   1.289   8.170  0.00  0.00    +0.000 A 
ATOM     14  C   UNL     1      47.314   1.224   7.233  0.00  0.00    +0.000 A 
ATOM     15  C   UNL     1      47.664   2.366   6.514  0.00  0.00    +0.000 A 
ATOM     16  C   UNL     1      46.993   3.568   6.740  0.00  0.00    +0.000 A 
ATOM     17  C   UNL     1      45.961   3.631   7.677  0.00  0.00    +0.000 A 
ENDBRANCH  11  12
ENDBRANCH   9  11
ENDBRANCH   8   9
ENDBRANCH   1   8
BRANCH   4  18
ATOM     18  C   UNL     1      48.534   6.890  14.008  0.00  0.00    +0.000 C 
BRANCH  18  19
ATOM     19  N   UNL     1      48.299   7.042  15.418  0.00  0.00    +0.000 N 
ATOM     20  C   UNL     1      49.233   6.628  16.333  0.00  0.00    +0.000 C 
ATOM     21  O   UNL     1      50.314   6.153  15.994  0.00  0.00    +0.000 OA
ATOM     22  H   UNL     1      47.336   7.164  15.715  0.00  0.00    +0.000 HD
BRANCH  20  23
ATOM     23  C   UNL     1      48.901   6.851  17.743  0.00  0.00    +0.000 A 
ATOM     24  C   UNL     1      48.657   8.139  18.198  0.00  0.00    +0.000 A 
ATOM     25  S   UNL     1      48.226   8.210  19.847  0.00  0.00    +0.000 S 
ATOM     26  C   UNL     1      48.408   6.527  20.023  0.00  0.00    +0.000 A 
ATOM     27  N   UNL     1      48.207   5.922  21.224  0.00  0.00    +0.000 NA
ATOM     28  C   UNL     1      48.399   4.643  21.216  0.00  0.00    +0.000 A 
ATOM     29  N   UNL     1      48.768   3.917  20.118  0.00  0.00    +0.000 N 
ATOM     30  C   UNL     1      48.953   4.480  18.873  0.00  0.00    +0.000 A 
ATOM     31  O   UNL     1      49.237   3.790  17.899  0.00  0.00    +0.000 OA
ATOM     32  C   UNL     1      48.766   5.917  18.833  0.00  0.00    +0.000 A 
ATOM     33  H   UNL     1      48.892   2.910  20.176  0.00  0.00    +0.000 HD
ENDBRANCH  20  23
ENDBRANCH  18  19
ENDBRANCH   4  18
TORSDOF 7
ENDMDL
MODEL 2
REMARK VINA RESULT:    -8.152      1.334      2.193
REMARK INTER + INTRA:         -12.607
REMARK INTER:                 -11.367
REMARK INTRA:                  -1.240
REMARK UNBOUND:                -1.119
REMARK  Name = 
REMARK  8 active torsions:
REMARK  status: ('A' for Active; 'I' for Inactive)
REMARK    1  A    between atoms: C_1  and  C_2
REMARK    2  A    between atoms: C_2  and  N_3
REMARK    3  A    between atoms: C_2  and  C_11
REMARK    4  A    between atoms: N_3  and  C_4
REMARK    5  A    between atoms: C_4  and  C_5
REMARK    6  A    between atoms: C_14  and  C_15
REMARK    7  A    between atoms: C_15  and  N_16
REMARK    8  A    between atoms: C_17  and  C_19
REMARK                            x       y       z     vdW  Elec       q    Type
REMARK                         _______ _______ _______ _____ _____    ______ ____
ROOT
ATOM      1  C   UNL     1      45.391   4.545  12.094  0.00  0.00    +0.000 A 
ATOM      2  C   UNL     1      45.858   5.777  11.597  0.00  0.00    +0.000 A 
ATOM      3  C   UNL     1      46.772   6.547  12.318  0.00  0.00    +0.000 A 
ATOM      4  C   UNL     1      47.293   6.067  13.523  0.00  0.00    +0.000 A 
ATOM      5  C   UNL     1      46.818   4.853  14.033  0.00  0.00    +0.000 A 
ATOM      6  C   UNL     1      45.873   4.105  13.332  0.00  0.00    +0.000 A 
ENDROOT
BRANCH   1   8
ATOM      7  C   UNL     1      43.635   4.665  10.257  0.00  0.00    +0.000 C 
ATOM      8  C   UNL     1      44.310   3.791  11.327  0.00  0.00    +0.000 C 
BRANCH   8   9
ATOM      9  N   UNL     1      44.832   2.565  10.689  0.00  0.00    +0.000 NA
ATOM     10  H   UNL     1      44.472   1.755  11.190  0.00  0.00    +0.000 HD
BRANCH   9  11
ATOM     11  C   UNL     1      44.414   2.456   9.285  0.00  0.00    +0.000 C 
BRANCH  11  12
ATOM     12  C   UNL     1      45.548   2.377   8.294  0.00  0.00    +0.000 A 
ATOM     13  C   UNL     1      45.960   3.552   7.641  0.00  0.00    +0.000 A 
ATOM     14  C   UNL     1      47.065   3.545   6.792  0.00  0.00    +0.000 A 
ATOM     15  C   UNL     1      47.771   2.362   6.589  0.00  0.00    +0.000 A 
ATOM     16  C   UNL     1      47.369   1.188   7.228  0.00  0.00    +0.000 A 
ATOM     17  C   UNL     1      46.265   1.196   8.081  0.00  0.00    +0.000 A 
ENDBRANCH  11  12
ENDBRANCH   9  11
ENDBRANCH   8   9
ENDBRANCH   1   8
BRANCH   4  18
ATOM     18  C   UNL     1      48.341   6.834  14.281  0.00  0.00    +0.000 C 
BRANCH  18  19
ATOM     19  N   UNL     1      48.168   6.709  15.703  0.00  0.00    +0.000 N 
ATOM     20  C   UNL     1      49.212   6.323  16.504  0.00  0.00    +0.000 C 
ATOM     21  O   UNL     1      50.335   6.108  16.056  0.00  0.00    +0.000 OA
ATOM     22  H   UNL     1      47.218   6.609  16.044  0.00  0.00    +0.000 HD
BRANCH  20  23
ATOM     23  C   UNL     1      48.931   6.249  17.941  0.00  0.00    +0.000 A 
ATOM     24  C   UNL     1      49.221   5.086  18.641  0.00  0.00    +0.000 A 
ATOM     25  S   UNL     1      48.887   5.194  20.310  0.00  0.00    +0.000 S 
ATOM     26  C   UNL     1      48.291   6.780  20.144  0.00  0.00    +0.000 A 
ATOM     27  N   UNL     1      47.809   7.464  21.216  0.00  0.00    +0.000 NA
ATOM     28  C   UNL     1      47.371   8.648  20.941  0.00  0.00    +0.000 A 
ATOM     29  N   UNL     1      47.376   9.211  19.694  0.00  0.00    +0.000 N 
ATOM     30  C   UNL     1      47.881   8.571  18.583  0.00  0.00    +0.000 A 
ATOM     31  O   UNL     1      47.913   9.125  17.489  0.00  0.00    +0.000 OA
ATOM     32  C   UNL     1      48.370   7.230  18.837  0.00  0.00    +0.000 A 
ATOM     33  H   UNL     1      47.026  10.153  19.546  0.00  0.00    +0.000 HD
ENDBRANCH  20  23
ENDBRANCH  18  19
ENDBRANCH   4  18
TORSDOF 7
ENDMDL
MODEL 3
REMARK VINA RESULT:    -7.867      1.759      2.554
REMARK INTER + INTRA:         -12.205
REMARK INTER:                 -11.242
REMARK INTRA:                  -0.963
REMARK UNBOUND:                -1.119
REMARK  Name = 
REMARK  8 active torsions:
REMARK  status: ('A' for Active; 'I' for Inactive)
REMARK    1  A    between atoms: C_1  and  C_2
REMARK    2  A    between atoms: C_2  and  N_3
REMARK    3  A    between atoms: C_2  and  C_11
REMARK    4  A    between atoms: N_3  and  C_4
REMARK    5  A    between atoms: C_4  and  C_5
REMARK    6  A    between atoms: C_14  and  C_15
REMARK    7  A    between atoms: C_15  and  N_16
REMARK    8  A    between atoms: C_17  and  C_19
REMARK                            x       y       z     vdW  Elec       q    Type
REMARK                         _______ _______ _______ _____ _____    ______ ____
ROOT
ATOM      1  C   UNL     1      44.919   4.964  11.430  0.00  0.00    +0.000 A 
ATOM      2  C   UNL     1      46.177   5.103  12.049  0.00  0.00    +0.000 A 
ATOM      3  C   UNL     1      46.644   6.352  12.462  0.00  0.00    +0.000 A 
ATOM      4  C   UNL     1      45.833   7.482  12.328  0.00  0.00    +0.000 A 
ATOM      5  C   UNL     1      44.590   7.354  11.695  0.00  0.00    +0.000 A 
ATOM      6  C   UNL     1      44.142   6.114  11.244  0.00  0.00    +0.000 A 
ENDROOT
BRANCH   1   8
ATOM      7  C   UNL     1      43.383   2.960  11.739  0.00  0.00    +0.000 C 
ATOM      8  C   UNL     1      44.496   3.601  10.894  0.00  0.00    +0.000 C 
BRANCH   8   9
ATOM      9  N   UNL     1      44.053   3.669   9.487  0.00  0.00    +0.000 NA
ATOM     10  H   UNL     1      43.261   4.306   9.422  0.00  0.00    +0.000 HD
BRANCH   9  11
ATOM     11  C   UNL     1      45.113   4.166   8.600  0.00  0.00    +0.000 C 
BRANCH  11  12
ATOM     12  C   UNL     1      45.862   3.095   7.848  0.00  0.00    +0.000 A 
ATOM     13  C   UNL     1      46.539   3.444   6.666  0.00  0.00    +0.000 A 
ATOM     14  C   UNL     1      47.323   2.511   5.992  0.00  0.00    +0.000 A 
ATOM     15  C   UNL     1      47.441   1.217   6.495  0.00  0.00    +0.000 A 
ATOM     16  C   UNL     1      46.770   0.858   7.664  0.00  0.00    +0.000 A 
ATOM     17  C   UNL     1      45.988   1.793   8.342  0.00  0.00    +0.000 A 
ENDBRANCH  11  12
ENDBRANCH   9  11
ENDBRANCH   8   9
ENDBRANCH   1   8
BRANCH   4  18
ATOM     18  C   UNL     1      46.274   8.826  12.839  0.00  0.00    +0.000 C 
BRANCH  18  19
ATOM     19  N   UNL     1      46.760   8.747  14.190  0.00  0.00    +0.000 N 
ATOM     20  C   UNL     1      48.098   8.873  14.462  0.00  0.00    +0.000 C 
ATOM     21  O   UNL     1      48.925   9.095  13.582  0.00  0.00    +0.000 OA
ATOM     22  H   UNL     1      46.156   8.299  14.872  0.00  0.00    +0.000 HD
BRANCH  20  23
ATOM     23  C   UNL     1      48.480   8.800  15.875  0.00  0.00    +0.000 A 
ATOM     24  C   UNL     1      48.567   9.964  16.626  0.00  0.00    +0.000 A 
ATOM     25  S   UNL     1      48.965   9.691  18.263  0.00  0.00    +0.000 S 
ATOM     26  C   UNL     1      49.090   8.012  18.009  0.00  0.00    +0.000 A 
ATOM     27  N   UNL     1      49.433   7.174  19.023  0.00  0.00    +0.000 NA
ATOM     28  C   UNL     1      49.510   5.929  18.684  0.00  0.00    +0.000 A 
ATOM     29  N   UNL     1      49.270   5.448  17.426  0.00  0.00    +0.000 N 
ATOM     30  C   UNL     1      48.890   6.253  16.374  0.00  0.00    +0.000 A 
ATOM     31  O   UNL     1      48.636   5.780  15.270  0.00  0.00    +0.000 OA
ATOM     32  C   UNL     1      48.806   7.663  16.700  0.00  0.00    +0.000 A 
ATOM     33  H   UNL     1      49.337   4.454  17.226  0.00  0.00    +0.000 HD
ENDBRANCH  20  23
ENDBRANCH  18  19
ENDBRANCH   4  18
TORSDOF 7
ENDMDL
MODEL 4
REMARK VINA RESULT:    -7.686      2.198      2.753
REMARK INTER + INTRA:         -11.950
REMARK INTER:                 -10.537
REMARK INTRA:                  -1.413
REMARK UNBOUND:                -1.119
REMARK  Name = 
REMARK  8 active torsions:
REMARK  status: ('A' for Active; 'I' for Inactive)
REMARK    1  A    between atoms: C_1  and  C_2
REMARK    2  A    between atoms: C_2  and  N_3
REMARK    3  A    between atoms: C_2  and  C_11
REMARK    4  A    between atoms: N_3  and  C_4
REMARK    5  A    between atoms: C_4  and  C_5
REMARK    6  A    between atoms: C_14  and  C_15
REMARK    7  A    between atoms: C_15  and  N_16
REMARK    8  A    between atoms: C_17  and  C_19
REMARK                            x       y       z     vdW  Elec       q    Type
REMARK                         _______ _______ _______ _____ _____    ______ ____
ROOT
ATOM      1  C   UNL     1      45.419   5.373  12.211  0.00  0.00    +0.000 A 
ATOM      2  C   UNL     1      46.398   5.073  13.178  0.00  0.00    +0.000 A 
ATOM      3  C   UNL     1      47.575   5.817  13.269  0.00  0.00    +0.000 A 
ATOM      4  C   UNL     1      47.769   6.923  12.436  0.00  0.00    +0.000 A 
ATOM      5  C   UNL     1      46.810   7.213  11.458  0.00  0.00    +0.000 A 
ATOM      6  C   UNL     1      45.654   6.444  11.340  0.00  0.00    +0.000 A 
ENDROOT
BRANCH   1   8
ATOM      7  C   UNL     1      43.018   4.944  12.931  0.00  0.00    +0.000 C 
ATOM      8  C   UNL     1      44.201   4.466  12.074  0.00  0.00    +0.000 C 
BRANCH   8   9
ATOM      9  N   UNL     1      43.757   4.336  10.671  0.00  0.00    +0.000 NA
ATOM     10  H   UNL     1      44.255   5.021  10.105  0.00  0.00    +0.000 HD
BRANCH   9  11
ATOM     11  C   UNL     1      44.039   3.001  10.127  0.00  0.00    +0.000 C 
BRANCH  11  12
ATOM     12  C   UNL     1      45.135   2.959   9.093  0.00  0.00    +0.000 A 
ATOM     13  C   UNL     1      45.686   1.715   8.738  0.00  0.00    +0.000 A 
ATOM     14  C   UNL     1      46.630   1.617   7.719  0.00  0.00    +0.000 A 
ATOM     15  C   UNL     1      47.032   2.765   7.040  0.00  0.00    +0.000 A 
ATOM     16  C   UNL     1      46.496   4.006   7.385  0.00  0.00    +0.000 A 
ATOM     17  C   UNL     1      45.548   4.103   8.403  0.00  0.00    +0.000 A 
ENDBRANCH  11  12
ENDBRANCH   9  11
ENDBRANCH   8   9
ENDBRANCH   1   8
BRANCH   4  18
ATOM     18  C   UNL     1      48.989   7.794  12.565  0.00  0.00    +0.000 C 
BRANCH  18  19
ATOM     19  N   UNL     1      49.938   7.244  13.495  0.00  0.00    +0.000 N 
ATOM     20  C   UNL     1      50.094   7.791  14.742  0.00  0.00    +0.000 C 
ATOM     21  O   UNL     1      49.413   8.736  15.131  0.00  0.00    +0.000 OA
ATOM     22  H   UNL     1      50.680   6.668  13.110  0.00  0.00    +0.000 HD
BRANCH  20  23
ATOM     23  C   UNL     1      51.073   7.138  15.617  0.00  0.00    +0.000 A 
ATOM     24  C   UNL     1      52.416   7.473  15.519  0.00  0.00    +0.000 A 
ATOM     25  S   UNL     1      53.405   6.664  16.650  0.00  0.00    +0.000 S 
ATOM     26  C   UNL     1      52.078   5.795  17.270  0.00  0.00    +0.000 A 
ATOM     27  N   UNL     1      52.240   4.887  18.269  0.00  0.00    +0.000 NA
ATOM     28  C   UNL     1      51.153   4.289  18.628  0.00  0.00    +0.000 A 
ATOM     29  N   UNL     1      49.920   4.519  18.083  0.00  0.00    +0.000 N 
ATOM     30  C   UNL     1      49.699   5.451  17.091  0.00  0.00    +0.000 A 
ATOM     31  O   UNL     1      48.572   5.666  16.659  0.00  0.00    +0.000 OA
ATOM     32  C   UNL     1      50.894   6.139  16.641  0.00  0.00    +0.000 A 
ATOM     33  H   UNL     1      49.100   4.022  18.418  0.00  0.00    +0.000 HD
ENDBRANCH  20  23
ENDBRANCH  18  19
ENDBRANCH   4  18
TORSDOF 7
ENDMDL
MODEL 5
REMARK VINA RESULT:    -7.626      2.935      4.688
REMARK INTER + INTRA:         -11.866
REMARK INTER:                 -10.991
REMARK INTRA:                  -0.875
REMARK UNBOUND:                -1.119
REMARK  Name = 
REMARK  8 active torsions:
REMARK  status: ('A' for Active; 'I' for Inactive)
REMARK    1  A    between atoms: C_1  and  C_2
REMARK    2  A    between atoms: C_2  and  N_3
REMARK    3  A    between atoms: C_2  and  C_11
REMARK    4  A    between atoms: N_3  and  C_4
REMARK    5  A    between atoms: C_4  and  C_5
REMARK    6  A    between atoms: C_14  and  C_15
REMARK    7  A    between atoms: C_15  and  N_16
REMARK    8  A    between atoms: C_17  and  C_19
REMARK                            x       y       z     vdW  Elec       q    Type
REMARK                         _______ _______ _______ _____ _____    ______ ____
ROOT
ATOM      1  C   UNL     1      45.670   3.013   8.031  0.00  0.00    +0.000 A 
ATOM      2  C   UNL     1      45.822   4.340   8.476  0.00  0.00    +0.000 A 
ATOM      3  C   UNL     1      45.337   4.744   9.722  0.00  0.00    +0.000 A 
ATOM      4  C   UNL     1      44.748   3.809  10.579  0.00  0.00    +0.000 A 
ATOM      5  C   UNL     1      44.576   2.493  10.133  0.00  0.00    +0.000 A 
ATOM      6  C   UNL     1      45.023   2.101   8.872  0.00  0.00    +0.000 A 
ENDROOT
BRANCH   1   8
ATOM      7  C   UNL     1      46.932   3.762   5.953  0.00  0.00    +0.000 C 
ATOM      8  C   UNL     1      46.115   2.643   6.620  0.00  0.00    +0.000 C 
BRANCH   8   9
ATOM      9  N   UNL     1      46.899   1.392   6.593  0.00  0.00    +0.000 NA
ATOM     10  H   UNL     1      46.259   0.602   6.645  0.00  0.00    +0.000 HD
BRANCH   9  11
ATOM     11  C   UNL     1      47.686   1.263   5.359  0.00  0.00    +0.000 C 
BRANCH  11  12
ATOM     12  C   UNL     1      46.980   0.556   4.231  0.00  0.00    +0.000 A 
ATOM     13  C   UNL     1      47.032  -0.848   4.172  0.00  0.00    +0.000 A 
ATOM     14  C   UNL     1      46.315  -1.549   3.206  0.00  0.00    +0.000 A 
ATOM     15  C   UNL     1      45.533  -0.851   2.287  0.00  0.00    +0.000 A 
ATOM     16  C   UNL     1      45.476   0.542   2.332  0.00  0.00    +0.000 A 
ATOM     17  C   UNL     1      46.192   1.243   3.303  0.00  0.00    +0.000 A 
ENDBRANCH  11  12
ENDBRANCH   9  11
ENDBRANCH   8   9
ENDBRANCH   1   8
BRANCH   4  18
ATOM     18  C   UNL     1      44.292   4.194  11.959  0.00  0.00    +0.000 C 
BRANCH  18  19
ATOM     19  N   UNL     1      45.285   4.970  12.651  0.00  0.00    +0.000 N 
ATOM     20  C   UNL     1      46.288   4.355  13.356  0.00  0.00    +0.000 C 
ATOM     21  O   UNL     1      46.404   3.133  13.397  0.00  0.00    +0.000 OA
ATOM     22  H   UNL     1      45.054   5.936  12.858  0.00  0.00    +0.000 HD
BRANCH  20  23
ATOM     23  C   UNL     1      47.260   5.241  14.004  0.00  0.00    +0.000 A 
ATOM     24  C   UNL     1      47.882   6.237  13.265  0.00  0.00    +0.000 A 
ATOM     25  S   UNL     1      48.937   7.212  14.187  0.00  0.00    +0.000 S 
ATOM     26  C   UNL     1      48.640   6.298  15.593  0.00  0.00    +0.000 A 
ATOM     27  N   UNL     1      49.262   6.593  16.765  0.00  0.00    +0.000 NA
ATOM     28  C   UNL     1      48.957   5.806  17.744  0.00  0.00    +0.000 A 
ATOM     29  N   UNL     1      48.086   4.756  17.657  0.00  0.00    +0.000 N 
ATOM     30  C   UNL     1      47.408   4.435  16.500  0.00  0.00    +0.000 A 
ATOM     31  O   UNL     1      46.597   3.515  16.472  0.00  0.00    +0.000 OA
ATOM     32  C   UNL     1      47.728   5.281  15.367  0.00  0.00    +0.000 A 
ATOM     33  H   UNL     1      47.881   4.179  18.469  0.00  0.00    +0.000 HD
ENDBRANCH  20  23
ENDBRANCH  18  19
ENDBRANCH   4  18
TORSDOF 7
ENDMDL
MODEL 6
REMARK VINA RESULT:    -7.507      3.202      5.369
REMARK INTER + INTRA:         -11.698
REMARK INTER:                 -10.649
REMARK INTRA:                  -1.049
REMARK UNBOUND:                -1.119
REMARK  Name = 
REMARK  8 active torsions:
REMARK  status: ('A' for Active; 'I' for Inactive)
REMARK    1  A    between atoms: C_1  and  C_2
REMARK    2  A    between atoms: C_2  and  N_3
REMARK    3  A    between atoms: C_2  and  C_11
REMARK    4  A    between atoms: N_3  and  C_4
REMARK    5  A    between atoms: C_4  and  C_5
REMARK    6  A    between atoms: C_14  and  C_15
REMARK    7  A    between atoms: C_15  and  N_16
REMARK    8  A    between atoms: C_17  and  C_19
REMARK                            x       y       z     vdW  Elec       q    Type
REMARK                         _______ _______ _______ _____ _____    ______ ____
ROOT
ATOM      1  C   UNL     1      45.542   3.168   8.323  0.00  0.00    +0.000 A 
ATOM      2  C   UNL     1      45.644   4.504   8.758  0.00  0.00    +0.000 A 
ATOM      3  C   UNL     1      45.096   4.910   9.976  0.00  0.00    +0.000 A 
ATOM      4  C   UNL     1      44.493   3.972  10.819  0.00  0.00    +0.000 A 
ATOM      5  C   UNL     1      44.370   2.647  10.383  0.00  0.00    +0.000 A 
ATOM      6  C   UNL     1      44.880   2.251   9.148  0.00  0.00    +0.000 A 
ENDROOT
BRANCH   1   8
ATOM      7  C   UNL     1      46.966   3.876   6.338  0.00  0.00    +0.000 C 
ATOM      8  C   UNL     1      46.056   2.792   6.938  0.00  0.00    +0.000 C 
BRANCH   8   9
ATOM      9  N   UNL     1      46.781   1.505   6.943  0.00  0.00    +0.000 NA
ATOM     10  H   UNL     1      46.102   0.745   6.966  0.00  0.00    +0.000 HD
BRANCH   9  11
ATOM     11  C   UNL     1      47.613   1.338   5.745  0.00  0.00    +0.000 C 
BRANCH  11  12
ATOM     12  C   UNL     1      46.972   0.542   4.636  0.00  0.00    +0.000 A 
ATOM     13  C   UNL     1      46.321   1.231   3.596  0.00  0.00    +0.000 A 
ATOM     14  C   UNL     1      45.800   0.543   2.503  0.00  0.00    +0.000 A 
ATOM     15  C   UNL     1      45.928  -0.843   2.436  0.00  0.00    +0.000 A 
ATOM     16  C   UNL     1      46.568  -1.537   3.462  0.00  0.00    +0.000 A 
ATOM     17  C   UNL     1      47.093  -0.848   4.556  0.00  0.00    +0.000 A 
ENDBRANCH  11  12
ENDBRANCH   9  11
ENDBRANCH   8   9
ENDBRANCH   1   8
BRANCH   4  18
ATOM     18  C   UNL     1      43.967   4.363  12.173  0.00  0.00    +0.000 C 
BRANCH  18  19
ATOM     19  N   UNL     1      44.980   4.997  12.973  0.00  0.00    +0.000 N 
ATOM     20  C   UNL     1      46.021   4.269  13.491  0.00  0.00    +0.000 C 
ATOM     21  O   UNL     1      46.155   3.070  13.266  0.00  0.00    +0.000 OA
ATOM     22  H   UNL     1      44.745   5.892  13.391  0.00  0.00    +0.000 HD
BRANCH  20  23
ATOM     23  C   UNL     1      47.008   5.020  14.272  0.00  0.00    +0.000 A 
ATOM     24  C   UNL     1      47.280   4.645  15.581  0.00  0.00    +0.000 A 
ATOM     25  S   UNL     1      48.495   5.586  16.321  0.00  0.00    +0.000 S 
ATOM     26  C   UNL     1      48.659   6.563  14.936  0.00  0.00    +0.000 A 
ATOM     27  N   UNL     1      49.536   7.601  14.910  0.00  0.00    +0.000 NA
ATOM     28  C   UNL     1      49.541   8.268  13.803  0.00  0.00    +0.000 A 
ATOM     29  N   UNL     1      48.753   7.989  12.721  0.00  0.00    +0.000 N 
ATOM     30  C   UNL     1      47.871   6.930  12.688  0.00  0.00    +0.000 A 
ATOM     31  O   UNL     1      47.215   6.680  11.682  0.00  0.00    +0.000 OA
ATOM     32  C   UNL     1      47.817   6.159  13.915  0.00  0.00    +0.000 A 
ATOM     33  H   UNL     1      48.813   8.546  11.874  0.00  0.00    +0.000 HD
ENDBRANCH  20  23
ENDBRANCH  18  19
ENDBRANCH   4  18
TORSDOF 7
ENDMDL
MODEL 7
REMARK VINA RESULT:    -7.451      3.955      9.830
REMARK INTER + INTRA:         -11.620
REMARK INTER:                  -9.632
REMARK INTRA:                  -1.987
REMARK UNBOUND:                -1.119
REMARK  Name = 
REMARK  8 active torsions:
REMARK  status: ('A' for Active; 'I' for Inactive)
REMARK    1  A    between atoms: C_1  and  C_2
REMARK    2  A    between atoms: C_2  and  N_3
REMARK    3  A    between atoms: C_2  and  C_11
REMARK    4  A    between atoms: N_3  and  C_4
REMARK    5  A    between atoms: C_4  and  C_5
REMARK    6  A    between atoms: C_14  and  C_15
REMARK    7  A    between atoms: C_15  and  N_16
REMARK    8  A    between atoms: C_17  and  C_19
REMARK                            x       y       z     vdW  Elec       q    Type
REMARK                         _______ _______ _______ _____ _____    ______ ____
ROOT
ATOM      1  C   UNL     1      51.277   4.881  17.781  0.00  0.00    +0.000 A 
ATOM      2  C   UNL     1      50.929   3.519  17.872  0.00  0.00    +0.000 A 
ATOM      3  C   UNL     1      49.662   3.071  17.495  0.00  0.00    +0.000 A 
ATOM      4  C   UNL     1      48.736   3.966  16.952  0.00  0.00    +0.000 A 
ATOM      5  C   UNL     1      49.068   5.324  16.878  0.00  0.00    +0.000 A 
ATOM      6  C   UNL     1      50.319   5.778  17.295  0.00  0.00    +0.000 A 
ENDROOT
BRANCH   1   8
ATOM      7  C   UNL     1      53.619   5.666  17.176  0.00  0.00    +0.000 C 
ATOM      8  C   UNL     1      52.631   5.343  18.308  0.00  0.00    +0.000 C 
BRANCH   8   9
ATOM      9  N   UNL     1      52.512   6.520  19.193  0.00  0.00    +0.000 NA
ATOM     10  H   UNL     1      51.829   7.163  18.795  0.00  0.00    +0.000 HD
BRANCH   9  11
ATOM     11  C   UNL     1      52.060   6.151  20.541  0.00  0.00    +0.000 C 
BRANCH  11  12
ATOM     12  C   UNL     1      50.563   6.142  20.725  0.00  0.00    +0.000 A 
ATOM     13  C   UNL     1      49.840   7.317  20.452  0.00  0.00    +0.000 A 
ATOM     14  C   UNL     1      48.449   7.328  20.514  0.00  0.00    +0.000 A 
ATOM     15  C   UNL     1      47.764   6.161  20.847  0.00  0.00    +0.000 A 
ATOM     16  C   UNL     1      48.471   4.990  21.124  0.00  0.00    +0.000 A 
ATOM     17  C   UNL     1      49.864   4.979  21.058  0.00  0.00    +0.000 A 
ENDBRANCH  11  12
ENDBRANCH   9  11
ENDBRANCH   8   9
ENDBRANCH   1   8
BRANCH   4  18
ATOM     18  C   UNL     1      47.394   3.499  16.459  0.00  0.00    +0.000 C 
BRANCH  18  19
ATOM     19  N   UNL     1      46.792   4.456  15.571  0.00  0.00    +0.000 N 
ATOM     20  C   UNL     1      46.729   4.216  14.222  0.00  0.00    +0.000 C 
ATOM     21  O   UNL     1      47.143   3.173  13.724  0.00  0.00    +0.000 OA
ATOM     22  H   UNL     1      46.704   5.408  15.910  0.00  0.00    +0.000 HD
BRANCH  20  23
ATOM     23  C   UNL     1      46.073   5.247  13.413  0.00  0.00    +0.000 A 
ATOM     24  C   UNL     1      46.719   6.453  13.178  0.00  0.00    +0.000 A 
ATOM     25  S   UNL     1      45.841   7.512  12.169  0.00  0.00    +0.000 S 
ATOM     26  C   UNL     1      44.542   6.417  12.059  0.00  0.00    +0.000 A 
ATOM     27  N   UNL     1      43.426   6.723  11.345  0.00  0.00    +0.000 NA
ATOM     28  C   UNL     1      42.513   5.808  11.364  0.00  0.00    +0.000 A 
ATOM     29  N   UNL     1      42.617   4.617  12.026  0.00  0.00    +0.000 N 
ATOM     30  C   UNL     1      43.739   4.248  12.737  0.00  0.00    +0.000 A 
ATOM     31  O   UNL     1      43.817   3.150  13.278  0.00  0.00    +0.000 OA
ATOM     32  C   UNL     1      44.788   5.249  12.760  0.00  0.00    +0.000 A 
ATOM     33  H   UNL     1      41.866   3.933  11.992  0.00  0.00    +0.000 HD
ENDBRANCH  20  23
ENDBRANCH  18  19
ENDBRANCH   4  18
TORSDOF 7
ENDMDL
MODEL 8
REMARK VINA RESULT:    -7.317      3.514      8.910
REMARK INTER + INTRA:         -11.431
REMARK INTER:                  -9.401
REMARK INTRA:                  -2.029
REMARK UNBOUND:                -1.119
REMARK  Name = 
REMARK  8 active torsions:
REMARK  status: ('A' for Active; 'I' for Inactive)
REMARK    1  A    between atoms: C_1  and  C_2
REMARK    2  A    between atoms: C_2  and  N_3
REMARK    3  A    between atoms: C_2  and  C_11
REMARK    4  A    between atoms: N_3  and  C_4
REMARK    5  A    between atoms: C_4  and  C_5
REMARK    6  A    between atoms: C_14  and  C_15
REMARK    7  A    between atoms: C_15  and  N_16
REMARK    8  A    between atoms: C_17  and  C_19
REMARK                            x       y       z     vdW  Elec       q    Type
REMARK                         _______ _______ _______ _____ _____    ______ ____
ROOT
ATOM      1  C   UNL     1      49.683   8.316  15.688  0.00  0.00    +0.000 A 
ATOM      2  C   UNL     1      50.246   7.558  14.642  0.00  0.00    +0.000 A 
ATOM      3  C   UNL     1      49.574   7.391  13.430  0.00  0.00    +0.000 A 
ATOM      4  C   UNL     1      48.354   8.037  13.211  0.00  0.00    +0.000 A 
ATOM      5  C   UNL     1      47.780   8.774  14.253  0.00  0.00    +0.000 A 
ATOM      6  C   UNL     1      48.431   8.906  15.479  0.00  0.00    +0.000 A 
ENDROOT
BRANCH   1   8
ATOM      7  C   UNL     1      49.524   9.009  18.130  0.00  0.00    +0.000 C 
ATOM      8  C   UNL     1      50.398   8.380  17.033  0.00  0.00    +0.000 C 
BRANCH   8   9
ATOM      9  N   UNL     1      50.854   7.049  17.485  0.00  0.00    +0.000 NA
ATOM     10  H   UNL     1      51.657   7.168  18.100  0.00  0.00    +0.000 HD
BRANCH   9  11
ATOM     11  C   UNL     1      49.809   6.335  18.230  0.00  0.00    +0.000 C 
BRANCH  11  12
ATOM     12  C   UNL     1      49.256   5.117  17.533  0.00  0.00    +0.000 A 
ATOM     13  C   UNL     1      49.844   3.865  17.787  0.00  0.00    +0.000 A 
ATOM     14  C   UNL     1      49.307   2.702  17.242  0.00  0.00    +0.000 A 
ATOM     15  C   UNL     1      48.170   2.778  16.439  0.00  0.00    +0.000 A 
ATOM     16  C   UNL     1      47.580   4.014  16.177  0.00  0.00    +0.000 A 
ATOM     17  C   UNL     1      48.117   5.179  16.726  0.00  0.00    +0.000 A 
ENDBRANCH  11  12
ENDBRANCH   9  11
ENDBRANCH   8   9
ENDBRANCH   1   8
BRANCH   4  18
ATOM     18  C   UNL     1      47.648   7.944  11.886  0.00  0.00    +0.000 C 
BRANCH  18  19
ATOM     19  N   UNL     1      46.953   6.693  11.741  0.00  0.00    +0.000 N 
ATOM     20  C   UNL     1      45.586   6.638  11.824  0.00  0.00    +0.000 C 
ATOM     21  O   UNL     1      44.900   7.644  11.986  0.00  0.00    +0.000 OA
ATOM     22  H   UNL     1      47.493   5.846  11.885  0.00  0.00    +0.000 HD
BRANCH  20  23
ATOM     23  C   UNL     1      44.980   5.316  11.638  0.00  0.00    +0.000 A 
ATOM     24  C   UNL     1      44.292   4.720  12.686  0.00  0.00    +0.000 A 
ATOM     25  S   UNL     1      43.601   3.214  12.278  0.00  0.00    +0.000 S 
ATOM     26  C   UNL     1      44.247   3.282  10.704  0.00  0.00    +0.000 A 
ATOM     27  N   UNL     1      44.045   2.270   9.820  0.00  0.00    +0.000 NA
ATOM     28  C   UNL     1      44.608   2.445   8.670  0.00  0.00    +0.000 A 
ATOM     29  N   UNL     1      45.349   3.542   8.324  0.00  0.00    +0.000 N 
ATOM     30  C   UNL     1      45.555   4.608   9.174  0.00  0.00    +0.000 A 
ATOM     31  O   UNL     1      46.184   5.597   8.813  0.00  0.00    +0.000 OA
ATOM     32  C   UNL     1      44.956   4.450  10.485  0.00  0.00    +0.000 A 
ATOM     33  H   UNL     1      45.757   3.625   7.397  0.00  0.00    +0.000 HD
ENDBRANCH  20  23
ENDBRANCH  18  19
ENDBRANCH   4  18
TORSDOF 7
ENDMDL
MODEL 9
REMARK VINA RESULT:    -7.299      3.593      8.721
REMARK INTER + INTRA:         -11.404
REMARK INTER:                  -8.904
REMARK INTRA:                  -2.500
REMARK UNBOUND:                -1.119
REMARK  Name = 
REMARK  8 active torsions:
REMARK  status: ('A' for Active; 'I' for Inactive)
REMARK    1  A    between atoms: C_1  and  C_2
REMARK    2  A    between atoms: C_2  and  N_3
REMARK    3  A    between atoms: C_2  and  C_11
REMARK    4  A    between atoms: N_3  and  C_4
REMARK    5  A    between atoms: C_4  and  C_5
REMARK    6  A    between atoms: C_14  and  C_15
REMARK    7  A    between atoms: C_15  and  N_16
REMARK    8  A    between atoms: C_17  and  C_19
REMARK                            x       y       z     vdW  Elec       q    Type
REMARK                         _______ _______ _______ _____ _____    ______ ____
ROOT
ATOM      1  C   UNL     1      49.906   7.233  18.576  0.00  0.00    +0.000 A 
ATOM      2  C   UNL     1      50.507   6.685  17.427  0.00  0.00    +0.000 A 
ATOM      3  C   UNL     1      50.029   6.983  16.149  0.00  0.00    +0.000 A 
ATOM      4  C   UNL     1      48.980   7.893  15.990  0.00  0.00    +0.000 A 
ATOM      5  C   UNL     1      48.364   8.425  17.130  0.00  0.00    +0.000 A 
ATOM      6  C   UNL     1      48.815   8.094  18.407  0.00  0.00    +0.000 A 
ENDROOT
BRANCH   1   8
ATOM      7  C   UNL     1      49.519   7.362  21.087  0.00  0.00    +0.000 C 
ATOM      8  C   UNL     1      50.389   6.794  19.954  0.00  0.00    +0.000 C 
BRANCH   8   9
ATOM      9  N   UNL     1      50.444   5.323  20.081  0.00  0.00    +0.000 NA
ATOM     10  H   UNL     1      50.920   5.086  20.950  0.00  0.00    +0.000 HD
BRANCH   9  11
ATOM     11  C   UNL     1      49.104   4.723  20.116  0.00  0.00    +0.000 C 
BRANCH  11  12
ATOM     12  C   UNL     1      48.655   4.106  18.816  0.00  0.00    +0.000 A 
ATOM     13  C   UNL     1      47.502   4.611  18.188  0.00  0.00    +0.000 A 
ATOM     14  C   UNL     1      47.105   4.138  16.940  0.00  0.00    +0.000 A 
ATOM     15  C   UNL     1      47.860   3.155  16.303  0.00  0.00    +0.000 A 
ATOM     16  C   UNL     1      49.003   2.643  16.918  0.00  0.00    +0.000 A 
ATOM     17  C   UNL     1      49.403   3.120  18.167  0.00  0.00    +0.000 A 
ENDBRANCH  11  12
ENDBRANCH   9  11
ENDBRANCH   8   9
ENDBRANCH   1   8
BRANCH   4  18
ATOM     18  C   UNL     1      48.497   8.298  14.625  0.00  0.00    +0.000 C 
BRANCH  18  19
ATOM     19  N   UNL     1      47.451   7.433  14.152  0.00  0.00    +0.000 N 
ATOM     20  C   UNL     1      47.728   6.405  13.287  0.00  0.00    +0.000 C 
ATOM     21  O   UNL     1      48.871   6.156  12.913  0.00  0.00    +0.000 OA
ATOM     22  H   UNL     1      46.499   7.780  14.220  0.00  0.00    +0.000 HD
BRANCH  20  23
ATOM     23  C   UNL     1      46.590   5.572  12.888  0.00  0.00    +0.000 A 
ATOM     24  C   UNL     1      46.653   4.195  13.055  0.00  0.00    +0.000 A 
ATOM     25  S   UNL     1      45.222   3.387  12.594  0.00  0.00    +0.000 S 
ATOM     26  C   UNL     1      44.493   4.845  12.103  0.00  0.00    +0.000 A 
ATOM     27  N   UNL     1      43.239   4.858  11.575  0.00  0.00    +0.000 NA
ATOM     28  C   UNL     1      42.819   6.029  11.228  0.00  0.00    +0.000 A 
ATOM     29  N   UNL     1      43.535   7.186  11.364  0.00  0.00    +0.000 N 
ATOM     30  C   UNL     1      44.795   7.229  11.921  0.00  0.00    +0.000 A 
ATOM     31  O   UNL     1      45.388   8.292  12.072  0.00  0.00    +0.000 OA
ATOM     32  C   UNL     1      45.319   5.935  12.312  0.00  0.00    +0.000 A 
ATOM     33  H   UNL     1      43.142   8.080  11.081  0.00  0.00    +0.000 HD
ENDBRANCH  20  23
ENDBRANCH  18  19
ENDBRANCH   4  18
TORSDOF 7
ENDMDL
