MODEL 1
REMARK VINA RESULT:    -8.149      0.000      0.000
REMARK INTER + INTRA:         -11.506
REMARK INTER:                 -10.531
REMARK INTRA:                  -0.975
REMARK UNBOUND:                -0.975
REMARK  Name = 
REMARK  5 active torsions:
REMARK  status: ('A' for Active; 'I' for Inactive)
REMARK    1  A    between atoms: C_2  and  C_4
REMARK    2  A    between atoms: C_7  and  C_8
REMARK    3  A    between atoms: C_8  and  N_9
REMARK    4  A    between atoms: N_9  and  C_10
REMARK    5  A    between atoms: C_14  and  N_15
REMARK                            x       y       z     vdW  Elec       q    Type
REMARK                         _______ _______ _______ _____ _____    ______ ____
ROOT
ATOM      1  N   UNL     1      44.235   5.476  10.651  0.00  0.00    +0.000 N 
ATOM      2  H   UNL     1      44.556   6.113   9.920  0.00  0.00    +0.000 HD
ENDROOT
BRANCH   1   3
ATOM      3  C   UNL     1      45.171   5.451  11.695  0.00  0.00    +0.000 A 
ATOM      4  C   UNL     1      45.253   4.454  12.666  0.00  0.00    +0.000 A 
ATOM      5  C   UNL     1      46.247   4.501  13.643  0.00  0.00    +0.000 A 
ATOM      6  C   UNL     1      47.162   5.556  13.669  0.00  0.00    +0.000 A 
ATOM      7  C   UNL     1      47.095   6.603  12.743  0.00  0.00    +0.000 A 
ATOM      8  C   UNL     1      46.048   6.543  11.807  0.00  0.00    +0.000 A 
BRANCH   7   9
ATOM      9  N   UNL     1      48.043   7.609  12.705  0.00  0.00    +0.000 N 
ATOM     10  C   UNL     1      47.676   9.012  12.910  0.00  0.00    +0.000 C 
ATOM     11  C   UNL     1      48.240   9.861  11.770  0.00  0.00    +0.000 C 
ATOM     12  C   UNL     1      49.733   9.622  11.564  0.00  0.00    +0.000 C 
ATOM     13  C   UNL     1      50.040   8.132  11.411  0.00  0.00    +0.000 C 
ATOM     14  C   UNL     1      49.472   7.331  12.582  0.00  0.00    +0.000 C 
ENDBRANCH   7   9
ENDBRANCH   1   3
BRANCH   1  15
ATOM     15  C   UNL     1      43.737   4.224  10.096  0.00  0.00    +0.000 C 
BRANCH  15  19
ATOM     16  C   UNL     1      46.628   2.394   7.436  0.00  0.00    +0.000 A 
ATOM     17  C   UNL     1      45.939   1.611   8.369  0.00  0.00    +0.000 A 
ATOM     18  C   UNL     1      45.021   2.207   9.244  0.00  0.00    +0.000 A 
ATOM     19  C   UNL     1      44.779   3.589   9.201  0.00  0.00    +0.000 A 
ATOM     20  C   UNL     1      45.495   4.367   8.278  0.00  0.00    +0.000 A 
ATOM     21  C   UNL     1      46.415   3.777   7.407  0.00  0.00    +0.000 A 
BRANCH  16  23
ATOM     22  N   UNL     1      48.761   2.498   6.260  0.00  0.00    +0.000 N 
ATOM     23  C   UNL     1      47.608   1.805   6.484  0.00  0.00    +0.000 C 
ATOM     24  O   UNL     1      47.417   0.720   5.950  0.00  0.00    +0.000 OA
ATOM     25  H   UNL     1      49.465   2.025   5.702  0.00  0.00    +0.000 HD
ATOM     26  H   UNL     1      49.075   3.240   6.870  0.00  0.00    +0.000 HD
ENDBRANCH  16  23
ENDBRANCH  15  19
ENDBRANCH   1  15
TORSDOF 5
ENDMDL
MODEL 2
REMARK VINA RESULT:    -7.871      2.083      3.689
REMARK INTER + INTRA:         -11.146
REMARK INTER:                 -10.291
REMARK INTRA:                  -0.855
REMARK UNBOUND:                -0.975
REMARK  Name = 
REMARK  5 active torsions:
REMARK  status: ('A' for Active; 'I' for Inactive)
REMARK    1  A    between atoms: C_2  and  C_4
REMARK    2  A    between atoms: C_7  and  C_8
REMARK    3  A    between atoms: C_8  and  N_9
REMARK    4  A    between atoms: N_9  and  C_10
REMARK    5  A    between atoms: C_14  and  N_15
REMARK                            x       y       z     vdW  Elec       q    Type
REMARK                         _______ _______ _______ _____ _____    ______ ____
ROOT
ATOM      1  N   UNL     1      44.649   4.193  11.866  0.00  0.00    +0.000 N 
ATOM      2  H   UNL     1      43.892   4.120  12.549  0.00  0.00    +0.000 HD
ENDROOT
BRANCH   1   3
ATOM      3  C   UNL     1      45.703   4.939  12.416  0.00  0.00    +0.000 A 
ATOM      4  C   UNL     1      46.282   6.057  11.818  0.00  0.00    +0.000 A 
ATOM      5  C   UNL     1      47.303   6.753  12.465  0.00  0.00    +0.000 A 
ATOM      6  C   UNL     1      47.768   6.328  13.711  0.00  0.00    +0.000 A 
ATOM      7  C   UNL     1      47.250   5.186  14.332  0.00  0.00    +0.000 A 
ATOM      8  C   UNL     1      46.258   4.485  13.624  0.00  0.00    +0.000 A 
BRANCH   7   9
ATOM      9  N   UNL     1      47.641   4.802  15.602  0.00  0.00    +0.000 N 
ATOM     10  C   UNL     1      48.431   5.690  16.458  0.00  0.00    +0.000 C 
ATOM     11  C   UNL     1      49.657   4.941  16.981  0.00  0.00    +0.000 C 
ATOM     12  C   UNL     1      49.282   3.610  17.626  0.00  0.00    +0.000 C 
ATOM     13  C   UNL     1      48.416   2.765  16.691  0.00  0.00    +0.000 C 
ATOM     14  C   UNL     1      47.197   3.551  16.212  0.00  0.00    +0.000 C 
ENDBRANCH   7   9
ENDBRANCH   1   3
BRANCH   1  15
ATOM     15  C   UNL     1      44.149   4.519  10.538  0.00  0.00    +0.000 C 
BRANCH  15  19
ATOM     16  C   UNL     1      46.590   2.494   7.583  0.00  0.00    +0.000 A 
ATOM     17  C   UNL     1      46.475   3.888   7.562  0.00  0.00    +0.000 A 
ATOM     18  C   UNL     1      45.667   4.541   8.502  0.00  0.00    +0.000 A 
ATOM     19  C   UNL     1      44.965   3.813   9.476  0.00  0.00    +0.000 A 
ATOM     20  C   UNL     1      45.069   2.413   9.472  0.00  0.00    +0.000 A 
ATOM     21  C   UNL     1      45.870   1.758   8.532  0.00  0.00    +0.000 A 
BRANCH  16  23
ATOM     22  N   UNL     1      48.558   2.388   6.148  0.00  0.00    +0.000 N 
ATOM     23  C   UNL     1      47.439   1.758   6.608  0.00  0.00    +0.000 C 
ATOM     24  O   UNL     1      47.175   0.616   6.256  0.00  0.00    +0.000 OA
ATOM     25  H   UNL     1      49.182   1.828   5.578  0.00  0.00    +0.000 HD
ATOM     26  H   UNL     1      48.951   3.199   6.606  0.00  0.00    +0.000 HD
ENDBRANCH  16  23
ENDBRANCH  15  19
ENDBRANCH   1  15
TORSDOF 5
ENDMDL
MODEL 3
REMARK VINA RESULT:    -7.325      2.565      3.550
REMARK INTER + INTRA:         -10.441
REMARK INTER:                  -9.570
REMARK INTRA:                  -0.871
REMARK UNBOUND:                -0.975
REMARK  Name = 
REMARK  5 active torsions:
REMARK  status: ('A' for Active; 'I' for Inactive)
REMARK    1  A    between atoms: C_2  and  C_4
REMARK    2  A    between atoms: C_7  and  C_8
REMARK    3  A    between atoms: C_8  and  N_9
REMARK    4  A    between atoms: N_9  and  C_10
REMARK    5  A    between atoms: C_14  and  N_15
REMARK                            x       y       z     vdW  Elec       q    Type
REMARK                         _______ _______ _______ _____ _____    ______ ____
ROOT
ATOM      1  N   UNL     1      44.364   4.766  11.624  0.00  0.00    +0.000 N 
ATOM      2  H   UNL     1      43.739   4.494  12.384  0.00  0.00    +0.000 HD
ENDROOT
BRANCH   1   3
ATOM      3  C   UNL     1      44.980   5.987  11.940  0.00  0.00    +0.000 A 
ATOM      4  C   UNL     1      46.143   6.117  12.697  0.00  0.00    +0.000 A 
ATOM      5  C   UNL     1      46.699   7.376  12.924  0.00  0.00    +0.000 A 
ATOM      6  C   UNL     1      46.087   8.522  12.410  0.00  0.00    +0.000 A 
ATOM      7  C   UNL     1      44.895   8.447  11.680  0.00  0.00    +0.000 A 
ATOM      8  C   UNL     1      44.342   7.165  11.517  0.00  0.00    +0.000 A 
BRANCH   7   9
ATOM      9  N   UNL     1      44.325   9.562  11.094  0.00  0.00    +0.000 N 
ATOM     10  C   UNL     1      45.106  10.774  10.839  0.00  0.00    +0.000 C 
ATOM     11  C   UNL     1      44.374  11.987  11.416  0.00  0.00    +0.000 C 
ATOM     12  C   UNL     1      42.926  12.057  10.942  0.00  0.00    +0.000 C 
ATOM     13  C   UNL     1      42.195  10.739  11.196  0.00  0.00    +0.000 C 
ATOM     14  C   UNL     1      42.955   9.563  10.586  0.00  0.00    +0.000 C 
ENDBRANCH   7   9
ENDBRANCH   1   3
BRANCH   1  15
ATOM     15  C   UNL     1      43.739   4.588  10.320  0.00  0.00    +0.000 C 
BRANCH  15  19
ATOM     16  C   UNL     1      46.513   2.501   7.723  0.00  0.00    +0.000 A 
ATOM     17  C   UNL     1      46.419   3.897   7.673  0.00  0.00    +0.000 A 
ATOM     18  C   UNL     1      45.506   4.569   8.496  0.00  0.00    +0.000 A 
ATOM     19  C   UNL     1      44.675   3.860   9.379  0.00  0.00    +0.000 A 
ATOM     20  C   UNL     1      44.761   2.460   9.402  0.00  0.00    +0.000 A 
ATOM     21  C   UNL     1      45.667   1.785   8.578  0.00  0.00    +0.000 A 
BRANCH  16  23
ATOM     22  N   UNL     1      48.567   2.414   6.413  0.00  0.00    +0.000 N 
ATOM     23  C   UNL     1      47.470   1.745   6.872  0.00  0.00    +0.000 C 
ATOM     24  O   UNL     1      47.311   0.558   6.620  0.00  0.00    +0.000 OA
ATOM     25  H   UNL     1      49.263   1.852   5.934  0.00  0.00    +0.000 HD
ATOM     26  H   UNL     1      48.871   3.292   6.809  0.00  0.00    +0.000 HD
ENDBRANCH  16  23
ENDBRANCH  15  19
ENDBRANCH   1  15
TORSDOF 5
ENDMDL
MODEL 4
REMARK VINA RESULT:    -7.067      4.462      8.434
REMARK INTER + INTRA:         -10.107
REMARK INTER:                  -9.464
REMARK INTRA:                  -0.643
REMARK UNBOUND:                -0.975
REMARK  Name = 
REMARK  5 active torsions:
REMARK  status: ('A' for Active; 'I' for Inactive)
REMARK    1  A    between atoms: C_2  and  C_4
REMARK    2  A    between atoms: C_7  and  C_8
REMARK    3  A    between atoms: C_8  and  N_9
REMARK    4  A    between atoms: N_9  and  C_10
REMARK    5  A    between atoms: C_14  and  N_15
REMARK                            x       y       z     vdW  Elec       q    Type
REMARK                         _______ _______ _______ _____ _____    ______ ____
ROOT
ATOM      1  N   UNL     1      45.903   3.994  13.966  0.00  0.00    +0.000 N 
ATOM      2  H   UNL     1      46.152   3.004  13.963  0.00  0.00    +0.000 HD
ENDROOT
BRANCH   1   3
ATOM      3  C   UNL     1      44.979   4.247  12.941  0.00  0.00    +0.000 A 
ATOM      4  C   UNL     1      43.830   5.025  13.080  0.00  0.00    +0.000 A 
ATOM      5  C   UNL     1      42.993   5.248  11.987  0.00  0.00    +0.000 A 
ATOM      6  C   UNL     1      43.287   4.680  10.745  0.00  0.00    +0.000 A 
ATOM      7  C   UNL     1      44.404   3.856  10.566  0.00  0.00    +0.000 A 
ATOM      8  C   UNL     1      45.193   3.617  11.704  0.00  0.00    +0.000 A 
BRANCH   7   9
ATOM      9  N   UNL     1      44.753   3.356   9.325  0.00  0.00    +0.000 N 
ATOM     10  C   UNL     1      44.704   1.920   9.039  0.00  0.00    +0.000 C 
ATOM     11  C   UNL     1      46.038   1.471   8.441  0.00  0.00    +0.000 C 
ATOM     12  C   UNL     1      46.453   2.337   7.256  0.00  0.00    +0.000 C 
ATOM     13  C   UNL     1      46.428   3.822   7.619  0.00  0.00    +0.000 C 
ATOM     14  C   UNL     1      45.071   4.225   8.194  0.00  0.00    +0.000 C 
ENDBRANCH   7   9
ENDBRANCH   1   3
BRANCH   1  15
ATOM     15  C   UNL     1      47.075   4.846  14.109  0.00  0.00    +0.000 C 
BRANCH  15  19
ATOM     16  C   UNL     1      48.455   4.760  18.218  0.00  0.00    +0.000 A 
ATOM     17  C   UNL     1      48.831   5.811  17.373  0.00  0.00    +0.000 A 
ATOM     18  C   UNL     1      48.404   5.826  16.038  0.00  0.00    +0.000 A 
ATOM     19  C   UNL     1      47.597   4.796  15.529  0.00  0.00    +0.000 A 
ATOM     20  C   UNL     1      47.248   3.735  16.379  0.00  0.00    +0.000 A 
ATOM     21  C   UNL     1      47.677   3.713  17.710  0.00  0.00    +0.000 A 
BRANCH  16  23
ATOM     22  N   UNL     1      48.511   3.608  20.365  0.00  0.00    +0.000 N 
ATOM     23  C   UNL     1      48.881   4.703  19.642  0.00  0.00    +0.000 C 
ATOM     24  O   UNL     1      49.573   5.579  20.143  0.00  0.00    +0.000 OA
ATOM     25  H   UNL     1      48.909   3.533  21.296  0.00  0.00    +0.000 HD
ATOM     26  H   UNL     1      48.183   2.756  19.931  0.00  0.00    +0.000 HD
ENDBRANCH  16  23
ENDBRANCH  15  19
ENDBRANCH   1  15
TORSDOF 5
ENDMDL
MODEL 5
REMARK VINA RESULT:    -6.958      4.861      7.994
REMARK INTER + INTRA:          -9.966
REMARK INTER:                  -9.174
REMARK INTRA:                  -0.793
REMARK UNBOUND:                -0.975
REMARK  Name = 
REMARK  5 active torsions:
REMARK  status: ('A' for Active; 'I' for Inactive)
REMARK    1  A    between atoms: C_2  and  C_4
REMARK    2  A    between atoms: C_7  and  C_8
REMARK    3  A    between atoms: C_8  and  N_9
REMARK    4  A    between atoms: N_9  and  C_10
REMARK    5  A    between atoms: C_14  and  N_15
REMARK                            x       y       z     vdW  Elec       q    Type
REMARK                         _______ _______ _______ _____ _____    ______ ____
ROOT
ATOM      1  N   UNL     1      46.859   4.141  15.465  0.00  0.00    +0.000 N 
ATOM      2  H   UNL     1      47.138   3.190  15.218  0.00  0.00    +0.000 HD
ENDROOT
BRANCH   1   3
ATOM      3  C   UNL     1      46.918   4.956  14.324  0.00  0.00    +0.000 A 
ATOM      4  C   UNL     1      47.739   6.074  14.187  0.00  0.00    +0.000 A 
ATOM      5  C   UNL     1      47.752   6.798  12.995  0.00  0.00    +0.000 A 
ATOM      6  C   UNL     1      46.929   6.421  11.931  0.00  0.00    +0.000 A 
ATOM      7  C   UNL     1      46.056   5.332  12.035  0.00  0.00    +0.000 A 
ATOM      8  C   UNL     1      46.038   4.661  13.269  0.00  0.00    +0.000 A 
BRANCH   7   9
ATOM      9  N   UNL     1      45.298   4.898  10.963  0.00  0.00    +0.000 N 
ATOM     10  C   UNL     1      44.182   3.967  11.144  0.00  0.00    +0.000 C 
ATOM     11  C   UNL     1      44.333   2.790  10.179  0.00  0.00    +0.000 C 
ATOM     12  C   UNL     1      44.541   3.255   8.741  0.00  0.00    +0.000 C 
ATOM     13  C   UNL     1      45.687   4.262   8.644  0.00  0.00    +0.000 C 
ATOM     14  C   UNL     1      45.480   5.425   9.612  0.00  0.00    +0.000 C 
ENDBRANCH   7   9
ENDBRANCH   1   3
BRANCH   1  15
ATOM     15  C   UNL     1      47.485   4.584  16.703  0.00  0.00    +0.000 C 
BRANCH  15  19
ATOM     16  C   UNL     1      51.061   2.250  17.447  0.00  0.00    +0.000 A 
ATOM     17  C   UNL     1      49.957   1.662  16.821  0.00  0.00    +0.000 A 
ATOM     18  C   UNL     1      48.792   2.410  16.602  0.00  0.00    +0.000 A 
ATOM     19  C   UNL     1      48.714   3.753  17.003  0.00  0.00    +0.000 A 
ATOM     20  C   UNL     1      49.819   4.325  17.652  0.00  0.00    +0.000 A 
ATOM     21  C   UNL     1      50.980   3.580  17.878  0.00  0.00    +0.000 A 
BRANCH  16  23
ATOM     22  N   UNL     1      52.204   0.229  18.189  0.00  0.00    +0.000 N 
ATOM     23  C   UNL     1      52.319   1.497  17.697  0.00  0.00    +0.000 C 
ATOM     24  O   UNL     1      53.417   1.969  17.437  0.00  0.00    +0.000 OA
ATOM     25  H   UNL     1      53.064  -0.308  18.241  0.00  0.00    +0.000 HD
ATOM     26  H   UNL     1      51.336  -0.287  18.162  0.00  0.00    +0.000 HD
ENDBRANCH  16  23
ENDBRANCH  15  19
ENDBRANCH   1  15
TORSDOF 5
ENDMDL
MODEL 6
REMARK VINA RESULT:    -6.637      2.909      6.709
REMARK INTER + INTRA:          -9.552
REMARK INTER:                  -8.663
REMARK INTRA:                  -0.888
REMARK UNBOUND:                -0.975
REMARK  Name = 
REMARK  5 active torsions:
REMARK  status: ('A' for Active; 'I' for Inactive)
REMARK    1  A    between atoms: C_2  and  C_4
REMARK    2  A    between atoms: C_7  and  C_8
REMARK    3  A    between atoms: C_8  and  N_9
REMARK    4  A    between atoms: N_9  and  C_10
REMARK    5  A    between atoms: C_14  and  N_15
REMARK                            x       y       z     vdW  Elec       q    Type
REMARK                         _______ _______ _______ _____ _____    ______ ____
ROOT
ATOM      1  N   UNL     1      44.380   7.340  11.631  0.00  0.00    +0.000 N 
ATOM      2  H   UNL     1      43.471   7.784  11.492  0.00  0.00    +0.000 HD
ENDROOT
BRANCH   1   3
ATOM      3  C   UNL     1      44.228   5.945  11.599  0.00  0.00    +0.000 A 
ATOM      4  C   UNL     1      43.674   5.182  12.626  0.00  0.00    +0.000 A 
ATOM      5  C   UNL     1      43.533   3.802  12.481  0.00  0.00    +0.000 A 
ATOM      6  C   UNL     1      43.960   3.167  11.312  0.00  0.00    +0.000 A 
ATOM      7  C   UNL     1      44.562   3.883  10.271  0.00  0.00    +0.000 A 
ATOM      8  C   UNL     1      44.731   5.263  10.478  0.00  0.00    +0.000 A 
BRANCH   7   9
ATOM      9  N   UNL     1      44.913   3.282   9.077  0.00  0.00    +0.000 N 
ATOM     10  C   UNL     1      44.850   1.828   8.907  0.00  0.00    +0.000 C 
ATOM     11  C   UNL     1      46.183   1.318   8.357  0.00  0.00    +0.000 C 
ATOM     12  C   UNL     1      46.614   2.082   7.109  0.00  0.00    +0.000 C 
ATOM     13  C   UNL     1      46.603   3.591   7.351  0.00  0.00    +0.000 C 
ATOM     14  C   UNL     1      45.248   4.053   7.882  0.00  0.00    +0.000 C 
ENDBRANCH   7   9
ENDBRANCH   1   3
BRANCH   1  15
ATOM     15  C   UNL     1      45.125   7.961  12.717  0.00  0.00    +0.000 C 
BRANCH  15  19
ATOM     16  C   UNL     1      49.362   8.240  11.845  0.00  0.00    +0.000 A 
ATOM     17  C   UNL     1      48.558   9.384  11.793  0.00  0.00    +0.000 A 
ATOM     18  C   UNL     1      47.184   9.290  12.052  0.00  0.00    +0.000 A 
ATOM     19  C   UNL     1      46.595   8.055  12.367  0.00  0.00    +0.000 A 
ATOM     20  C   UNL     1      47.406   6.911  12.392  0.00  0.00    +0.000 A 
ATOM     21  C   UNL     1      48.777   7.000  12.129  0.00  0.00    +0.000 A 
BRANCH  16  23
ATOM     22  N   UNL     1      51.385   7.229  10.936  0.00  0.00    +0.000 N 
ATOM     23  C   UNL     1      50.825   8.292  11.582  0.00  0.00    +0.000 C 
ATOM     24  O   UNL     1      51.501   9.265  11.889  0.00  0.00    +0.000 OA
ATOM     25  H   UNL     1      52.357   7.336  10.662  0.00  0.00    +0.000 HD
ATOM     26  H   UNL     1      50.834   6.548  10.433  0.00  0.00    +0.000 HD
ENDBRANCH  16  23
ENDBRANCH  15  19
ENDBRANCH   1  15
TORSDOF 5
ENDMDL
MODEL 7
REMARK VINA RESULT:    -6.419      2.750      6.874
REMARK INTER + INTRA:          -9.270
REMARK INTER:                  -8.213
REMARK INTRA:                  -1.057
REMARK UNBOUND:                -0.975
REMARK  Name = 
REMARK  5 active torsions:
REMARK  status: ('A' for Active; 'I' for Inactive)
REMARK    1  A    between atoms: C_2  and  C_4
REMARK    2  A    between atoms: C_7  and  C_8
REMARK    3  A    between atoms: C_8  and  N_9
REMARK    4  A    between atoms: N_9  and  C_10
REMARK    5  A    between atoms: C_14  and  N_15
REMARK                            x       y       z     vdW  Elec       q    Type
REMARK                         _______ _______ _______ _____ _____    ______ ____
ROOT
ATOM      1  N   UNL     1      46.448   3.887  13.612  0.00  0.00    +0.000 N 
ATOM      2  H   UNL     1      47.283   3.531  13.144  0.00  0.00    +0.000 HD
ENDROOT
BRANCH   1   3
ATOM      3  C   UNL     1      45.391   3.961  12.691  0.00  0.00    +0.000 A 
ATOM      4  C   UNL     1      44.135   4.500  12.965  0.00  0.00    +0.000 A 
ATOM      5  C   UNL     1      43.161   4.561  11.968  0.00  0.00    +0.000 A 
ATOM      6  C   UNL     1      43.429   4.067  10.689  0.00  0.00    +0.000 A 
ATOM      7  C   UNL     1      44.660   3.478  10.377  0.00  0.00    +0.000 A 
ATOM      8  C   UNL     1      45.594   3.391  11.423  0.00  0.00    +0.000 A 
BRANCH   7   9
ATOM      9  N   UNL     1      44.968   3.062   9.095  0.00  0.00    +0.000 N 
ATOM     10  C   UNL     1      45.073   1.641   8.758  0.00  0.00    +0.000 C 
ATOM     11  C   UNL     1      46.401   1.380   8.045  0.00  0.00    +0.000 C 
ATOM     12  C   UNL     1      46.611   2.325   6.866  0.00  0.00    +0.000 C 
ATOM     13  C   UNL     1      46.433   3.784   7.288  0.00  0.00    +0.000 C 
ATOM     14  C   UNL     1      45.087   3.997   7.978  0.00  0.00    +0.000 C 
ENDBRANCH   7   9
ENDBRANCH   1   3
BRANCH   1  15
ATOM     15  C   UNL     1      46.750   5.033  14.459  0.00  0.00    +0.000 C 
BRANCH  15  19
ATOM     16  C   UNL     1      48.428   8.336  12.209  0.00  0.00    +0.000 A 
ATOM     17  C   UNL     1      47.081   8.358  12.588  0.00  0.00    +0.000 A 
ATOM     18  C   UNL     1      46.533   7.279  13.295  0.00  0.00    +0.000 A 
ATOM     19  C   UNL     1      47.320   6.167  13.633  0.00  0.00    +0.000 A 
ATOM     20  C   UNL     1      48.663   6.146  13.226  0.00  0.00    +0.000 A 
ATOM     21  C   UNL     1      49.212   7.218  12.516  0.00  0.00    +0.000 A 
BRANCH  16  23
ATOM     22  N   UNL     1      48.251  10.505  11.110  0.00  0.00    +0.000 N 
ATOM     23  C   UNL     1      49.054   9.460  11.461  0.00  0.00    +0.000 C 
ATOM     24  O   UNL     1      50.250   9.475  11.202  0.00  0.00    +0.000 OA
ATOM     25  H   UNL     1      48.719  11.310  10.707  0.00  0.00    +0.000 HD
ATOM     26  H   UNL     1      47.345  10.658  11.530  0.00  0.00    +0.000 HD
ENDBRANCH  16  23
ENDBRANCH  15  19
ENDBRANCH   1  15
TORSDOF 5
ENDMDL
MODEL 8
REMARK VINA RESULT:    -6.409      4.807      8.044
REMARK INTER + INTRA:          -9.257
REMARK INTER:                  -8.416
REMARK INTRA:                  -0.841
REMARK UNBOUND:                -0.975
REMARK  Name = 
REMARK  5 active torsions:
REMARK  status: ('A' for Active; 'I' for Inactive)
REMARK    1  A    between atoms: C_2  and  C_4
REMARK    2  A    between atoms: C_7  and  C_8
REMARK    3  A    between atoms: C_8  and  N_9
REMARK    4  A    between atoms: N_9  and  C_10
REMARK    5  A    between atoms: C_14  and  N_15
REMARK                            x       y       z     vdW  Elec       q    Type
REMARK                         _______ _______ _______ _____ _____    ______ ____
ROOT
ATOM      1  N   UNL     1      48.033   6.075  15.836  0.00  0.00    +0.000 N 
ATOM      2  H   UNL     1      47.700   6.885  16.361  0.00  0.00    +0.000 HD
ENDROOT
BRANCH   1   3
ATOM      3  C   UNL     1      47.814   6.284  14.466  0.00  0.00    +0.000 A 
ATOM      4  C   UNL     1      48.672   6.989  13.623  0.00  0.00    +0.000 A 
ATOM      5  C   UNL     1      48.383   7.109  12.263  0.00  0.00    +0.000 A 
ATOM      6  C   UNL     1      47.222   6.539  11.735  0.00  0.00    +0.000 A 
ATOM      7  C   UNL     1      46.308   5.859  12.549  0.00  0.00    +0.000 A 
ATOM      8  C   UNL     1      46.612   5.804  13.919  0.00  0.00    +0.000 A 
BRANCH   7   9
ATOM      9  N   UNL     1      45.199   5.219  12.026  0.00  0.00    +0.000 N 
ATOM     10  C   UNL     1      44.022   4.937  12.851  0.00  0.00    +0.000 C 
ATOM     11  C   UNL     1      43.645   3.461  12.719  0.00  0.00    +0.000 C 
ATOM     12  C   UNL     1      43.511   3.034  11.260  0.00  0.00    +0.000 C 
ATOM     13  C   UNL     1      44.756   3.410  10.456  0.00  0.00    +0.000 C 
ATOM     14  C   UNL     1      45.080   4.896  10.607  0.00  0.00    +0.000 C 
ENDBRANCH   7   9
ENDBRANCH   1   3
BRANCH   1  15
ATOM     15  C   UNL     1      47.615   4.823  16.452  0.00  0.00    +0.000 C 
BRANCH  15  19
ATOM     16  C   UNL     1      50.998   2.281  17.393  0.00  0.00    +0.000 A 
ATOM     17  C   UNL     1      51.064   3.657  17.639  0.00  0.00    +0.000 A 
ATOM     18  C   UNL     1      49.979   4.482  17.314  0.00  0.00    +0.000 A 
ATOM     19  C   UNL     1      48.815   3.946  16.739  0.00  0.00    +0.000 A 
ATOM     20  C   UNL     1      48.770   2.569  16.474  0.00  0.00    +0.000 A 
ATOM     21  C   UNL     1      49.853   1.744  16.793  0.00  0.00    +0.000 A 
BRANCH  16  23
ATOM     22  N   UNL     1      51.806   0.105  18.137  0.00  0.00    +0.000 N 
ATOM     23  C   UNL     1      52.122   1.367  17.726  0.00  0.00    +0.000 C 
ATOM     24  O   UNL     1      53.291   1.708  17.599  0.00  0.00    +0.000 OA
ATOM     25  H   UNL     1      52.584  -0.537  18.245  0.00  0.00    +0.000 HD
ATOM     26  H   UNL     1      50.889  -0.297  17.997  0.00  0.00    +0.000 HD
ENDBRANCH  16  23
ENDBRANCH  15  19
ENDBRANCH   1  15
TORSDOF 5
ENDMDL
MODEL 9
REMARK VINA RESULT:    -6.239      3.461      5.731
REMARK INTER + INTRA:          -9.038
REMARK INTER:                  -8.130
REMARK INTRA:                  -0.908
REMARK UNBOUND:                -0.975
REMARK  Name = 
REMARK  5 active torsions:
REMARK  status: ('A' for Active; 'I' for Inactive)
REMARK    1  A    between atoms: C_2  and  C_4
REMARK    2  A    between atoms: C_7  and  C_8
REMARK    3  A    between atoms: C_8  and  N_9
REMARK    4  A    between atoms: N_9  and  C_10
REMARK    5  A    between atoms: C_14  and  N_15
REMARK                            x       y       z     vdW  Elec       q    Type
REMARK                         _______ _______ _______ _____ _____    ______ ____
ROOT
ATOM      1  N   UNL     1      48.010   7.436  12.837  0.00  0.00    +0.000 N 
ATOM      2  H   UNL     1      48.311   6.512  12.524  0.00  0.00    +0.000 HD
ENDROOT
BRANCH   1   3
ATOM      3  C   UNL     1      48.291   7.580  14.204  0.00  0.00    +0.000 A 
ATOM      4  C   UNL     1      48.338   8.798  14.882  0.00  0.00    +0.000 A 
ATOM      5  C   UNL     1      48.590   8.832  16.254  0.00  0.00    +0.000 A 
ATOM      6  C   UNL     1      48.815   7.648  16.960  0.00  0.00    +0.000 A 
ATOM      7  C   UNL     1      48.821   6.405  16.317  0.00  0.00    +0.000 A 
ATOM      8  C   UNL     1      48.613   6.419  14.927  0.00  0.00    +0.000 A 
BRANCH   7   9
ATOM      9  N   UNL     1      48.958   5.220  17.016  0.00  0.00    +0.000 N 
ATOM     10  C   UNL     1      50.144   4.949  17.833  0.00  0.00    +0.000 C 
ATOM     11  C   UNL     1      50.725   3.585  17.456  0.00  0.00    +0.000 C 
ATOM     12  C   UNL     1      49.669   2.485  17.491  0.00  0.00    +0.000 C 
ATOM     13  C   UNL     1      48.443   2.866  16.660  0.00  0.00    +0.000 C 
ATOM     14  C   UNL     1      47.891   4.225  17.086  0.00  0.00    +0.000 C 
ENDBRANCH   7   9
ENDBRANCH   1   3
BRANCH   1  15
ATOM     15  C   UNL     1      46.686   7.773  12.332  0.00  0.00    +0.000 C 
BRANCH  15  19
ATOM     16  C   UNL     1      44.640   4.111  11.238  0.00  0.00    +0.000 A 
ATOM     17  C   UNL     1      45.183   4.935  10.246  0.00  0.00    +0.000 A 
ATOM     18  C   UNL     1      45.824   6.131  10.598  0.00  0.00    +0.000 A 
ATOM     19  C   UNL     1      45.932   6.519  11.943  0.00  0.00    +0.000 A 
ATOM     20  C   UNL     1      45.362   5.697  12.927  0.00  0.00    +0.000 A 
ATOM     21  C   UNL     1      44.717   4.506  12.579  0.00  0.00    +0.000 A 
BRANCH  16  23
ATOM     22  N   UNL     1      44.463   2.092   9.884  0.00  0.00    +0.000 N 
ATOM     23  C   UNL     1      43.955   2.832  10.912  0.00  0.00    +0.000 C 
ATOM     24  O   UNL     1      42.998   2.429  11.560  0.00  0.00    +0.000 OA
ATOM     25  H   UNL     1      44.055   1.171   9.755  0.00  0.00    +0.000 HD
ATOM     26  H   UNL     1      45.389   2.246   9.511  0.00  0.00    +0.000 HD
ENDBRANCH  16  23
ENDBRANCH  15  19
ENDBRANCH   1  15
TORSDOF 5
ENDMDL
