MODEL 1
REMARK VINA RESULT:    -8.628      0.000      0.000
REMARK INTER + INTRA:         -12.557
REMARK INTER:                 -11.654
REMARK INTRA:                  -0.903
REMARK UNBOUND:                -0.903
REMARK  Name = 
REMARK  7 active torsions:
REMARK  status: ('A' for Active; 'I' for Inactive)
REMARK    1  A    between atoms: C_1  and  C_2
REMARK    2  A    between atoms: C_11  and  C_12
REMARK    3  A    between atoms: N_14  and  C_15
REMARK    4  A    between atoms: C_15  and  C_16
REMARK    5  A    between atoms: C_19  and  C_20
REMARK    6  A    between atoms: C_20  and  N_21
REMARK    7  A    between atoms: N_21  and  C_22
REMARK                            x       y       z     vdW  Elec       q    Type
REMARK                         _______ _______ _______ _____ _____    ______ ____
ROOT
ATOM      1  C   UNL     1      48.469   6.860  14.477  0.00  0.00    +0.000 C 
ATOM      2  O   UNL     1      49.113   6.605  13.459  0.00  0.00    +0.000 OA
ATOM      3  N   UNL     1      47.341   7.640  14.399  0.00  0.00    +0.000 N 
ATOM      4  H   UNL     1      46.845   7.931  15.236  0.00  0.00    +0.000 HD
ENDROOT
BRANCH   1  15
ATOM      5  C   UNL     1      50.624   8.213  16.274  0.00  0.00    +0.000 C 
ATOM      6  C   UNL     1      49.850   6.962  16.568  0.00  0.00    +0.000 A 
ATOM      7  S   UNL     1      50.197   6.144  18.030  0.00  0.00    +0.000 S 
ATOM      8  C   UNL     1      49.052   4.941  17.715  0.00  0.00    +0.000 A 
ATOM      9  N   UNL     1      48.875   3.916  18.592  0.00  0.00    +0.000 NA
ATOM     10  C   UNL     1      47.982   3.055  18.236  0.00  0.00    +0.000 A 
ATOM     11  N   UNL     1      47.238   3.140  17.091  0.00  0.00    +0.000 N 
ATOM     12  C   UNL     1      47.347   4.184  16.203  0.00  0.00    +0.000 A 
ATOM     13  O   UNL     1      46.595   4.263  15.238  0.00  0.00    +0.000 OA
ATOM     14  C   UNL     1      48.380   5.156  16.524  0.00  0.00    +0.000 A 
ATOM     15  C   UNL     1      48.861   6.327  15.804  0.00  0.00    +0.000 A 
ATOM     16  H   UNL     1      46.527   2.453  16.885  0.00  0.00    +0.000 HD
ENDBRANCH   1  15
BRANCH   3  17
ATOM     17  C   UNL     1      46.887   8.174  13.137  0.00  0.00    +0.000 C 
BRANCH  17  18
ATOM     18  C   UNL     1      46.107   7.162  12.338  0.00  0.00    +0.000 A 
ATOM     19  C   UNL     1      44.926   6.609  12.852  0.00  0.00    +0.000 A 
ATOM     20  C   UNL     1      44.202   5.666  12.118  0.00  0.00    +0.000 A 
ATOM     21  C   UNL     1      44.655   5.233  10.864  0.00  0.00    +0.000 A 
ATOM     22  C   UNL     1      45.834   5.786  10.347  0.00  0.00    +0.000 A 
ATOM     23  C   UNL     1      46.555   6.737  11.079  0.00  0.00    +0.000 A 
BRANCH  21  24
ATOM     24  C   UNL     1      43.890   4.180  10.094  0.00  0.00    +0.000 C 
BRANCH  24  25
ATOM     25  N   UNL     1      44.267   4.202   8.685  0.00  0.00    +0.000 N 
ATOM     26  H   UNL     1      44.484   5.142   8.364  0.00  0.00    +0.000 HD
BRANCH  25  27
ATOM     27  C   UNL     1      45.228   3.267   8.269  0.00  0.00    +0.000 A 
ATOM     28  C   UNL     1      46.099   3.588   7.223  0.00  0.00    +0.000 A 
ATOM     29  C   UNL     1      47.031   2.654   6.761  0.00  0.00    +0.000 A 
ATOM     30  C   UNL     1      47.045   1.397   7.339  0.00  0.00    +0.000 A 
ATOM     31  N   UNL     1      46.199   1.019   8.316  0.00  0.00    +0.000 NA
ATOM     32  C   UNL     1      45.307   1.950   8.736  0.00  0.00    +0.000 A 
ENDBRANCH  25  27
ENDBRANCH  24  25
ENDBRANCH  21  24
ENDBRANCH  17  18
ENDBRANCH   3  17
TORSDOF 6
ENDMDL
MODEL 2
REMARK VINA RESULT:    -8.343      1.735      1.947
REMARK INTER + INTRA:         -12.172
REMARK INTER:                 -11.287
REMARK INTRA:                  -0.885
REMARK UNBOUND:                -0.903
REMARK  Name = 
REMARK  7 active torsions:
REMARK  status: ('A' for Active; 'I' for Inactive)
REMARK    1  A    between atoms: C_1  and  C_2
REMARK    2  A    between atoms: C_11  and  C_12
REMARK    3  A    between atoms: N_14  and  C_15
REMARK    4  A    between atoms: C_15  and  C_16
REMARK    5  A    between atoms: C_19  and  C_20
REMARK    6  A    between atoms: C_20  and  N_21
REMARK    7  A    between atoms: N_21  and  C_22
REMARK                            x       y       z     vdW  Elec       q    Type
REMARK                         _______ _______ _______ _____ _____    ______ ____
ROOT
ATOM      1  C   UNL     1      48.991   6.680  15.899  0.00  0.00    +0.000 C 
ATOM      2  O   UNL     1      50.158   6.484  15.561  0.00  0.00    +0.000 OA
ATOM      3  N   UNL     1      48.002   6.744  14.949  0.00  0.00    +0.000 N 
ATOM      4  H   UNL     1      47.049   6.988  15.199  0.00  0.00    +0.000 HD
ENDROOT
BRANCH   1  15
ATOM      5  C   UNL     1      48.126   9.402  17.143  0.00  0.00    +0.000 C 
ATOM      6  C   UNL     1      48.240   8.080  17.841  0.00  0.00    +0.000 A 
ATOM      7  S   UNL     1      47.899   8.040  19.517  0.00  0.00    +0.000 S 
ATOM      8  C   UNL     1      48.205   6.380  19.614  0.00  0.00    +0.000 A 
ATOM      9  N   UNL     1      48.104   5.732  20.807  0.00  0.00    +0.000 NA
ATOM     10  C   UNL     1      48.371   4.471  20.756  0.00  0.00    +0.000 A 
ATOM     11  N   UNL     1      48.711   3.798  19.615  0.00  0.00    +0.000 N 
ATOM     12  C   UNL     1      48.773   4.400  18.380  0.00  0.00    +0.000 A 
ATOM     13  O   UNL     1      48.992   3.737  17.373  0.00  0.00    +0.000 OA
ATOM     14  C   UNL     1      48.537   5.835  18.385  0.00  0.00    +0.000 A 
ATOM     15  C   UNL     1      48.604   6.829  17.323  0.00  0.00    +0.000 A 
ATOM     16  H   UNL     1      48.874   2.802  19.632  0.00  0.00    +0.000 HD
ENDBRANCH   1  15
BRANCH   3  17
ATOM     17  C   UNL     1      48.302   6.585  13.546  0.00  0.00    +0.000 C 
BRANCH  17  18
ATOM     18  C   UNL     1      47.141   6.010  12.776  0.00  0.00    +0.000 A 
ATOM     19  C   UNL     1      46.503   4.843  13.219  0.00  0.00    +0.000 A 
ATOM     20  C   UNL     1      45.429   4.303  12.506  0.00  0.00    +0.000 A 
ATOM     21  C   UNL     1      44.984   4.902  11.319  0.00  0.00    +0.000 A 
ATOM     22  C   UNL     1      45.618   6.070  10.877  0.00  0.00    +0.000 A 
ATOM     23  C   UNL     1      46.689   6.615  11.595  0.00  0.00    +0.000 A 
BRANCH  21  24
ATOM     24  C   UNL     1      43.850   4.287  10.530  0.00  0.00    +0.000 C 
BRANCH  24  25
ATOM     25  N   UNL     1      44.143   4.323   9.102  0.00  0.00    +0.000 N 
ATOM     26  H   UNL     1      44.327   5.268   8.775  0.00  0.00    +0.000 HD
BRANCH  25  27
ATOM     27  C   UNL     1      45.092   3.405   8.624  0.00  0.00    +0.000 A 
ATOM     28  C   UNL     1      46.013   3.805   7.650  0.00  0.00    +0.000 A 
ATOM     29  C   UNL     1      46.934   2.894   7.125  0.00  0.00    +0.000 A 
ATOM     30  C   UNL     1      46.889   1.584   7.567  0.00  0.00    +0.000 A 
ATOM     31  N   UNL     1      45.994   1.133   8.466  0.00  0.00    +0.000 NA
ATOM     32  C   UNL     1      45.114   2.045   8.951  0.00  0.00    +0.000 A 
ENDBRANCH  25  27
ENDBRANCH  24  25
ENDBRANCH  21  24
ENDBRANCH  17  18
ENDBRANCH   3  17
TORSDOF 6
ENDMDL
MODEL 3
REMARK VINA RESULT:    -7.960      2.241      2.921
REMARK INTER + INTRA:         -11.656
REMARK INTER:                 -10.706
REMARK INTRA:                  -0.950
REMARK UNBOUND:                -0.903
REMARK  Name = 
REMARK  7 active torsions:
REMARK  status: ('A' for Active; 'I' for Inactive)
REMARK    1  A    between atoms: C_1  and  C_2
REMARK    2  A    between atoms: C_11  and  C_12
REMARK    3  A    between atoms: N_14  and  C_15
REMARK    4  A    between atoms: C_15  and  C_16
REMARK    5  A    between atoms: C_19  and  C_20
REMARK    6  A    between atoms: C_20  and  N_21
REMARK    7  A    between atoms: N_21  and  C_22
REMARK                            x       y       z     vdW  Elec       q    Type
REMARK                         _______ _______ _______ _____ _____    ______ ____
ROOT
ATOM      1  C   UNL     1      49.050   6.503  15.835  0.00  0.00    +0.000 C 
ATOM      2  O   UNL     1      50.189   6.658  15.393  0.00  0.00    +0.000 OA
ATOM      3  N   UNL     1      47.978   6.473  14.977  0.00  0.00    +0.000 N 
ATOM      4  H   UNL     1      47.026   6.430  15.328  0.00  0.00    +0.000 HD
ENDROOT
BRANCH   1  15
ATOM      5  C   UNL     1      48.816   3.700  17.174  0.00  0.00    +0.000 C 
ATOM      6  C   UNL     1      48.677   5.038  17.837  0.00  0.00    +0.000 A 
ATOM      7  S   UNL     1      48.311   5.057  19.508  0.00  0.00    +0.000 S 
ATOM      8  C   UNL     1      48.306   6.747  19.563  0.00  0.00    +0.000 A 
ATOM      9  N   UNL     1      48.034   7.395  20.728  0.00  0.00    +0.000 NA
ATOM     10  C   UNL     1      48.049   8.682  20.641  0.00  0.00    +0.000 A 
ATOM     11  N   UNL     1      48.331   9.378  19.497  0.00  0.00    +0.000 N 
ATOM     12  C   UNL     1      48.663   8.765  18.311  0.00  0.00    +0.000 A 
ATOM     13  O   UNL     1      48.998   9.431  17.338  0.00  0.00    +0.000 OA
ATOM     14  C   UNL     1      48.606   7.312  18.335  0.00  0.00    +0.000 A 
ATOM     15  C   UNL     1      48.792   6.321  17.284  0.00  0.00    +0.000 A 
ATOM     16  H   UNL     1      48.363  10.387  19.500  0.00  0.00    +0.000 HD
ENDBRANCH   1  15
BRANCH   3  17
ATOM     17  C   UNL     1      48.157   6.620  13.552  0.00  0.00    +0.000 C 
BRANCH  17  18
ATOM     18  C   UNL     1      47.006   6.041  12.771  0.00  0.00    +0.000 A 
ATOM     19  C   UNL     1      46.412   4.835  13.169  0.00  0.00    +0.000 A 
ATOM     20  C   UNL     1      45.348   4.291  12.445  0.00  0.00    +0.000 A 
ATOM     21  C   UNL     1      44.869   4.925  11.289  0.00  0.00    +0.000 A 
ATOM     22  C   UNL     1      45.459   6.132  10.891  0.00  0.00    +0.000 A 
ATOM     23  C   UNL     1      46.520   6.681  11.622  0.00  0.00    +0.000 A 
BRANCH  21  24
ATOM     24  C   UNL     1      43.746   4.308  10.487  0.00  0.00    +0.000 C 
BRANCH  24  25
ATOM     25  N   UNL     1      44.061   4.338   9.062  0.00  0.00    +0.000 N 
ATOM     26  H   UNL     1      44.232   5.283   8.730  0.00  0.00    +0.000 HD
BRANCH  25  27
ATOM     27  C   UNL     1      45.034   3.434   8.606  0.00  0.00    +0.000 A 
ATOM     28  C   UNL     1      45.957   3.841   7.638  0.00  0.00    +0.000 A 
ATOM     29  C   UNL     1      46.903   2.943   7.135  0.00  0.00    +0.000 A 
ATOM     30  C   UNL     1      46.879   1.638   7.592  0.00  0.00    +0.000 A 
ATOM     31  N   UNL     1      45.985   1.180   8.487  0.00  0.00    +0.000 NA
ATOM     32  C   UNL     1      45.080   2.079   8.950  0.00  0.00    +0.000 A 
ENDBRANCH  25  27
ENDBRANCH  24  25
ENDBRANCH  21  24
ENDBRANCH  17  18
ENDBRANCH   3  17
TORSDOF 6
ENDMDL
MODEL 4
REMARK VINA RESULT:    -7.384      2.483      4.286
REMARK INTER + INTRA:         -10.877
REMARK INTER:                  -9.960
REMARK INTRA:                  -0.917
REMARK UNBOUND:                -0.903
REMARK  Name = 
REMARK  7 active torsions:
REMARK  status: ('A' for Active; 'I' for Inactive)
REMARK    1  A    between atoms: C_1  and  C_2
REMARK    2  A    between atoms: C_11  and  C_12
REMARK    3  A    between atoms: N_14  and  C_15
REMARK    4  A    between atoms: C_15  and  C_16
REMARK    5  A    between atoms: C_19  and  C_20
REMARK    6  A    between atoms: C_20  and  N_21
REMARK    7  A    between atoms: N_21  and  C_22
REMARK                            x       y       z     vdW  Elec       q    Type
REMARK                         _______ _______ _______ _____ _____    ______ ____
ROOT
ATOM      1  C   UNL     1      48.890   7.086  15.162  0.00  0.00    +0.000 C 
ATOM      2  O   UNL     1      49.704   6.263  15.582  0.00  0.00    +0.000 OA
ATOM      3  N   UNL     1      47.717   6.662  14.588  0.00  0.00    +0.000 N 
ATOM      4  H   UNL     1      47.074   7.321  14.161  0.00  0.00    +0.000 HD
ENDROOT
BRANCH   1  15
ATOM      5  C   UNL     1      48.226   8.709  17.737  0.00  0.00    +0.000 C 
ATOM      6  C   UNL     1      48.793   9.236  16.452  0.00  0.00    +0.000 A 
ATOM      7  S   UNL     1      49.081  10.918  16.348  0.00  0.00    +0.000 S 
ATOM      8  C   UNL     1      49.664  10.795  14.765  0.00  0.00    +0.000 A 
ATOM      9  N   UNL     1      50.063  11.908  14.092  0.00  0.00    +0.000 NA
ATOM     10  C   UNL     1      50.478  11.687  12.891  0.00  0.00    +0.000 A 
ATOM     11  N   UNL     1      50.546  10.449  12.310  0.00  0.00    +0.000 N 
ATOM     12  C   UNL     1      50.204   9.293  12.971  0.00  0.00    +0.000 A 
ATOM     13  O   UNL     1      50.368   8.200  12.441  0.00  0.00    +0.000 OA
ATOM     14  C   UNL     1      49.674   9.486  14.311  0.00  0.00    +0.000 A 
ATOM     15  C   UNL     1      49.125   8.546  15.278  0.00  0.00    +0.000 A 
ATOM     16  H   UNL     1      50.914  10.336  11.377  0.00  0.00    +0.000 HD
ENDBRANCH   1  15
BRANCH   3  17
ATOM     17  C   UNL     1      47.411   5.256  14.463  0.00  0.00    +0.000 C 
BRANCH  17  18
ATOM     18  C   UNL     1      46.560   4.964  13.255  0.00  0.00    +0.000 A 
ATOM     19  C   UNL     1      46.366   5.941  12.269  0.00  0.00    +0.000 A 
ATOM     20  C   UNL     1      45.572   5.677  11.150  0.00  0.00    +0.000 A 
ATOM     21  C   UNL     1      44.931   4.439  11.002  0.00  0.00    +0.000 A 
ATOM     22  C   UNL     1      45.126   3.460  11.985  0.00  0.00    +0.000 A 
ATOM     23  C   UNL     1      45.928   3.722  13.102  0.00  0.00    +0.000 A 
BRANCH  21  24
ATOM     24  C   UNL     1      44.039   4.176   9.810  0.00  0.00    +0.000 C 
BRANCH  24  25
ATOM     25  N   UNL     1      44.779   4.366   8.567  0.00  0.00    +0.000 N 
ATOM     26  H   UNL     1      45.232   5.276   8.530  0.00  0.00    +0.000 HD
BRANCH  25  27
ATOM     27  C   UNL     1      45.641   3.330   8.174  0.00  0.00    +0.000 A 
ATOM     28  C   UNL     1      46.633   3.579   7.219  0.00  0.00    +0.000 A 
ATOM     29  C   UNL     1      47.470   2.551   6.778  0.00  0.00    +0.000 A 
ATOM     30  C   UNL     1      47.270   1.278   7.282  0.00  0.00    +0.000 A 
ATOM     31  N   UNL     1      46.302   0.972   8.166  0.00  0.00    +0.000 NA
ATOM     32  C   UNL     1      45.507   1.995   8.568  0.00  0.00    +0.000 A 
ENDBRANCH  25  27
ENDBRANCH  24  25
ENDBRANCH  21  24
ENDBRANCH  17  18
ENDBRANCH   3  17
TORSDOF 6
ENDMDL
MODEL 5
REMARK VINA RESULT:    -7.375      4.192      8.777
REMARK INTER + INTRA:         -10.865
REMARK INTER:                  -9.942
REMARK INTRA:                  -0.923
REMARK UNBOUND:                -0.903
REMARK  Name = 
REMARK  7 active torsions:
REMARK  status: ('A' for Active; 'I' for Inactive)
REMARK    1  A    between atoms: C_1  and  C_2
REMARK    2  A    between atoms: C_11  and  C_12
REMARK    3  A    between atoms: N_14  and  C_15
REMARK    4  A    between atoms: C_15  and  C_16
REMARK    5  A    between atoms: C_19  and  C_20
REMARK    6  A    between atoms: C_20  and  N_21
REMARK    7  A    between atoms: N_21  and  C_22
REMARK                            x       y       z     vdW  Elec       q    Type
REMARK                         _______ _______ _______ _____ _____    ______ ____
ROOT
ATOM      1  C   UNL     1      47.004   4.227  14.711  0.00  0.00    +0.000 C 
ATOM      2  O   UNL     1      47.361   3.135  14.265  0.00  0.00    +0.000 OA
ATOM      3  N   UNL     1      46.909   4.417  16.068  0.00  0.00    +0.000 N 
ATOM      4  H   UNL     1      46.537   5.280  16.451  0.00  0.00    +0.000 HD
ENDROOT
BRANCH   1  15
ATOM      5  C   UNL     1      48.830   6.739  14.474  0.00  0.00    +0.000 C 
ATOM      6  C   UNL     1      47.535   6.487  13.761  0.00  0.00    +0.000 A 
ATOM      7  S   UNL     1      46.952   7.716  12.725  0.00  0.00    +0.000 S 
ATOM      8  C   UNL     1      45.582   6.818  12.308  0.00  0.00    +0.000 A 
ATOM      9  N   UNL     1      44.656   7.333  11.454  0.00  0.00    +0.000 NA
ATOM     10  C   UNL     1      43.651   6.558  11.223  0.00  0.00    +0.000 A 
ATOM     11  N   UNL     1      43.500   5.306  11.754  0.00  0.00    +0.000 N 
ATOM     12  C   UNL     1      44.435   4.725  12.578  0.00  0.00    +0.000 A 
ATOM     13  O   UNL     1      44.299   3.567  12.956  0.00  0.00    +0.000 OA
ATOM     14  C   UNL     1      45.564   5.576  12.921  0.00  0.00    +0.000 A 
ATOM     15  C   UNL     1      46.691   5.369  13.820  0.00  0.00    +0.000 A 
ATOM     16  H   UNL     1      42.708   4.732  11.506  0.00  0.00    +0.000 HD
ENDBRANCH   1  15
BRANCH   3  17
ATOM     17  C   UNL     1      47.221   3.355  16.995  0.00  0.00    +0.000 C 
BRANCH  17  18
ATOM     18  C   UNL     1      48.698   3.262  17.278  0.00  0.00    +0.000 A 
ATOM     19  C   UNL     1      49.388   4.357  17.816  0.00  0.00    +0.000 A 
ATOM     20  C   UNL     1      50.760   4.278  18.075  0.00  0.00    +0.000 A 
ATOM     21  C   UNL     1      51.478   3.111  17.777  0.00  0.00    +0.000 A 
ATOM     22  C   UNL     1      50.789   2.015  17.243  0.00  0.00    +0.000 A 
ATOM     23  C   UNL     1      49.415   2.092  16.991  0.00  0.00    +0.000 A 
BRANCH  21  24
ATOM     24  C   UNL     1      52.970   3.048  18.020  0.00  0.00    +0.000 C 
BRANCH  24  25
ATOM     25  N   UNL     1      53.313   1.850  18.778  0.00  0.00    +0.000 N 
ATOM     26  H   UNL     1      52.519   1.492  19.303  0.00  0.00    +0.000 HD
BRANCH  25  27
ATOM     27  C   UNL     1      53.993   0.833  18.089  0.00  0.00    +0.000 A 
ATOM     28  C   UNL     1      54.538   1.096  16.828  0.00  0.00    +0.000 A 
ATOM     29  C   UNL     1      55.177   0.086  16.104  0.00  0.00    +0.000 A 
ATOM     30  C   UNL     1      55.223  -1.185  16.648  0.00  0.00    +0.000 A 
ATOM     31  N   UNL     1      54.674  -1.506  17.835  0.00  0.00    +0.000 NA
ATOM     32  C   UNL     1      54.060  -0.500  18.507  0.00  0.00    +0.000 A 
ENDBRANCH  25  27
ENDBRANCH  24  25
ENDBRANCH  21  24
ENDBRANCH  17  18
ENDBRANCH   3  17
TORSDOF 6
ENDMDL
MODEL 6
REMARK VINA RESULT:    -7.339      3.912      9.660
REMARK INTER + INTRA:         -10.816
REMARK INTER:                  -9.864
REMARK INTRA:                  -0.953
REMARK UNBOUND:                -0.903
REMARK  Name = 
REMARK  7 active torsions:
REMARK  status: ('A' for Active; 'I' for Inactive)
REMARK    1  A    between atoms: C_1  and  C_2
REMARK    2  A    between atoms: C_11  and  C_12
REMARK    3  A    between atoms: N_14  and  C_15
REMARK    4  A    between atoms: C_15  and  C_16
REMARK    5  A    between atoms: C_19  and  C_20
REMARK    6  A    between atoms: C_20  and  N_21
REMARK    7  A    between atoms: N_21  and  C_22
REMARK                            x       y       z     vdW  Elec       q    Type
REMARK                         _______ _______ _______ _____ _____    ______ ____
ROOT
ATOM      1  C   UNL     1      46.717   4.115  14.485  0.00  0.00    +0.000 C 
ATOM      2  O   UNL     1      47.258   3.089  14.072  0.00  0.00    +0.000 OA
ATOM      3  N   UNL     1      46.615   4.342  15.836  0.00  0.00    +0.000 N 
ATOM      4  H   UNL     1      46.099   5.138  16.197  0.00  0.00    +0.000 HD
ENDROOT
BRANCH   1  15
ATOM      5  C   UNL     1      48.227   6.761  13.837  0.00  0.00    +0.000 C 
ATOM      6  C   UNL     1      46.890   6.327  13.315  0.00  0.00    +0.000 A 
ATOM      7  S   UNL     1      46.062   7.402  12.273  0.00  0.00    +0.000 S 
ATOM      8  C   UNL     1      44.754   6.344  12.100  0.00  0.00    +0.000 A 
ATOM      9  N   UNL     1      43.685   6.695  11.335  0.00  0.00    +0.000 NA
ATOM     10  C   UNL     1      42.747   5.810  11.290  0.00  0.00    +0.000 A 
ATOM     11  N   UNL     1      42.792   4.600  11.925  0.00  0.00    +0.000 N 
ATOM     12  C   UNL     1      43.874   4.183  12.665  0.00  0.00    +0.000 A 
ATOM     13  O   UNL     1      43.907   3.053  13.140  0.00  0.00    +0.000 OA
ATOM     14  C   UNL     1      44.940   5.163  12.799  0.00  0.00    +0.000 A 
ATOM     15  C   UNL     1      46.181   5.143  13.560  0.00  0.00    +0.000 A 
ATOM     16  H   UNL     1      42.041   3.933  11.822  0.00  0.00    +0.000 HD
ENDBRANCH   1  15
BRANCH   3  17
ATOM     17  C   UNL     1      47.135   3.396  16.794  0.00  0.00    +0.000 C 
BRANCH  17  18
ATOM     18  C   UNL     1      48.601   3.611  17.070  0.00  0.00    +0.000 A 
ATOM     19  C   UNL     1      49.468   2.516  17.193  0.00  0.00    +0.000 A 
ATOM     20  C   UNL     1      50.828   2.710  17.454  0.00  0.00    +0.000 A 
ATOM     21  C   UNL     1      51.347   4.001  17.624  0.00  0.00    +0.000 A 
ATOM     22  C   UNL     1      50.482   5.096  17.498  0.00  0.00    +0.000 A 
ATOM     23  C   UNL     1      49.122   4.902  17.229  0.00  0.00    +0.000 A 
BRANCH  21  24
ATOM     24  C   UNL     1      52.810   4.201  17.949  0.00  0.00    +0.000 C 
BRANCH  24  25
ATOM     25  N   UNL     1      52.980   4.524  19.361  0.00  0.00    +0.000 N 
ATOM     26  H   UNL     1      52.103   4.795  19.798  0.00  0.00    +0.000 HD
BRANCH  25  27
ATOM     27  C   UNL     1      53.696   3.603  20.144  0.00  0.00    +0.000 A 
ATOM     28  C   UNL     1      54.006   3.916  21.471  0.00  0.00    +0.000 A 
ATOM     29  C   UNL     1      54.759   3.035  22.252  0.00  0.00    +0.000 A 
ATOM     30  C   UNL     1      55.218   1.867  21.670  0.00  0.00    +0.000 A 
ATOM     31  N   UNL     1      54.990   1.537  20.385  0.00  0.00    +0.000 NA
ATOM     32  C   UNL     1      54.259   2.418  19.657  0.00  0.00    +0.000 A 
ENDBRANCH  25  27
ENDBRANCH  24  25
ENDBRANCH  21  24
ENDBRANCH  17  18
ENDBRANCH   3  17
TORSDOF 6
ENDMDL
MODEL 7
REMARK VINA RESULT:    -7.208      3.610      9.598
REMARK INTER + INTRA:         -10.640
REMARK INTER:                  -9.455
REMARK INTRA:                  -1.185
REMARK UNBOUND:                -0.903
REMARK  Name = 
REMARK  7 active torsions:
REMARK  status: ('A' for Active; 'I' for Inactive)
REMARK    1  A    between atoms: C_1  and  C_2
REMARK    2  A    between atoms: C_11  and  C_12
REMARK    3  A    between atoms: N_14  and  C_15
REMARK    4  A    between atoms: C_15  and  C_16
REMARK    5  A    between atoms: C_19  and  C_20
REMARK    6  A    between atoms: C_20  and  N_21
REMARK    7  A    between atoms: N_21  and  C_22
REMARK                            x       y       z     vdW  Elec       q    Type
REMARK                         _______ _______ _______ _____ _____    ______ ____
ROOT
ATOM      1  C   UNL     1      46.817   4.189  14.489  0.00  0.00    +0.000 C 
ATOM      2  O   UNL     1      47.297   3.133  14.076  0.00  0.00    +0.000 OA
ATOM      3  N   UNL     1      46.772   4.441  15.838  0.00  0.00    +0.000 N 
ATOM      4  H   UNL     1      46.305   5.266  16.202  0.00  0.00    +0.000 HD
ENDROOT
BRANCH   1  15
ATOM      5  C   UNL     1      48.426   6.748  13.739  0.00  0.00    +0.000 C 
ATOM      6  C   UNL     1      47.052   6.370  13.272  0.00  0.00    +0.000 A 
ATOM      7  S   UNL     1      46.239   7.466  12.241  0.00  0.00    +0.000 S 
ATOM      8  C   UNL     1      44.877   6.469  12.134  0.00  0.00    +0.000 A 
ATOM      9  N   UNL     1      43.798   6.857  11.401  0.00  0.00    +0.000 NA
ATOM     10  C   UNL     1      42.819   6.018  11.405  0.00  0.00    +0.000 A 
ATOM     11  N   UNL     1      42.830   4.818  12.062  0.00  0.00    +0.000 N 
ATOM     12  C   UNL     1      43.917   4.362  12.770  0.00  0.00    +0.000 A 
ATOM     13  O   UNL     1      43.913   3.240  13.264  0.00  0.00    +0.000 OA
ATOM     14  C   UNL     1      45.032   5.292  12.848  0.00  0.00    +0.000 A 
ATOM     15  C   UNL     1      46.298   5.225  13.565  0.00  0.00    +0.000 A 
ATOM     16  H   UNL     1      42.045   4.186  11.997  0.00  0.00    +0.000 HD
ENDBRANCH   1  15
BRANCH   3  17
ATOM     17  C   UNL     1      47.281   3.487  16.795  0.00  0.00    +0.000 C 
BRANCH  17  18
ATOM     18  C   UNL     1      48.743   3.700  17.089  0.00  0.00    +0.000 A 
ATOM     19  C   UNL     1      49.270   4.997  17.168  0.00  0.00    +0.000 A 
ATOM     20  C   UNL     1      50.627   5.200  17.435  0.00  0.00    +0.000 A 
ATOM     21  C   UNL     1      51.494   4.112  17.603  0.00  0.00    +0.000 A 
ATOM     22  C   UNL     1      50.969   2.815  17.529  0.00  0.00    +0.000 A 
ATOM     23  C   UNL     1      49.608   2.612  17.269  0.00  0.00    +0.000 A 
BRANCH  21  24
ATOM     24  C   UNL     1      52.969   4.339  17.849  0.00  0.00    +0.000 C 
BRANCH  24  25
ATOM     25  N   UNL     1      53.313   4.010  19.228  0.00  0.00    +0.000 N 
ATOM     26  H   UNL     1      54.277   3.699  19.316  0.00  0.00    +0.000 HD
BRANCH  25  27
ATOM     27  C   UNL     1      52.970   4.951  20.212  0.00  0.00    +0.000 A 
ATOM     28  C   UNL     1      52.010   4.627  21.176  0.00  0.00    +0.000 A 
ATOM     29  C   UNL     1      51.619   5.566  22.135  0.00  0.00    +0.000 A 
ATOM     30  C   UNL     1      52.178   6.830  22.084  0.00  0.00    +0.000 A 
ATOM     31  N   UNL     1      53.070   7.212  21.151  0.00  0.00    +0.000 NA
ATOM     32  C   UNL     1      53.423   6.275  20.235  0.00  0.00    +0.000 A 
ENDBRANCH  25  27
ENDBRANCH  24  25
ENDBRANCH  21  24
ENDBRANCH  17  18
ENDBRANCH   3  17
TORSDOF 6
ENDMDL
MODEL 8
REMARK VINA RESULT:    -7.190      2.615      3.923
REMARK INTER + INTRA:         -10.615
REMARK INTER:                  -9.554
REMARK INTRA:                  -1.061
REMARK UNBOUND:                -0.903
REMARK  Name = 
REMARK  7 active torsions:
REMARK  status: ('A' for Active; 'I' for Inactive)
REMARK    1  A    between atoms: C_1  and  C_2
REMARK    2  A    between atoms: C_11  and  C_12
REMARK    3  A    between atoms: N_14  and  C_15
REMARK    4  A    between atoms: C_15  and  C_16
REMARK    5  A    between atoms: C_19  and  C_20
REMARK    6  A    between atoms: C_20  and  N_21
REMARK    7  A    between atoms: N_21  and  C_22
REMARK                            x       y       z     vdW  Elec       q    Type
REMARK                         _______ _______ _______ _____ _____    ______ ____
ROOT
ATOM      1  C   UNL     1      48.620   7.352  14.158  0.00  0.00    +0.000 C 
ATOM      2  O   UNL     1      49.554   6.668  13.739  0.00  0.00    +0.000 OA
ATOM      3  N   UNL     1      47.408   6.768  14.431  0.00  0.00    +0.000 N 
ATOM      4  H   UNL     1      46.604   7.327  14.696  0.00  0.00    +0.000 HD
ENDROOT
BRANCH   1  15
ATOM      5  C   UNL     1      48.891   9.437  11.859  0.00  0.00    +0.000 C 
ATOM      6  C   UNL     1      48.904   9.705  13.335  0.00  0.00    +0.000 A 
ATOM      7  S   UNL     1      49.130  11.323  13.841  0.00  0.00    +0.000 S 
ATOM      8  C   UNL     1      49.041  10.901  15.476  0.00  0.00    +0.000 A 
ATOM      9  N   UNL     1      49.182  11.852  16.440  0.00  0.00    +0.000 NA
ATOM     10  C   UNL     1      49.106  11.406  17.647  0.00  0.00    +0.000 A 
ATOM     11  N   UNL     1      48.882  10.097  17.977  0.00  0.00    +0.000 N 
ATOM     12  C   UNL     1      48.681   9.113  17.038  0.00  0.00    +0.000 A 
ATOM     13  O   UNL     1      48.393   7.972  17.382  0.00  0.00    +0.000 OA
ATOM     14  C   UNL     1      48.813   9.547  15.656  0.00  0.00    +0.000 A 
ATOM     15  C   UNL     1      48.767   8.808  14.403  0.00  0.00    +0.000 A 
ATOM     16  H   UNL     1      48.797   9.815  18.942  0.00  0.00    +0.000 HD
ENDBRANCH   1  15
BRANCH   3  17
ATOM     17  C   UNL     1      47.200   5.352  14.238  0.00  0.00    +0.000 C 
BRANCH  17  18
ATOM     18  C   UNL     1      46.418   5.057  12.985  0.00  0.00    +0.000 A 
ATOM     19  C   UNL     1      46.345   6.004  11.954  0.00  0.00    +0.000 A 
ATOM     20  C   UNL     1      45.615   5.737  10.792  0.00  0.00    +0.000 A 
ATOM     21  C   UNL     1      44.920   4.529  10.644  0.00  0.00    +0.000 A 
ATOM     22  C   UNL     1      44.995   3.580  11.672  0.00  0.00    +0.000 A 
ATOM     23  C   UNL     1      45.732   3.844  12.833  0.00  0.00    +0.000 A 
BRANCH  21  24
ATOM     24  C   UNL     1      44.098   4.265   9.403  0.00  0.00    +0.000 C 
BRANCH  24  25
ATOM     25  N   UNL     1      44.275   2.888   8.956  0.00  0.00    +0.000 N 
ATOM     26  H   UNL     1      43.451   2.534   8.478  0.00  0.00    +0.000 HD
BRANCH  25  27
ATOM     27  C   UNL     1      45.458   2.591   8.260  0.00  0.00    +0.000 A 
ATOM     28  C   UNL     1      46.004   3.537   7.387  0.00  0.00    +0.000 A 
ATOM     29  C   UNL     1      47.154   3.244   6.648  0.00  0.00    +0.000 A 
ATOM     30  C   UNL     1      47.714   1.986   6.776  0.00  0.00    +0.000 A 
ATOM     31  N   UNL     1      47.205   1.021   7.564  0.00  0.00    +0.000 NA
ATOM     32  C   UNL     1      46.087   1.341   8.263  0.00  0.00    +0.000 A 
ENDBRANCH  25  27
ENDBRANCH  24  25
ENDBRANCH  21  24
ENDBRANCH  17  18
ENDBRANCH   3  17
TORSDOF 6
ENDMDL
MODEL 9
REMARK VINA RESULT:    -6.994      3.289      7.562
REMARK INTER + INTRA:         -10.351
REMARK INTER:                  -9.021
REMARK INTRA:                  -1.330
REMARK UNBOUND:                -0.903
REMARK  Name = 
REMARK  7 active torsions:
REMARK  status: ('A' for Active; 'I' for Inactive)
REMARK    1  A    between atoms: C_1  and  C_2
REMARK    2  A    between atoms: C_11  and  C_12
REMARK    3  A    between atoms: N_14  and  C_15
REMARK    4  A    between atoms: C_15  and  C_16
REMARK    5  A    between atoms: C_19  and  C_20
REMARK    6  A    between atoms: C_20  and  N_21
REMARK    7  A    between atoms: N_21  and  C_22
REMARK                            x       y       z     vdW  Elec       q    Type
REMARK                         _______ _______ _______ _____ _____    ______ ____
ROOT
ATOM      1  C   UNL     1      47.567   7.912  13.539  0.00  0.00    +0.000 C 
ATOM      2  O   UNL     1      48.684   7.935  13.021  0.00  0.00    +0.000 OA
ATOM      3  N   UNL     1      47.370   8.482  14.773  0.00  0.00    +0.000 N 
ATOM      4  H   UNL     1      46.479   8.400  15.252  0.00  0.00    +0.000 HD
ENDROOT
BRANCH   1  15
ATOM      5  C   UNL     1      45.506   9.574  11.898  0.00  0.00    +0.000 C 
ATOM      6  C   UNL     1      45.491   8.095  12.144  0.00  0.00    +0.000 A 
ATOM      7  S   UNL     1      44.186   7.200  11.493  0.00  0.00    +0.000 S 
ATOM      8  C   UNL     1      44.781   5.743  12.111  0.00  0.00    +0.000 A 
ATOM      9  N   UNL     1      44.097   4.583  11.913  0.00  0.00    +0.000 NA
ATOM     10  C   UNL     1      44.645   3.542  12.441  0.00  0.00    +0.000 A 
ATOM     11  N   UNL     1      45.825   3.555  13.134  0.00  0.00    +0.000 N 
ATOM     12  C   UNL     1      46.575   4.693  13.313  0.00  0.00    +0.000 A 
ATOM     13  O   UNL     1      47.670   4.639  13.861  0.00  0.00    +0.000 OA
ATOM     14  C   UNL     1      45.978   5.910  12.787  0.00  0.00    +0.000 A 
ATOM     15  C   UNL     1      46.402   7.302  12.855  0.00  0.00    +0.000 A 
ATOM     16  H   UNL     1      46.222   2.699  13.493  0.00  0.00    +0.000 HD
ENDBRANCH   1  15
BRANCH   3  17
ATOM     17  C   UNL     1      48.454   9.114  15.487  0.00  0.00    +0.000 C 
BRANCH  17  18
ATOM     18  C   UNL     1      49.178   8.152  16.392  0.00  0.00    +0.000 A 
ATOM     19  C   UNL     1      50.310   7.463  15.937  0.00  0.00    +0.000 A 
ATOM     20  C   UNL     1      50.982   6.565  16.771  0.00  0.00    +0.000 A 
ATOM     21  C   UNL     1      50.522   6.314  18.071  0.00  0.00    +0.000 A 
ATOM     22  C   UNL     1      49.392   7.005  18.530  0.00  0.00    +0.000 A 
ATOM     23  C   UNL     1      48.724   7.910  17.696  0.00  0.00    +0.000 A 
BRANCH  21  24
ATOM     24  C   UNL     1      51.229   5.310  18.953  0.00  0.00    +0.000 C 
BRANCH  24  25
ATOM     25  N   UNL     1      50.327   4.218  19.307  0.00  0.00    +0.000 N 
ATOM     26  H   UNL     1      49.674   4.486  20.038  0.00  0.00    +0.000 HD
BRANCH  25  27
ATOM     27  C   UNL     1      49.691   3.549  18.249  0.00  0.00    +0.000 A 
ATOM     28  C   UNL     1      48.297   3.588  18.144  0.00  0.00    +0.000 A 
ATOM     29  C   UNL     1      47.640   2.889  17.127  0.00  0.00    +0.000 A 
ATOM     30  C   UNL     1      48.400   2.134  16.251  0.00  0.00    +0.000 A 
ATOM     31  N   UNL     1      49.739   2.024  16.333  0.00  0.00    +0.000 NA
ATOM     32  C   UNL     1      50.341   2.713  17.335  0.00  0.00    +0.000 A 
ENDBRANCH  25  27
ENDBRANCH  24  25
ENDBRANCH  21  24
ENDBRANCH  17  18
ENDBRANCH   3  17
TORSDOF 6
ENDMDL
