MODEL 1
REMARK VINA RESULT:    -7.690      0.000      0.000
REMARK INTER + INTRA:          -9.817
REMARK INTER:                  -9.039
REMARK INTRA:                  -0.779
REMARK UNBOUND:                -0.779
REMARK  Name = 
REMARK  4 active torsions:
REMARK  status: ('A' for Active; 'I' for Inactive)
REMARK    1  A    between atoms: C_1  and  C_2
REMARK    2  A    between atoms: N_7  and  C_8
REMARK    3  A    between atoms: C_8  and  C_9
REMARK    4  A    between atoms: C_13  and  C_14
REMARK                            x       y       z     vdW  Elec       q    Type
REMARK                         _______ _______ _______ _____ _____    ______ ____
ROOT
ATOM      1  C   UNL     1      44.432   4.007  11.181  0.00  0.00    +0.000 C 
ATOM      2  C   UNL     1      42.997   3.873  11.693  0.00  0.00    +0.000 C 
ATOM      3  C   UNL     1      43.312   4.863  10.623  0.00  0.00    +0.000 C 
ENDROOT
BRANCH   1  10
ATOM      4  C   UNL     1      47.047   0.562   6.643  0.00  0.00    +0.000 C 
ATOM      5  C   UNL     1      46.637   1.830   7.327  0.00  0.00    +0.000 A 
ATOM      6  C   UNL     1      46.853   3.076   6.746  0.00  0.00    +0.000 A 
ATOM      7  C   UNL     1      46.420   4.198   7.433  0.00  0.00    +0.000 A 
ATOM      8  N   UNL     1      45.806   4.166   8.636  0.00  0.00    +0.000 NA
ATOM      9  C   UNL     1      45.618   2.964   9.216  0.00  0.00    +0.000 A 
ATOM     10  N   UNL     1      44.949   2.828  10.458  0.00  0.00    +0.000 N 
ATOM     11  C   UNL     1      46.014   1.781   8.578  0.00  0.00    +0.000 A 
ATOM     12  H   UNL     1      45.483   2.198  11.047  0.00  0.00    +0.000 HD
ENDBRANCH   1  10
BRANCH   1  13
ATOM     13  C   UNL     1      45.445   4.694  12.095  0.00  0.00    +0.000 A 
ATOM     14  C   UNL     1      46.063   4.005  13.148  0.00  0.00    +0.000 A 
ATOM     15  C   UNL     1      47.066   4.602  13.911  0.00  0.00    +0.000 A 
ATOM     16  C   UNL     1      47.484   5.901  13.621  0.00  0.00    +0.000 A 
ATOM     17  C   UNL     1      46.902   6.634  12.574  0.00  0.00    +0.000 A 
ATOM     18  C   UNL     1      45.854   6.022  11.863  0.00  0.00    +0.000 A 
BRANCH  17  19
ATOM     19  C   UNL     1      47.436   7.948  12.147  0.00  0.00    +0.000 A 
ATOM     20  C   UNL     1      46.636   9.104  12.219  0.00  0.00    +0.000 A 
ATOM     21  C   UNL     1      47.154  10.370  11.926  0.00  0.00    +0.000 A 
ATOM     22  C   UNL     1      48.488  10.510  11.562  0.00  0.00    +0.000 A 
ATOM     23  C   UNL     1      49.300   9.383  11.474  0.00  0.00    +0.000 A 
ATOM     24  C   UNL     1      48.777   8.116  11.755  0.00  0.00    +0.000 A 
ENDBRANCH  17  19
ENDBRANCH   1  13
TORSDOF 3
ENDMDL
MODEL 2
REMARK VINA RESULT:    -7.423      1.617      3.764
REMARK INTER + INTRA:          -9.503
REMARK INTER:                  -8.892
REMARK INTRA:                  -0.611
REMARK UNBOUND:                -0.779
REMARK  Name = 
REMARK  4 active torsions:
REMARK  status: ('A' for Active; 'I' for Inactive)
REMARK    1  A    between atoms: C_1  and  C_2
REMARK    2  A    between atoms: N_7  and  C_8
REMARK    3  A    between atoms: C_8  and  C_9
REMARK    4  A    between atoms: C_13  and  C_14
REMARK                            x       y       z     vdW  Elec       q    Type
REMARK                         _______ _______ _______ _____ _____    ______ ____
ROOT
ATOM      1  C   UNL     1      44.501   3.904  11.332  0.00  0.00    +0.000 C 
ATOM      2  C   UNL     1      43.214   3.626  12.109  0.00  0.00    +0.000 C 
ATOM      3  C   UNL     1      43.191   4.568  10.952  0.00  0.00    +0.000 C 
ENDROOT
BRANCH   1  10
ATOM      4  C   UNL     1      47.043   0.583   6.661  0.00  0.00    +0.000 C 
ATOM      5  C   UNL     1      46.606   1.832   7.365  0.00  0.00    +0.000 A 
ATOM      6  C   UNL     1      46.725   3.084   6.773  0.00  0.00    +0.000 A 
ATOM      7  C   UNL     1      46.272   4.185   7.482  0.00  0.00    +0.000 A 
ATOM      8  N   UNL     1      45.726   4.126   8.716  0.00  0.00    +0.000 NA
ATOM      9  C   UNL     1      45.632   2.917   9.306  0.00  0.00    +0.000 A 
ATOM     10  N   UNL     1      45.039   2.751  10.582  0.00  0.00    +0.000 N 
ATOM     11  C   UNL     1      46.054   1.755   8.648  0.00  0.00    +0.000 A 
ATOM     12  H   UNL     1      45.636   2.151  11.142  0.00  0.00    +0.000 HD
ENDBRANCH   1  10
BRANCH   1  13
ATOM     13  C   UNL     1      45.556   4.779  12.006  0.00  0.00    +0.000 A 
ATOM     14  C   UNL     1      45.862   6.059  11.521  0.00  0.00    +0.000 A 
ATOM     15  C   UNL     1      46.745   6.896  12.199  0.00  0.00    +0.000 A 
ATOM     16  C   UNL     1      47.328   6.474  13.395  0.00  0.00    +0.000 A 
ATOM     17  C   UNL     1      47.052   5.205  13.929  0.00  0.00    +0.000 A 
ATOM     18  C   UNL     1      46.203   4.365  13.187  0.00  0.00    +0.000 A 
BRANCH  17  19
ATOM     19  C   UNL     1      47.531   4.798  15.270  0.00  0.00    +0.000 A 
ATOM     20  C   UNL     1      47.288   3.499  15.755  0.00  0.00    +0.000 A 
ATOM     21  C   UNL     1      47.825   3.059  16.969  0.00  0.00    +0.000 A 
ATOM     22  C   UNL     1      48.628   3.907  17.723  0.00  0.00    +0.000 A 
ATOM     23  C   UNL     1      48.878   5.200  17.272  0.00  0.00    +0.000 A 
ATOM     24  C   UNL     1      48.330   5.642  16.064  0.00  0.00    +0.000 A 
ENDBRANCH  17  19
ENDBRANCH   1  13
TORSDOF 3
ENDMDL
MODEL 3
REMARK VINA RESULT:    -6.993      1.446      2.059
REMARK INTER + INTRA:          -8.998
REMARK INTER:                  -9.215
REMARK INTRA:                   0.217
REMARK UNBOUND:                -0.779
REMARK  Name = 
REMARK  4 active torsions:
REMARK  status: ('A' for Active; 'I' for Inactive)
REMARK    1  A    between atoms: C_1  and  C_2
REMARK    2  A    between atoms: N_7  and  C_8
REMARK    3  A    between atoms: C_8  and  C_9
REMARK    4  A    between atoms: C_13  and  C_14
REMARK                            x       y       z     vdW  Elec       q    Type
REMARK                         _______ _______ _______ _____ _____    ______ ____
ROOT
ATOM      1  C   UNL     1      44.290   5.479  11.098  0.00  0.00    +0.000 C 
ATOM      2  C   UNL     1      43.012   4.670  11.321  0.00  0.00    +0.000 C 
ATOM      3  C   UNL     1      42.967   6.159  11.394  0.00  0.00    +0.000 C 
ENDROOT
BRANCH   1  10
ATOM      4  C   UNL     1      46.810   3.082   5.881  0.00  0.00    +0.000 C 
ATOM      5  C   UNL     1      46.183   3.029   7.241  0.00  0.00    +0.000 A 
ATOM      6  C   UNL     1      46.003   1.826   7.915  0.00  0.00    +0.000 A 
ATOM      7  C   UNL     1      45.439   1.867   9.180  0.00  0.00    +0.000 A 
ATOM      8  N   UNL     1      45.044   2.999   9.803  0.00  0.00    +0.000 NA
ATOM      9  C   UNL     1      45.192   4.166   9.143  0.00  0.00    +0.000 A 
ATOM     10  N   UNL     1      44.843   5.407   9.730  0.00  0.00    +0.000 N 
ATOM     11  C   UNL     1      45.768   4.209   7.867  0.00  0.00    +0.000 A 
ATOM     12  H   UNL     1      44.313   5.948   9.054  0.00  0.00    +0.000 HD
ENDBRANCH   1  10
BRANCH   1  13
ATOM     13  C   UNL     1      45.333   5.469  12.212  0.00  0.00    +0.000 A 
ATOM     14  C   UNL     1      45.284   4.530  13.252  0.00  0.00    +0.000 A 
ATOM     15  C   UNL     1      46.296   4.455  14.207  0.00  0.00    +0.000 A 
ATOM     16  C   UNL     1      47.395   5.312  14.128  0.00  0.00    +0.000 A 
ATOM     17  C   UNL     1      47.498   6.268  13.105  0.00  0.00    +0.000 A 
ATOM     18  C   UNL     1      46.430   6.354  12.194  0.00  0.00    +0.000 A 
BRANCH  17  19
ATOM     19  C   UNL     1      48.723   7.076  12.909  0.00  0.00    +0.000 A 
ATOM     20  C   UNL     1      48.995   7.675  11.664  0.00  0.00    +0.000 A 
ATOM     21  C   UNL     1      50.087   8.532  11.489  0.00  0.00    +0.000 A 
ATOM     22  C   UNL     1      50.929   8.816  12.558  0.00  0.00    +0.000 A 
ATOM     23  C   UNL     1      50.689   8.230  13.798  0.00  0.00    +0.000 A 
ATOM     24  C   UNL     1      49.603   7.364  13.968  0.00  0.00    +0.000 A 
ENDBRANCH  17  19
ENDBRANCH   1  13
TORSDOF 3
ENDMDL
MODEL 4
REMARK VINA RESULT:    -6.683      1.767      6.825
REMARK INTER + INTRA:          -8.634
REMARK INTER:                  -7.914
REMARK INTRA:                  -0.719
REMARK UNBOUND:                -0.779
REMARK  Name = 
REMARK  4 active torsions:
REMARK  status: ('A' for Active; 'I' for Inactive)
REMARK    1  A    between atoms: C_1  and  C_2
REMARK    2  A    between atoms: N_7  and  C_8
REMARK    3  A    between atoms: C_8  and  C_9
REMARK    4  A    between atoms: C_13  and  C_14
REMARK                            x       y       z     vdW  Elec       q    Type
REMARK                         _______ _______ _______ _____ _____    ______ ____
ROOT
ATOM      1  C   UNL     1      46.167   5.486  13.240  0.00  0.00    +0.000 C 
ATOM      2  C   UNL     1      46.171   4.673  14.535  0.00  0.00    +0.000 C 
ATOM      3  C   UNL     1      47.327   4.577  13.598  0.00  0.00    +0.000 C 
ENDROOT
BRANCH   1  10
ATOM      4  C   UNL     1      48.246  11.384  12.795  0.00  0.00    +0.000 C 
ATOM      5  C   UNL     1      48.218   9.921  12.474  0.00  0.00    +0.000 A 
ATOM      6  C   UNL     1      49.146   9.344  11.614  0.00  0.00    +0.000 A 
ATOM      7  C   UNL     1      49.067   7.979  11.391  0.00  0.00    +0.000 A 
ATOM      8  N   UNL     1      48.141   7.168  11.949  0.00  0.00    +0.000 NA
ATOM      9  C   UNL     1      47.222   7.726  12.762  0.00  0.00    +0.000 A 
ATOM     10  N   UNL     1      46.237   6.950  13.422  0.00  0.00    +0.000 N 
ATOM     11  C   UNL     1      47.245   9.097  13.049  0.00  0.00    +0.000 A 
ATOM     12  H   UNL     1      45.338   7.411  13.319  0.00  0.00    +0.000 HD
ENDBRANCH   1  10
BRANCH   1  13
ATOM     13  C   UNL     1      45.238   5.023  12.120  0.00  0.00    +0.000 A 
ATOM     14  C   UNL     1      43.910   5.464  12.042  0.00  0.00    +0.000 A 
ATOM     15  C   UNL     1      43.098   5.126  10.961  0.00  0.00    +0.000 A 
ATOM     16  C   UNL     1      43.610   4.349   9.920  0.00  0.00    +0.000 A 
ATOM     17  C   UNL     1      44.935   3.885   9.944  0.00  0.00    +0.000 A 
ATOM     18  C   UNL     1      45.706   4.197  11.078  0.00  0.00    +0.000 A 
BRANCH  17  19
ATOM     19  C   UNL     1      45.545   3.198   8.783  0.00  0.00    +0.000 A 
ATOM     20  C   UNL     1      46.012   3.935   7.678  0.00  0.00    +0.000 A 
ATOM     21  C   UNL     1      46.690   3.317   6.622  0.00  0.00    +0.000 A 
ATOM     22  C   UNL     1      46.925   1.947   6.651  0.00  0.00    +0.000 A 
ATOM     23  C   UNL     1      46.467   1.193   7.727  0.00  0.00    +0.000 A 
ATOM     24  C   UNL     1      45.778   1.810   8.776  0.00  0.00    +0.000 A 
ENDBRANCH  17  19
ENDBRANCH   1  13
TORSDOF 3
ENDMDL
MODEL 5
REMARK VINA RESULT:    -6.582      1.982      6.788
REMARK INTER + INTRA:          -8.515
REMARK INTER:                  -8.241
REMARK INTRA:                  -0.274
REMARK UNBOUND:                -0.779
REMARK  Name = 
REMARK  4 active torsions:
REMARK  status: ('A' for Active; 'I' for Inactive)
REMARK    1  A    between atoms: C_1  and  C_2
REMARK    2  A    between atoms: N_7  and  C_8
REMARK    3  A    between atoms: C_8  and  C_9
REMARK    4  A    between atoms: C_13  and  C_14
REMARK                            x       y       z     vdW  Elec       q    Type
REMARK                         _______ _______ _______ _____ _____    ______ ____
ROOT
ATOM      1  C   UNL     1      45.314   6.510  11.410  0.00  0.00    +0.000 C 
ATOM      2  C   UNL     1      44.204   7.558  11.333  0.00  0.00    +0.000 C 
ATOM      3  C   UNL     1      44.594   6.989  12.656  0.00  0.00    +0.000 C 
ENDROOT
BRANCH   1  10
ATOM      4  C   UNL     1      51.252   8.419  12.043  0.00  0.00    +0.000 C 
ATOM      5  C   UNL     1      49.952   7.835  12.505  0.00  0.00    +0.000 A 
ATOM      6  C   UNL     1      49.742   7.476  13.831  0.00  0.00    +0.000 A 
ATOM      7  C   UNL     1      48.501   6.968  14.180  0.00  0.00    +0.000 A 
ATOM      8  N   UNL     1      47.479   6.792  13.315  0.00  0.00    +0.000 NA
ATOM      9  C   UNL     1      47.685   7.113  12.022  0.00  0.00    +0.000 A 
ATOM     10  N   UNL     1      46.661   6.999  11.049  0.00  0.00    +0.000 N 
ATOM     11  C   UNL     1      48.907   7.647  11.594  0.00  0.00    +0.000 A 
ATOM     12  H   UNL     1      47.044   6.547  10.226  0.00  0.00    +0.000 HD
ENDBRANCH   1  10
BRANCH   1  13
ATOM     13  C   UNL     1      44.989   5.102  10.916  0.00  0.00    +0.000 A 
ATOM     14  C   UNL     1      43.874   4.399  11.394  0.00  0.00    +0.000 A 
ATOM     15  C   UNL     1      43.519   3.160  10.863  0.00  0.00    +0.000 A 
ATOM     16  C   UNL     1      44.268   2.606   9.823  0.00  0.00    +0.000 A 
ATOM     17  C   UNL     1      45.390   3.270   9.303  0.00  0.00    +0.000 A 
ATOM     18  C   UNL     1      45.752   4.489   9.902  0.00  0.00    +0.000 A 
BRANCH  17  19
ATOM     19  C   UNL     1      46.101   2.781   8.099  0.00  0.00    +0.000 A 
ATOM     20  C   UNL     1      46.499   1.434   8.000  0.00  0.00    +0.000 A 
ATOM     21  C   UNL     1      47.072   0.926   6.829  0.00  0.00    +0.000 A 
ATOM     22  C   UNL     1      47.253   1.752   5.727  0.00  0.00    +0.000 A 
ATOM     23  C   UNL     1      46.878   3.091   5.800  0.00  0.00    +0.000 A 
ATOM     24  C   UNL     1      46.316   3.600   6.976  0.00  0.00    +0.000 A 
ENDBRANCH  17  19
ENDBRANCH   1  13
TORSDOF 3
ENDMDL
MODEL 6
REMARK VINA RESULT:    -6.579      3.224      7.239
REMARK INTER + INTRA:          -8.511
REMARK INTER:                  -9.072
REMARK INTRA:                   0.561
REMARK UNBOUND:                -0.779
REMARK  Name = 
REMARK  4 active torsions:
REMARK  status: ('A' for Active; 'I' for Inactive)
REMARK    1  A    between atoms: C_1  and  C_2
REMARK    2  A    between atoms: N_7  and  C_8
REMARK    3  A    between atoms: C_8  and  C_9
REMARK    4  A    between atoms: C_13  and  C_14
REMARK                            x       y       z     vdW  Elec       q    Type
REMARK                         _______ _______ _______ _____ _____    ______ ____
ROOT
ATOM      1  C   UNL     1      44.375   7.141  11.513  0.00  0.00    +0.000 C 
ATOM      2  C   UNL     1      45.142   7.606  12.751  0.00  0.00    +0.000 C 
ATOM      3  C   UNL     1      45.754   7.761  11.400  0.00  0.00    +0.000 C 
ENDROOT
BRANCH   1  10
ATOM      4  C   UNL     1      40.663  11.948   9.957  0.00  0.00    +0.000 C 
ATOM      5  C   UNL     1      41.971  11.242  10.148  0.00  0.00    +0.000 A 
ATOM      6  C   UNL     1      43.185  11.884   9.934  0.00  0.00    +0.000 A 
ATOM      7  C   UNL     1      44.349  11.167  10.160  0.00  0.00    +0.000 A 
ATOM      8  N   UNL     1      44.385   9.880  10.568  0.00  0.00    +0.000 NA
ATOM      9  C   UNL     1      43.210   9.244  10.751  0.00  0.00    +0.000 A 
ATOM     10  N   UNL     1      43.147   7.907  11.215  0.00  0.00    +0.000 N 
ATOM     11  C   UNL     1      41.991   9.905  10.559  0.00  0.00    +0.000 A 
ATOM     12  H   UNL     1      42.484   7.395  10.642  0.00  0.00    +0.000 HD
ENDBRANCH   1  10
BRANCH   1  13
ATOM     13  C   UNL     1      44.266   5.637  11.275  0.00  0.00    +0.000 A 
ATOM     14  C   UNL     1      43.337   4.852  11.973  0.00  0.00    +0.000 A 
ATOM     15  C   UNL     1      43.166   3.501  11.677  0.00  0.00    +0.000 A 
ATOM     16  C   UNL     1      43.913   2.909  10.656  0.00  0.00    +0.000 A 
ATOM     17  C   UNL     1      44.852   3.650   9.921  0.00  0.00    +0.000 A 
ATOM     18  C   UNL     1      45.040   4.995  10.287  0.00  0.00    +0.000 A 
BRANCH  17  19
ATOM     19  C   UNL     1      45.537   3.089   8.735  0.00  0.00    +0.000 A 
ATOM     20  C   UNL     1      45.992   3.932   7.704  0.00  0.00    +0.000 A 
ATOM     21  C   UNL     1      46.738   3.436   6.629  0.00  0.00    +0.000 A 
ATOM     22  C   UNL     1      47.054   2.084   6.566  0.00  0.00    +0.000 A 
ATOM     23  C   UNL     1      46.609   1.225   7.567  0.00  0.00    +0.000 A 
ATOM     24  C   UNL     1      45.853   1.722   8.634  0.00  0.00    +0.000 A 
ENDBRANCH  17  19
ENDBRANCH   1  13
TORSDOF 3
ENDMDL
MODEL 7
REMARK VINA RESULT:    -6.378      4.707      8.012
REMARK INTER + INTRA:          -8.275
REMARK INTER:                  -7.489
REMARK INTRA:                  -0.786
REMARK UNBOUND:                -0.779
REMARK  Name = 
REMARK  4 active torsions:
REMARK  status: ('A' for Active; 'I' for Inactive)
REMARK    1  A    between atoms: C_1  and  C_2
REMARK    2  A    between atoms: N_7  and  C_8
REMARK    3  A    between atoms: C_8  and  C_9
REMARK    4  A    between atoms: C_13  and  C_14
REMARK                            x       y       z     vdW  Elec       q    Type
REMARK                         _______ _______ _______ _____ _____    ______ ____
ROOT
ATOM      1  C   UNL     1      49.258   6.159  17.253  0.00  0.00    +0.000 C 
ATOM      2  C   UNL     1      48.670   7.102  18.303  0.00  0.00    +0.000 C 
ATOM      3  C   UNL     1      48.010   5.792  18.033  0.00  0.00    +0.000 C 
ENDROOT
BRANCH   1  10
ATOM      4  C   UNL     1      53.776   1.939  18.296  0.00  0.00    +0.000 C 
ATOM      5  C   UNL     1      52.423   2.406  17.851  0.00  0.00    +0.000 A 
ATOM      6  C   UNL     1      51.452   1.516  17.407  0.00  0.00    +0.000 A 
ATOM      7  C   UNL     1      50.218   2.027  17.040  0.00  0.00    +0.000 A 
ATOM      8  N   UNL     1      49.895   3.338  17.077  0.00  0.00    +0.000 NA
ATOM      9  C   UNL     1      50.841   4.210  17.481  0.00  0.00    +0.000 A 
ATOM     10  N   UNL     1      50.582   5.599  17.589  0.00  0.00    +0.000 N 
ATOM     11  C   UNL     1      52.108   3.769  17.884  0.00  0.00    +0.000 A 
ATOM     12  H   UNL     1      51.352   6.106  17.165  0.00  0.00    +0.000 HD
ENDBRANCH   1  10
BRANCH   1  13
ATOM     13  C   UNL     1      49.075   6.538  15.785  0.00  0.00    +0.000 A 
ATOM     14  C   UNL     1      50.043   7.284  15.097  0.00  0.00    +0.000 A 
ATOM     15  C   UNL     1      49.925   7.535  13.731  0.00  0.00    +0.000 A 
ATOM     16  C   UNL     1      48.838   7.025  13.019  0.00  0.00    +0.000 A 
ATOM     17  C   UNL     1      47.844   6.266  13.657  0.00  0.00    +0.000 A 
ATOM     18  C   UNL     1      47.965   6.083  15.046  0.00  0.00    +0.000 A 
BRANCH  17  19
ATOM     19  C   UNL     1      46.771   5.584  12.897  0.00  0.00    +0.000 A 
ATOM     20  C   UNL     1      46.280   6.134  11.698  0.00  0.00    +0.000 A 
ATOM     21  C   UNL     1      45.348   5.453  10.909  0.00  0.00    +0.000 A 
ATOM     22  C   UNL     1      44.892   4.198  11.297  0.00  0.00    +0.000 A 
ATOM     23  C   UNL     1      45.353   3.633  12.482  0.00  0.00    +0.000 A 
ATOM     24  C   UNL     1      46.276   4.322  13.276  0.00  0.00    +0.000 A 
ENDBRANCH  17  19
ENDBRANCH   1  13
TORSDOF 3
ENDMDL
MODEL 8
REMARK VINA RESULT:    -6.353      3.304      7.761
REMARK INTER + INTRA:          -8.247
REMARK INTER:                  -7.570
REMARK INTRA:                  -0.676
REMARK UNBOUND:                -0.779
REMARK  Name = 
REMARK  4 active torsions:
REMARK  status: ('A' for Active; 'I' for Inactive)
REMARK    1  A    between atoms: C_1  and  C_2
REMARK    2  A    between atoms: N_7  and  C_8
REMARK    3  A    between atoms: C_8  and  C_9
REMARK    4  A    between atoms: C_13  and  C_14
REMARK                            x       y       z     vdW  Elec       q    Type
REMARK                         _______ _______ _______ _____ _____    ______ ____
ROOT
ATOM      1  C   UNL     1      48.945   7.802  12.589  0.00  0.00    +0.000 C 
ATOM      2  C   UNL     1      49.920   7.909  11.417  0.00  0.00    +0.000 C 
ATOM      3  C   UNL     1      49.591   9.123  12.219  0.00  0.00    +0.000 C 
ENDROOT
BRANCH   1  10
ATOM      4  C   UNL     1      50.217   6.101  18.488  0.00  0.00    +0.000 C 
ATOM      5  C   UNL     1      49.618   6.960  17.416  0.00  0.00    +0.000 A 
ATOM      6  C   UNL     1      48.929   8.130  17.717  0.00  0.00    +0.000 A 
ATOM      7  C   UNL     1      48.430   8.880  16.665  0.00  0.00    +0.000 A 
ATOM      8  N   UNL     1      48.560   8.548  15.362  0.00  0.00    +0.000 NA
ATOM      9  C   UNL     1      49.203   7.401  15.065  0.00  0.00    +0.000 A 
ATOM     10  N   UNL     1      49.422   6.990  13.727  0.00  0.00    +0.000 N 
ATOM     11  C   UNL     1      49.751   6.596  16.072  0.00  0.00    +0.000 A 
ATOM     12  H   UNL     1      49.185   6.007  13.646  0.00  0.00    +0.000 HD
ENDBRANCH   1  10
BRANCH   1  13
ATOM     13  C   UNL     1      47.463   7.634  12.259  0.00  0.00    +0.000 A 
ATOM     14  C   UNL     1      46.552   8.687  12.433  0.00  0.00    +0.000 A 
ATOM     15  C   UNL     1      45.223   8.566  12.031  0.00  0.00    +0.000 A 
ATOM     16  C   UNL     1      44.782   7.388  11.425  0.00  0.00    +0.000 A 
ATOM     17  C   UNL     1      45.653   6.306  11.221  0.00  0.00    +0.000 A 
ATOM     18  C   UNL     1      46.971   6.442  11.693  0.00  0.00    +0.000 A 
BRANCH  17  19
ATOM     19  C   UNL     1      45.250   5.113  10.441  0.00  0.00    +0.000 A 
ATOM     20  C   UNL     1      45.625   4.980   9.090  0.00  0.00    +0.000 A 
ATOM     21  C   UNL     1      45.352   3.814   8.367  0.00  0.00    +0.000 A 
ATOM     22  C   UNL     1      44.703   2.749   8.982  0.00  0.00    +0.000 A 
ATOM     23  C   UNL     1      44.313   2.857  10.314  0.00  0.00    +0.000 A 
ATOM     24  C   UNL     1      44.577   4.029  11.032  0.00  0.00    +0.000 A 
ENDBRANCH  17  19
ENDBRANCH   1  13
TORSDOF 3
ENDMDL
MODEL 9
REMARK VINA RESULT:    -6.342      4.857      8.378
REMARK INTER + INTRA:          -8.233
REMARK INTER:                  -7.728
REMARK INTRA:                  -0.505
REMARK UNBOUND:                -0.779
REMARK  Name = 
REMARK  4 active torsions:
REMARK  status: ('A' for Active; 'I' for Inactive)
REMARK    1  A    between atoms: C_1  and  C_2
REMARK    2  A    between atoms: N_7  and  C_8
REMARK    3  A    between atoms: C_8  and  C_9
REMARK    4  A    between atoms: C_13  and  C_14
REMARK                            x       y       z     vdW  Elec       q    Type
REMARK                         _______ _______ _______ _____ _____    ______ ____
ROOT
ATOM      1  C   UNL     1      43.590  10.705  10.841  0.00  0.00    +0.000 C 
ATOM      2  C   UNL     1      44.216  11.594   9.766  0.00  0.00    +0.000 C 
ATOM      3  C   UNL     1      43.207  10.565   9.380  0.00  0.00    +0.000 C 
ENDROOT
BRANCH   1  10
ATOM      4  C   UNL     1      38.429  12.526  13.899  0.00  0.00    +0.000 C 
ATOM      5  C   UNL     1      39.222  11.692  12.939  0.00  0.00    +0.000 A 
ATOM      6  C   UNL     1      38.621  10.721  12.146  0.00  0.00    +0.000 A 
ATOM      7  C   UNL     1      39.421  10.012  11.264  0.00  0.00    +0.000 A 
ATOM      8  N   UNL     1      40.752  10.197  11.126  0.00  0.00    +0.000 NA
ATOM      9  C   UNL     1      41.345  11.119  11.912  0.00  0.00    +0.000 A 
ATOM     10  N   UNL     1      42.729  11.410  11.811  0.00  0.00    +0.000 N 
ATOM     11  C   UNL     1      40.602  11.887  12.816  0.00  0.00    +0.000 A 
ATOM     12  H   UNL     1      43.121  11.445  12.746  0.00  0.00    +0.000 HD
ENDBRANCH   1  10
BRANCH   1  13
ATOM     13  C   UNL     1      44.463   9.604  11.440  0.00  0.00    +0.000 A 
ATOM     14  C   UNL     1      45.522   9.902  12.309  0.00  0.00    +0.000 A 
ATOM     15  C   UNL     1      46.247   8.892  12.939  0.00  0.00    +0.000 A 
ATOM     16  C   UNL     1      45.911   7.554  12.723  0.00  0.00    +0.000 A 
ATOM     17  C   UNL     1      44.856   7.199  11.868  0.00  0.00    +0.000 A 
ATOM     18  C   UNL     1      44.185   8.242  11.205  0.00  0.00    +0.000 A 
BRANCH  17  19
ATOM     19  C   UNL     1      44.381   5.802  11.748  0.00  0.00    +0.000 A 
ATOM     20  C   UNL     1      44.601   5.068  10.567  0.00  0.00    +0.000 A 
ATOM     21  C   UNL     1      44.260   3.715  10.473  0.00  0.00    +0.000 A 
ATOM     22  C   UNL     1      43.698   3.061  11.563  0.00  0.00    +0.000 A 
ATOM     23  C   UNL     1      43.460   3.764  12.741  0.00  0.00    +0.000 A 
ATOM     24  C   UNL     1      43.791   5.120  12.828  0.00  0.00    +0.000 A 
ENDBRANCH  17  19
ENDBRANCH   1  13
TORSDOF 3
ENDMDL
