MODEL 1
REMARK VINA RESULT:    -8.171      0.000      0.000
REMARK INTER + INTRA:         -12.837
REMARK INTER:                 -11.515
REMARK INTRA:                  -1.322
REMARK UNBOUND:                -1.322
REMARK  Name = 
REMARK  8 active torsions:
REMARK  status: ('A' for Active; 'I' for Inactive)
REMARK    1  A    between atoms: C_1  and  N_2
REMARK    2  A    between atoms: C_4  and  C_5
REMARK    3  A    between atoms: N_7  and  C_8
REMARK    4  A    between atoms: C_8  and  C_9
REMARK    5  A    between atoms: C_12  and  C_13
REMARK    6  A    between atoms: C_13  and  O_14
REMARK    7  A    between atoms: O_14  and  C_15
REMARK    8  A    between atoms: C_15  and  C_16
REMARK                            x       y       z     vdW  Elec       q    Type
REMARK                         _______ _______ _______ _____ _____    ______ ____
ROOT
ATOM      1  C   UNL     1      46.962   7.728  12.963  0.00  0.00    +0.000 C 
ENDROOT
BRANCH   1   2
ATOM      2  C   UNL     1      46.096   6.626  12.418  0.00  0.00    +0.000 A 
ATOM      3  C   UNL     1      45.988   6.423  11.035  0.00  0.00    +0.000 A 
ATOM      4  C   UNL     1      45.200   5.385  10.530  0.00  0.00    +0.000 A 
ATOM      5  C   UNL     1      44.497   4.538  11.395  0.00  0.00    +0.000 A 
ATOM      6  C   UNL     1      44.596   4.750  12.776  0.00  0.00    +0.000 A 
ATOM      7  C   UNL     1      45.384   5.786  13.282  0.00  0.00    +0.000 A 
BRANCH   5   8
ATOM      8  C   UNL     1      43.629   3.430  10.858  0.00  0.00    +0.000 C 
BRANCH   8   9
ATOM      9  O   UNL     1      43.981   3.166   9.505  0.00  0.00    +0.000 OA
BRANCH   9  10
ATOM     10  C   UNL     1      44.816   2.013   9.408  0.00  0.00    +0.000 C 
BRANCH  10  11
ATOM     11  C   UNL     1      45.780   2.151   8.258  0.00  0.00    +0.000 A 
ATOM     12  C   UNL     1      46.586   1.079   7.847  0.00  0.00    +0.000 A 
ATOM     13  C   UNL     1      47.456   1.219   6.765  0.00  0.00    +0.000 A 
ATOM     14  C   UNL     1      47.520   2.426   6.073  0.00  0.00    +0.000 A 
ATOM     15  C   UNL     1      46.709   3.492   6.457  0.00  0.00    +0.000 A 
ATOM     16  C   UNL     1      45.839   3.354   7.539  0.00  0.00    +0.000 A 
ENDBRANCH  10  11
ENDBRANCH   9  10
ENDBRANCH   8   9
ENDBRANCH   5   8
ENDBRANCH   1   2
BRANCH   1  19
ATOM     17  C   UNL     1      48.548   6.894  14.620  0.00  0.00    +0.000 C 
ATOM     18  O   UNL     1      49.354   6.609  13.742  0.00  0.00    +0.000 OA
ATOM     19  N   UNL     1      47.339   7.493  14.336  0.00  0.00    +0.000 N 
ATOM     20  H   UNL     1      46.659   7.645  15.066  0.00  0.00    +0.000 HD
BRANCH  17  24
ATOM     21  C   UNL     1      50.044   7.550  19.335  0.00  0.00    +0.000 C 
ATOM     22  N   UNL     1      49.489   6.946  18.147  0.00  0.00    +0.000 N 
ATOM     23  C   UNL     1      49.354   7.551  16.926  0.00  0.00    +0.000 A 
ATOM     24  C   UNL     1      48.798   6.636  16.036  0.00  0.00    +0.000 A 
ATOM     25  C   UNL     1      48.583   5.418  16.780  0.00  0.00    +0.000 A 
ATOM     26  C   UNL     1      48.072   4.137  16.593  0.00  0.00    +0.000 A 
ATOM     27 CL   UNL     1      47.402   3.653  15.115  0.00  0.00    +0.000 Cl
ATOM     28  N   UNL     1      48.016   3.231  17.588  0.00  0.00    +0.000 NA
ATOM     29  C   UNL     1      48.485   3.613  18.781  0.00  0.00    +0.000 A 
ATOM     30  N   UNL     1      49.002   4.802  19.115  0.00  0.00    +0.000 NA
ATOM     31  C   UNL     1      49.022   5.661  18.079  0.00  0.00    +0.000 A 
ENDBRANCH  17  24
ENDBRANCH   1  19
TORSDOF 7
ENDMDL
MODEL 2
REMARK VINA RESULT:    -7.941      1.889      2.749
REMARK INTER + INTRA:         -12.512
REMARK INTER:                 -11.387
REMARK INTRA:                  -1.125
REMARK UNBOUND:                -1.322
REMARK  Name = 
REMARK  8 active torsions:
REMARK  status: ('A' for Active; 'I' for Inactive)
REMARK    1  A    between atoms: C_1  and  N_2
REMARK    2  A    between atoms: C_4  and  C_5
REMARK    3  A    between atoms: N_7  and  C_8
REMARK    4  A    between atoms: C_8  and  C_9
REMARK    5  A    between atoms: C_12  and  C_13
REMARK    6  A    between atoms: C_13  and  O_14
REMARK    7  A    between atoms: O_14  and  C_15
REMARK    8  A    between atoms: C_15  and  C_16
REMARK                            x       y       z     vdW  Elec       q    Type
REMARK                         _______ _______ _______ _____ _____    ______ ____
ROOT
ATOM      1  C   UNL     1      48.213   6.568  13.781  0.00  0.00    +0.000 C 
ENDROOT
BRANCH   1   2
ATOM      2  C   UNL     1      47.001   6.053  13.055  0.00  0.00    +0.000 A 
ATOM      3  C   UNL     1      46.149   5.123  13.663  0.00  0.00    +0.000 A 
ATOM      4  C   UNL     1      45.011   4.661  12.995  0.00  0.00    +0.000 A 
ATOM      5  C   UNL     1      44.709   5.112  11.705  0.00  0.00    +0.000 A 
ATOM      6  C   UNL     1      45.569   6.033  11.094  0.00  0.00    +0.000 A 
ATOM      7  C   UNL     1      46.705   6.496  11.760  0.00  0.00    +0.000 A 
BRANCH   5   8
ATOM      8  C   UNL     1      43.497   4.603  10.970  0.00  0.00    +0.000 C 
BRANCH   8   9
ATOM      9  O   UNL     1      43.868   4.221   9.651  0.00  0.00    +0.000 OA
BRANCH   9  10
ATOM     10  C   UNL     1      44.302   2.863   9.614  0.00  0.00    +0.000 C 
BRANCH  10  11
ATOM     11  C   UNL     1      45.408   2.686   8.605  0.00  0.00    +0.000 A 
ATOM     12  C   UNL     1      45.999   1.435   8.379  0.00  0.00    +0.000 A 
ATOM     13  C   UNL     1      47.007   1.287   7.425  0.00  0.00    +0.000 A 
ATOM     14  C   UNL     1      47.424   2.385   6.676  0.00  0.00    +0.000 A 
ATOM     15  C   UNL     1      46.830   3.629   6.874  0.00  0.00    +0.000 A 
ATOM     16  C   UNL     1      45.823   3.779   7.829  0.00  0.00    +0.000 A 
ENDBRANCH  10  11
ENDBRANCH   9  10
ENDBRANCH   8   9
ENDBRANCH   5   8
ENDBRANCH   1   2
BRANCH   1  19
ATOM     17  C   UNL     1      49.157   6.484  16.031  0.00  0.00    +0.000 C 
ATOM     18  O   UNL     1      50.296   6.554  15.583  0.00  0.00    +0.000 OA
ATOM     19  N   UNL     1      48.047   6.521  15.214  0.00  0.00    +0.000 N 
ATOM     20  H   UNL     1      47.125   6.381  15.598  0.00  0.00    +0.000 HD
BRANCH  17  24
ATOM     21  C   UNL     1      48.664   4.502  20.584  0.00  0.00    +0.000 C 
ATOM     22  N   UNL     1      48.650   5.450  19.495  0.00  0.00    +0.000 N 
ATOM     23  C   UNL     1      49.070   5.210  18.215  0.00  0.00    +0.000 A 
ATOM     24  C   UNL     1      48.877   6.364  17.459  0.00  0.00    +0.000 A 
ATOM     25  C   UNL     1      48.317   7.349  18.353  0.00  0.00    +0.000 A 
ATOM     26  C   UNL     1      47.896   8.676  18.339  0.00  0.00    +0.000 A 
ATOM     27 CL   UNL     1      48.031   9.637  16.951  0.00  0.00    +0.000 Cl
ATOM     28  N   UNL     1      47.423   9.294  19.437  0.00  0.00    +0.000 NA
ATOM     29  C   UNL     1      47.364   8.569  20.561  0.00  0.00    +0.000 A 
ATOM     30  N   UNL     1      47.730   7.293  20.731  0.00  0.00    +0.000 NA
ATOM     31  C   UNL     1      48.199   6.738  19.599  0.00  0.00    +0.000 A 
ENDBRANCH  17  24
ENDBRANCH   1  19
TORSDOF 7
ENDMDL
MODEL 3
REMARK VINA RESULT:    -7.905      1.403      1.615
REMARK INTER + INTRA:         -12.462
REMARK INTER:                 -11.325
REMARK INTRA:                  -1.136
REMARK UNBOUND:                -1.322
REMARK  Name = 
REMARK  8 active torsions:
REMARK  status: ('A' for Active; 'I' for Inactive)
REMARK    1  A    between atoms: C_1  and  N_2
REMARK    2  A    between atoms: C_4  and  C_5
REMARK    3  A    between atoms: N_7  and  C_8
REMARK    4  A    between atoms: C_8  and  C_9
REMARK    5  A    between atoms: C_12  and  C_13
REMARK    6  A    between atoms: C_13  and  O_14
REMARK    7  A    between atoms: O_14  and  C_15
REMARK    8  A    between atoms: C_15  and  C_16
REMARK                            x       y       z     vdW  Elec       q    Type
REMARK                         _______ _______ _______ _____ _____    ______ ____
ROOT
ATOM      1  C   UNL     1      48.299   6.541  13.601  0.00  0.00    +0.000 C 
ENDROOT
BRANCH   1   2
ATOM      2  C   UNL     1      47.054   6.060  12.908  0.00  0.00    +0.000 A 
ATOM      3  C   UNL     1      46.701   6.564  11.649  0.00  0.00    +0.000 A 
ATOM      4  C   UNL     1      45.555   6.100  10.997  0.00  0.00    +0.000 A 
ATOM      5  C   UNL     1      44.737   5.133  11.592  0.00  0.00    +0.000 A 
ATOM      6  C   UNL     1      45.086   4.639  12.856  0.00  0.00    +0.000 A 
ATOM      7  C   UNL     1      46.231   5.100  13.509  0.00  0.00    +0.000 A 
BRANCH   5   8
ATOM      8  C   UNL     1      43.489   4.643  10.905  0.00  0.00    +0.000 C 
BRANCH   8   9
ATOM      9  O   UNL     1      43.820   4.175   9.602  0.00  0.00    +0.000 OA
BRANCH   9  10
ATOM     10  C   UNL     1      44.350   2.851   9.653  0.00  0.00    +0.000 C 
BRANCH  10  11
ATOM     11  C   UNL     1      45.443   2.678   8.630  0.00  0.00    +0.000 A 
ATOM     12  C   UNL     1      46.002   1.420   8.363  0.00  0.00    +0.000 A 
ATOM     13  C   UNL     1      46.998   1.276   7.396  0.00  0.00    +0.000 A 
ATOM     14  C   UNL     1      47.434   2.385   6.674  0.00  0.00    +0.000 A 
ATOM     15  C   UNL     1      46.872   3.636   6.913  0.00  0.00    +0.000 A 
ATOM     16  C   UNL     1      45.877   3.782   7.881  0.00  0.00    +0.000 A 
ENDBRANCH  10  11
ENDBRANCH   9  10
ENDBRANCH   8   9
ENDBRANCH   5   8
ENDBRANCH   1   2
BRANCH   1  19
ATOM     17  C   UNL     1      49.111   6.789  15.890  0.00  0.00    +0.000 C 
ATOM     18  O   UNL     1      50.262   6.563  15.533  0.00  0.00    +0.000 OA
ATOM     19  N   UNL     1      48.064   6.837  14.994  0.00  0.00    +0.000 N 
ATOM     20  H   UNL     1      47.116   6.945  15.321  0.00  0.00    +0.000 HD
BRANCH  17  24
ATOM     21  C   UNL     1      47.822   9.189  20.070  0.00  0.00    +0.000 C 
ATOM     22  N   UNL     1      48.183   8.132  19.155  0.00  0.00    +0.000 N 
ATOM     23  C   UNL     1      48.404   8.274  17.811  0.00  0.00    +0.000 A 
ATOM     24  C   UNL     1      48.751   7.033  17.284  0.00  0.00    +0.000 A 
ATOM     25  C   UNL     1      48.724   6.099  18.384  0.00  0.00    +0.000 A 
ATOM     26  C   UNL     1      48.925   4.743  18.630  0.00  0.00    +0.000 A 
ATOM     27 CL   UNL     1      49.284   3.657  17.381  0.00  0.00    +0.000 Cl
ATOM     28  N   UNL     1      48.782   4.204  19.854  0.00  0.00    +0.000 NA
ATOM     29  C   UNL     1      48.439   5.035  20.845  0.00  0.00    +0.000 A 
ATOM     30  N   UNL     1      48.211   6.352  20.767  0.00  0.00    +0.000 NA
ATOM     31  C   UNL     1      48.365   6.825  19.517  0.00  0.00    +0.000 A 
ENDBRANCH  17  24
ENDBRANCH   1  19
TORSDOF 7
ENDMDL
MODEL 4
REMARK VINA RESULT:    -6.953      1.932      2.363
REMARK INTER + INTRA:         -11.119
REMARK INTER:                 -10.071
REMARK INTRA:                  -1.048
REMARK UNBOUND:                -1.322
REMARK  Name = 
REMARK  8 active torsions:
REMARK  status: ('A' for Active; 'I' for Inactive)
REMARK    1  A    between atoms: C_1  and  N_2
REMARK    2  A    between atoms: C_4  and  C_5
REMARK    3  A    between atoms: N_7  and  C_8
REMARK    4  A    between atoms: C_8  and  C_9
REMARK    5  A    between atoms: C_12  and  C_13
REMARK    6  A    between atoms: C_13  and  O_14
REMARK    7  A    between atoms: O_14  and  C_15
REMARK    8  A    between atoms: C_15  and  C_16
REMARK                            x       y       z     vdW  Elec       q    Type
REMARK                         _______ _______ _______ _____ _____    ______ ____
ROOT
ATOM      1  C   UNL     1      46.906   8.271  13.302  0.00  0.00    +0.000 C 
ENDROOT
BRANCH   1   2
ATOM      2  C   UNL     1      46.056   7.154  12.760  0.00  0.00    +0.000 A 
ATOM      3  C   UNL     1      45.095   7.406  11.773  0.00  0.00    +0.000 A 
ATOM      4  C   UNL     1      44.320   6.364  11.255  0.00  0.00    +0.000 A 
ATOM      5  C   UNL     1      44.485   5.054  11.720  0.00  0.00    +0.000 A 
ATOM      6  C   UNL     1      45.438   4.806  12.716  0.00  0.00    +0.000 A 
ATOM      7  C   UNL     1      46.213   5.846  13.233  0.00  0.00    +0.000 A 
BRANCH   5   8
ATOM      8  C   UNL     1      43.640   3.929  11.183  0.00  0.00    +0.000 C 
BRANCH   8   9
ATOM      9  O   UNL     1      43.966   3.704   9.816  0.00  0.00    +0.000 OA
BRANCH   9  10
ATOM     10  C   UNL     1      44.571   2.424   9.639  0.00  0.00    +0.000 C 
BRANCH  10  11
ATOM     11  C   UNL     1      45.558   2.457   8.500  0.00  0.00    +0.000 A 
ATOM     12  C   UNL     1      45.784   3.628   7.762  0.00  0.00    +0.000 A 
ATOM     13  C   UNL     1      46.718   3.645   6.725  0.00  0.00    +0.000 A 
ATOM     14  C   UNL     1      47.448   2.496   6.425  0.00  0.00    +0.000 A 
ATOM     15  C   UNL     1      47.249   1.333   7.165  0.00  0.00    +0.000 A 
ATOM     16  C   UNL     1      46.315   1.314   8.201  0.00  0.00    +0.000 A 
ENDBRANCH  10  11
ENDBRANCH   9  10
ENDBRANCH   8   9
ENDBRANCH   5   8
ENDBRANCH   1   2
BRANCH   1  19
ATOM     17  C   UNL     1      48.602   8.145  15.053  0.00  0.00    +0.000 C 
ATOM     18  O   UNL     1      47.899   8.798  15.816  0.00  0.00    +0.000 OA
ATOM     19  N   UNL     1      48.180   7.796  13.788  0.00  0.00    +0.000 N 
ATOM     20  H   UNL     1      48.806   7.328  13.151  0.00  0.00    +0.000 HD
BRANCH  17  24
ATOM     21  C   UNL     1      53.573   7.750  15.228  0.00  0.00    +0.000 C 
ATOM     22  N   UNL     1      52.171   7.505  15.473  0.00  0.00    +0.000 N 
ATOM     23  C   UNL     1      51.129   8.237  14.973  0.00  0.00    +0.000 A 
ATOM     24  C   UNL     1      49.935   7.674  15.418  0.00  0.00    +0.000 A 
ATOM     25  C   UNL     1      50.298   6.543  16.238  0.00  0.00    +0.000 A 
ATOM     26  C   UNL     1      49.692   5.551  17.005  0.00  0.00    +0.000 A 
ATOM     27 CL   UNL     1      48.012   5.488  17.211  0.00  0.00    +0.000 Cl
ATOM     28  N   UNL     1      50.401   4.629  17.682  0.00  0.00    +0.000 NA
ATOM     29  C   UNL     1      51.734   4.699  17.582  0.00  0.00    +0.000 A 
ATOM     30  N   UNL     1      52.458   5.587  16.891  0.00  0.00    +0.000 NA
ATOM     31  C   UNL     1      51.689   6.482  16.244  0.00  0.00    +0.000 A 
ENDBRANCH  17  24
ENDBRANCH   1  19
TORSDOF 7
ENDMDL
MODEL 5
REMARK VINA RESULT:    -6.725      4.061      5.535
REMARK INTER + INTRA:         -10.799
REMARK INTER:                  -9.713
REMARK INTRA:                  -1.085
REMARK UNBOUND:                -1.322
REMARK  Name = 
REMARK  8 active torsions:
REMARK  status: ('A' for Active; 'I' for Inactive)
REMARK    1  A    between atoms: C_1  and  N_2
REMARK    2  A    between atoms: C_4  and  C_5
REMARK    3  A    between atoms: N_7  and  C_8
REMARK    4  A    between atoms: C_8  and  C_9
REMARK    5  A    between atoms: C_12  and  C_13
REMARK    6  A    between atoms: C_13  and  O_14
REMARK    7  A    between atoms: O_14  and  C_15
REMARK    8  A    between atoms: C_15  and  C_16
REMARK                            x       y       z     vdW  Elec       q    Type
REMARK                         _______ _______ _______ _____ _____    ______ ____
ROOT
ATOM      1  C   UNL     1      48.103   6.976  13.620  0.00  0.00    +0.000 C 
ENDROOT
BRANCH   1   2
ATOM      2  C   UNL     1      47.020   6.231  12.889  0.00  0.00    +0.000 A 
ATOM      3  C   UNL     1      46.618   4.959  13.318  0.00  0.00    +0.000 A 
ATOM      4  C   UNL     1      45.597   4.276  12.650  0.00  0.00    +0.000 A 
ATOM      5  C   UNL     1      44.966   4.846  11.538  0.00  0.00    +0.000 A 
ATOM      6  C   UNL     1      45.378   6.113  11.104  0.00  0.00    +0.000 A 
ATOM      7  C   UNL     1      46.397   6.796  11.770  0.00  0.00    +0.000 A 
BRANCH   5   8
ATOM      8  C   UNL     1      43.879   4.108  10.801  0.00  0.00    +0.000 C 
BRANCH   8   9
ATOM      9  O   UNL     1      44.299   3.857   9.465  0.00  0.00    +0.000 OA
BRANCH   9  10
ATOM     10  C   UNL     1      44.790   2.525   9.324  0.00  0.00    +0.000 C 
BRANCH  10  11
ATOM     11  C   UNL     1      45.761   2.436   8.176  0.00  0.00    +0.000 A 
ATOM     12  C   UNL     1      45.975   3.521   7.313  0.00  0.00    +0.000 A 
ATOM     13  C   UNL     1      46.896   3.427   6.269  0.00  0.00    +0.000 A 
ATOM     14  C   UNL     1      47.623   2.254   6.083  0.00  0.00    +0.000 A 
ATOM     15  C   UNL     1      47.436   1.176   6.946  0.00  0.00    +0.000 A 
ATOM     16  C   UNL     1      46.515   1.268   7.990  0.00  0.00    +0.000 A 
ENDBRANCH  10  11
ENDBRANCH   9  10
ENDBRANCH   8   9
ENDBRANCH   5   8
ENDBRANCH   1   2
BRANCH   1  19
ATOM     17  C   UNL     1      49.776   8.054  12.207  0.00  0.00    +0.000 C 
ATOM     18  O   UNL     1      49.145   9.104  12.217  0.00  0.00    +0.000 OA
ATOM     19  N   UNL     1      49.358   6.943  12.909  0.00  0.00    +0.000 N 
ATOM     20  H   UNL     1      49.851   6.067  12.820  0.00  0.00    +0.000 HD
BRANCH  17  24
ATOM     21  C   UNL     1      52.997   6.657   8.660  0.00  0.00    +0.000 C 
ATOM     22  N   UNL     1      52.456   7.241   9.865  0.00  0.00    +0.000 N 
ATOM     23  C   UNL     1      51.137   7.254  10.230  0.00  0.00    +0.000 A 
ATOM     24  C   UNL     1      51.023   7.889  11.464  0.00  0.00    +0.000 A 
ATOM     25  C   UNL     1      52.358   8.283  11.846  0.00  0.00    +0.000 A 
ATOM     26  C   UNL     1      53.013   8.945  12.882  0.00  0.00    +0.000 A 
ATOM     27 CL   UNL     1      52.165   9.617  14.185  0.00  0.00    +0.000 Cl
ATOM     28  N   UNL     1      54.343   9.150  12.878  0.00  0.00    +0.000 NA
ATOM     29  C   UNL     1      55.025   8.680  11.827  0.00  0.00    +0.000 A 
ATOM     30  N   UNL     1      54.541   8.030  10.762  0.00  0.00    +0.000 NA
ATOM     31  C   UNL     1      53.207   7.863  10.826  0.00  0.00    +0.000 A 
ENDBRANCH  17  24
ENDBRANCH   1  19
TORSDOF 7
ENDMDL
MODEL 6
REMARK VINA RESULT:    -6.594      3.862      9.328
REMARK INTER + INTRA:         -10.613
REMARK INTER:                  -8.595
REMARK INTRA:                  -2.019
REMARK UNBOUND:                -1.322
REMARK  Name = 
REMARK  8 active torsions:
REMARK  status: ('A' for Active; 'I' for Inactive)
REMARK    1  A    between atoms: C_1  and  N_2
REMARK    2  A    between atoms: C_4  and  C_5
REMARK    3  A    between atoms: N_7  and  C_8
REMARK    4  A    between atoms: C_8  and  C_9
REMARK    5  A    between atoms: C_12  and  C_13
REMARK    6  A    between atoms: C_13  and  O_14
REMARK    7  A    between atoms: O_14  and  C_15
REMARK    8  A    between atoms: C_15  and  C_16
REMARK                            x       y       z     vdW  Elec       q    Type
REMARK                         _______ _______ _______ _____ _____    ______ ____
ROOT
ATOM      1  C   UNL     1      47.626   3.526  16.449  0.00  0.00    +0.000 C 
ENDROOT
BRANCH   1   2
ATOM      2  C   UNL     1      47.971   4.286  17.700  0.00  0.00    +0.000 A 
ATOM      3  C   UNL     1      47.060   5.195  18.254  0.00  0.00    +0.000 A 
ATOM      4  C   UNL     1      47.372   5.885  19.429  0.00  0.00    +0.000 A 
ATOM      5  C   UNL     1      48.602   5.687  20.066  0.00  0.00    +0.000 A 
ATOM      6  C   UNL     1      49.517   4.787  19.504  0.00  0.00    +0.000 A 
ATOM      7  C   UNL     1      49.206   4.096  18.331  0.00  0.00    +0.000 A 
BRANCH   5   8
ATOM      8  C   UNL     1      48.955   6.442  21.321  0.00  0.00    +0.000 C 
BRANCH   8   9
ATOM      9  O   UNL     1      50.158   7.174  21.111  0.00  0.00    +0.000 OA
BRANCH   9  10
ATOM     10  C   UNL     1      49.885   8.560  20.910  0.00  0.00    +0.000 C 
BRANCH  10  11
ATOM     11  C   UNL     1      49.398   8.806  19.505  0.00  0.00    +0.000 A 
ATOM     12  C   UNL     1      50.113   8.343  18.391  0.00  0.00    +0.000 A 
ATOM     13  C   UNL     1      49.634   8.561  17.099  0.00  0.00    +0.000 A 
ATOM     14  C   UNL     1      48.429   9.233  16.906  0.00  0.00    +0.000 A 
ATOM     15  C   UNL     1      47.697   9.678  18.004  0.00  0.00    +0.000 A 
ATOM     16  C   UNL     1      48.175   9.462  19.297  0.00  0.00    +0.000 A 
ENDBRANCH  10  11
ENDBRANCH   9  10
ENDBRANCH   8   9
ENDBRANCH   5   8
ENDBRANCH   1   2
BRANCH   1  19
ATOM     17  C   UNL     1      46.795   4.177  14.248  0.00  0.00    +0.000 C 
ATOM     18  O   UNL     1      47.632   3.473  13.695  0.00  0.00    +0.000 OA
ATOM     19  N   UNL     1      46.686   4.243  15.621  0.00  0.00    +0.000 N 
ATOM     20  H   UNL     1      46.044   4.890  16.052  0.00  0.00    +0.000 HD
BRANCH  17  24
ATOM     21  C   UNL     1      42.679   5.542  11.778  0.00  0.00    +0.000 C 
ATOM     22  N   UNL     1      43.987   5.587  12.389  0.00  0.00    +0.000 N 
ATOM     23  C   UNL     1      44.575   4.577  13.102  0.00  0.00    +0.000 A 
ATOM     24  C   UNL     1      45.840   4.997  13.506  0.00  0.00    +0.000 A 
ATOM     25  C   UNL     1      46.004   6.341  13.007  0.00  0.00    +0.000 A 
ATOM     26  C   UNL     1      46.941   7.371  13.022  0.00  0.00    +0.000 A 
ATOM     27 CL   UNL     1      48.403   7.232  13.866  0.00  0.00    +0.000 Cl
ATOM     28  N   UNL     1      46.717   8.558  12.428  0.00  0.00    +0.000 NA
ATOM     29  C   UNL     1      45.542   8.711  11.806  0.00  0.00    +0.000 A 
ATOM     30  N   UNL     1      44.546   7.821  11.708  0.00  0.00    +0.000 NA
ATOM     31  C   UNL     1      44.832   6.662  12.327  0.00  0.00    +0.000 A 
ENDBRANCH  17  24
ENDBRANCH   1  19
TORSDOF 7
ENDMDL
MODEL 7
REMARK VINA RESULT:    -6.453      3.763      8.215
REMARK INTER + INTRA:         -10.416
REMARK INTER:                  -8.632
REMARK INTRA:                  -1.784
REMARK UNBOUND:                -1.322
REMARK  Name = 
REMARK  8 active torsions:
REMARK  status: ('A' for Active; 'I' for Inactive)
REMARK    1  A    between atoms: C_1  and  N_2
REMARK    2  A    between atoms: C_4  and  C_5
REMARK    3  A    between atoms: N_7  and  C_8
REMARK    4  A    between atoms: C_8  and  C_9
REMARK    5  A    between atoms: C_12  and  C_13
REMARK    6  A    between atoms: C_13  and  O_14
REMARK    7  A    between atoms: O_14  and  C_15
REMARK    8  A    between atoms: C_15  and  C_16
REMARK                            x       y       z     vdW  Elec       q    Type
REMARK                         _______ _______ _______ _____ _____    ______ ____
ROOT
ATOM      1  C   UNL     1      49.784   7.676  14.094  0.00  0.00    +0.000 C 
ENDROOT
BRANCH   1   2
ATOM      2  C   UNL     1      49.798   7.450  15.581  0.00  0.00    +0.000 A 
ATOM      3  C   UNL     1      50.809   6.684  16.174  0.00  0.00    +0.000 A 
ATOM      4  C   UNL     1      50.834   6.492  17.558  0.00  0.00    +0.000 A 
ATOM      5  C   UNL     1      49.844   7.054  18.373  0.00  0.00    +0.000 A 
ATOM      6  C   UNL     1      48.827   7.810  17.777  0.00  0.00    +0.000 A 
ATOM      7  C   UNL     1      48.802   8.003  16.394  0.00  0.00    +0.000 A 
BRANCH   5   8
ATOM      8  C   UNL     1      49.852   6.834  19.864  0.00  0.00    +0.000 C 
BRANCH   8   9
ATOM      9  O   UNL     1      49.926   5.440  20.137  0.00  0.00    +0.000 OA
BRANCH   9  10
ATOM     10  C   UNL     1      48.632   4.840  20.091  0.00  0.00    +0.000 C 
BRANCH  10  11
ATOM     11  C   UNL     1      48.397   4.186  18.754  0.00  0.00    +0.000 A 
ATOM     12  C   UNL     1      47.309   4.545  17.945  0.00  0.00    +0.000 A 
ATOM     13  C   UNL     1      47.120   3.945  16.700  0.00  0.00    +0.000 A 
ATOM     14  C   UNL     1      48.025   2.990  16.243  0.00  0.00    +0.000 A 
ATOM     15  C   UNL     1      49.123   2.640  17.026  0.00  0.00    +0.000 A 
ATOM     16  C   UNL     1      49.312   3.239  18.272  0.00  0.00    +0.000 A 
ENDBRANCH  10  11
ENDBRANCH   9  10
ENDBRANCH   8   9
ENDBRANCH   5   8
ENDBRANCH   1   2
BRANCH   1  19
ATOM     17  C   UNL     1      47.851   6.683  12.982  0.00  0.00    +0.000 C 
ATOM     18  O   UNL     1      48.405   5.591  12.937  0.00  0.00    +0.000 OA
ATOM     19  N   UNL     1      48.441   7.780  13.574  0.00  0.00    +0.000 N 
ATOM     20  H   UNL     1      48.000   8.686  13.527  0.00  0.00    +0.000 HD
BRANCH  17  24
ATOM     21  C   UNL     1      43.919   9.035  11.004  0.00  0.00    +0.000 C 
ATOM     22  N   UNL     1      44.760   7.995  11.547  0.00  0.00    +0.000 N 
ATOM     23  C   UNL     1      46.065   8.139  11.936  0.00  0.00    +0.000 A 
ATOM     24  C   UNL     1      46.521   6.917  12.424  0.00  0.00    +0.000 A 
ATOM     25  C   UNL     1      45.419   5.992  12.307  0.00  0.00    +0.000 A 
ATOM     26  C   UNL     1      45.126   4.654  12.555  0.00  0.00    +0.000 A 
ATOM     27 CL   UNL     1      46.298   3.581  13.141  0.00  0.00    +0.000 Cl
ATOM     28  N   UNL     1      43.923   4.117  12.282  0.00  0.00    +0.000 NA
ATOM     29  C   UNL     1      43.000   4.934  11.760  0.00  0.00    +0.000 A 
ATOM     30  N   UNL     1      43.129   6.233  11.466  0.00  0.00    +0.000 NA
ATOM     31  C   UNL     1      44.356   6.704  11.757  0.00  0.00    +0.000 A 
ENDBRANCH  17  24
ENDBRANCH   1  19
TORSDOF 7
ENDMDL
MODEL 8
REMARK VINA RESULT:    -6.115      3.735      9.436
REMARK INTER + INTRA:          -9.939
REMARK INTER:                  -8.416
REMARK INTRA:                  -1.523
REMARK UNBOUND:                -1.322
REMARK  Name = 
REMARK  8 active torsions:
REMARK  status: ('A' for Active; 'I' for Inactive)
REMARK    1  A    between atoms: C_1  and  N_2
REMARK    2  A    between atoms: C_4  and  C_5
REMARK    3  A    between atoms: N_7  and  C_8
REMARK    4  A    between atoms: C_8  and  C_9
REMARK    5  A    between atoms: C_12  and  C_13
REMARK    6  A    between atoms: C_13  and  O_14
REMARK    7  A    between atoms: O_14  and  C_15
REMARK    8  A    between atoms: C_15  and  C_16
REMARK                            x       y       z     vdW  Elec       q    Type
REMARK                         _______ _______ _______ _____ _____    ______ ____
ROOT
ATOM      1  C   UNL     1      47.697   3.455  16.305  0.00  0.00    +0.000 C 
ENDROOT
BRANCH   1   2
ATOM      2  C   UNL     1      48.462   4.019  17.470  0.00  0.00    +0.000 A 
ATOM      3  C   UNL     1      47.786   4.552  18.575  0.00  0.00    +0.000 A 
ATOM      4  C   UNL     1      48.498   5.057  19.667  0.00  0.00    +0.000 A 
ATOM      5  C   UNL     1      49.898   5.048  19.670  0.00  0.00    +0.000 A 
ATOM      6  C   UNL     1      50.572   4.526  18.559  0.00  0.00    +0.000 A 
ATOM      7  C   UNL     1      49.862   4.021  17.469  0.00  0.00    +0.000 A 
BRANCH   5   8
ATOM      8  C   UNL     1      50.673   5.610  20.833  0.00  0.00    +0.000 C 
BRANCH   8   9
ATOM      9  O   UNL     1      51.349   6.793  20.425  0.00  0.00    +0.000 OA
BRANCH   9  10
ATOM     10  C   UNL     1      50.650   7.958  20.862  0.00  0.00    +0.000 C 
BRANCH  10  11
ATOM     11  C   UNL     1      49.628   8.379  19.837  0.00  0.00    +0.000 A 
ATOM     12  C   UNL     1      48.319   8.719  20.207  0.00  0.00    +0.000 A 
ATOM     13  C   UNL     1      47.392   9.128  19.247  0.00  0.00    +0.000 A 
ATOM     14  C   UNL     1      47.768   9.214  17.909  0.00  0.00    +0.000 A 
ATOM     15  C   UNL     1      49.071   8.900  17.530  0.00  0.00    +0.000 A 
ATOM     16  C   UNL     1      49.998   8.490  18.489  0.00  0.00    +0.000 A 
ENDBRANCH  10  11
ENDBRANCH   9  10
ENDBRANCH   8   9
ENDBRANCH   5   8
ENDBRANCH   1   2
BRANCH   1  19
ATOM     17  C   UNL     1      46.807   4.220  14.165  0.00  0.00    +0.000 C 
ATOM     18  O   UNL     1      46.931   3.099  13.683  0.00  0.00    +0.000 OA
ATOM     19  N   UNL     1      47.126   4.491  15.478  0.00  0.00    +0.000 N 
ATOM     20  H   UNL     1      47.091   5.437  15.828  0.00  0.00    +0.000 HD
BRANCH  17  24
ATOM     21  C   UNL     1      46.476   8.787  12.183  0.00  0.00    +0.000 C 
ATOM     22  N   UNL     1      46.169   7.419  12.526  0.00  0.00    +0.000 N 
ATOM     23  C   UNL     1      46.956   6.581  13.268  0.00  0.00    +0.000 A 
ATOM     24  C   UNL     1      46.305   5.357  13.397  0.00  0.00    +0.000 A 
ATOM     25  C   UNL     1      45.059   5.479  12.679  0.00  0.00    +0.000 A 
ATOM     26  C   UNL     1      43.942   4.713  12.355  0.00  0.00    +0.000 A 
ATOM     27 CL   UNL     1      43.815   3.087  12.813  0.00  0.00    +0.000 Cl
ATOM     28  N   UNL     1      42.932   5.192  11.606  0.00  0.00    +0.000 NA
ATOM     29  C   UNL     1      43.040   6.457  11.183  0.00  0.00    +0.000 A 
ATOM     30  N   UNL     1      44.045   7.312  11.408  0.00  0.00    +0.000 NA
ATOM     31  C   UNL     1      45.022   6.769  12.156  0.00  0.00    +0.000 A 
ENDBRANCH  17  24
ENDBRANCH   1  19
TORSDOF 7
ENDMDL
MODEL 9
REMARK VINA RESULT:    -5.837      3.653      9.923
REMARK INTER + INTRA:          -9.547
REMARK INTER:                  -7.880
REMARK INTRA:                  -1.667
REMARK UNBOUND:                -1.322
REMARK  Name = 
REMARK  8 active torsions:
REMARK  status: ('A' for Active; 'I' for Inactive)
REMARK    1  A    between atoms: C_1  and  N_2
REMARK    2  A    between atoms: C_4  and  C_5
REMARK    3  A    between atoms: N_7  and  C_8
REMARK    4  A    between atoms: C_8  and  C_9
REMARK    5  A    between atoms: C_12  and  C_13
REMARK    6  A    between atoms: C_13  and  O_14
REMARK    7  A    between atoms: O_14  and  C_15
REMARK    8  A    between atoms: C_15  and  C_16
REMARK                            x       y       z     vdW  Elec       q    Type
REMARK                         _______ _______ _______ _____ _____    ______ ____
ROOT
ATOM      1  C   UNL     1      48.068   4.647  16.470  0.00  0.00    +0.000 C 
ENDROOT
BRANCH   1   2
ATOM      2  C   UNL     1      48.109   5.527  17.689  0.00  0.00    +0.000 A 
ATOM      3  C   UNL     1      48.514   6.864  17.589  0.00  0.00    +0.000 A 
ATOM      4  C   UNL     1      48.531   7.686  18.719  0.00  0.00    +0.000 A 
ATOM      5  C   UNL     1      48.153   7.186  19.971  0.00  0.00    +0.000 A 
ATOM      6  C   UNL     1      47.759   5.845  20.071  0.00  0.00    +0.000 A 
ATOM      7  C   UNL     1      47.741   5.023  18.943  0.00  0.00    +0.000 A 
BRANCH   5   8
ATOM      8  C   UNL     1      48.188   8.060  21.197  0.00  0.00    +0.000 C 
BRANCH   8   9
ATOM      9  O   UNL     1      48.957   7.422  22.211  0.00  0.00    +0.000 OA
BRANCH   9  10
ATOM     10  C   UNL     1      50.320   7.840  22.160  0.00  0.00    +0.000 C 
BRANCH  10  11
ATOM     11  C   UNL     1      51.119   6.934  21.258  0.00  0.00    +0.000 A 
ATOM     12  C   UNL     1      51.887   7.445  20.202  0.00  0.00    +0.000 A 
ATOM     13  C   UNL     1      52.638   6.592  19.392  0.00  0.00    +0.000 A 
ATOM     14  C   UNL     1      52.640   5.221  19.637  0.00  0.00    +0.000 A 
ATOM     15  C   UNL     1      51.899   4.702  20.696  0.00  0.00    +0.000 A 
ATOM     16  C   UNL     1      51.147   5.553  21.507  0.00  0.00    +0.000 A 
ENDBRANCH  10  11
ENDBRANCH   9  10
ENDBRANCH   8   9
ENDBRANCH   5   8
ENDBRANCH   1   2
BRANCH   1  19
ATOM     17  C   UNL     1      46.930   4.428  14.321  0.00  0.00    +0.000 C 
ATOM     18  O   UNL     1      47.681   3.519  13.988  0.00  0.00    +0.000 OA
ATOM     19  N   UNL     1      47.018   5.033  15.558  0.00  0.00    +0.000 N 
ATOM     20  H   UNL     1      46.443   5.831  15.779  0.00  0.00    +0.000 HD
BRANCH  17  24
ATOM     21  C   UNL     1      42.865   4.586  11.432  0.00  0.00    +0.000 C 
ATOM     22  N   UNL     1      44.054   4.990  12.145  0.00  0.00    +0.000 N 
ATOM     23  C   UNL     1      44.803   4.198  12.972  0.00  0.00    +0.000 A 
ATOM     24  C   UNL     1      45.878   4.944  13.449  0.00  0.00    +0.000 A 
ATOM     25  C   UNL     1      45.749   6.261  12.874  0.00  0.00    +0.000 A 
ATOM     26  C   UNL     1      46.394   7.495  12.895  0.00  0.00    +0.000 A 
ATOM     27 CL   UNL     1      47.755   7.771  13.865  0.00  0.00    +0.000 Cl
ATOM     28  N   UNL     1      45.940   8.557  12.205  0.00  0.00    +0.000 NA
ATOM     29  C   UNL     1      44.830   8.377  11.479  0.00  0.00    +0.000 A 
ATOM     30  N   UNL     1      44.102   7.261  11.360  0.00  0.00    +0.000 NA
ATOM     31  C   UNL     1      44.606   6.241  12.079  0.00  0.00    +0.000 A 
ENDBRANCH  17  24
ENDBRANCH   1  19
TORSDOF 7
ENDMDL
