MODEL 1
REMARK VINA RESULT:    -8.505      0.000      0.000
REMARK INTER + INTRA:         -13.182
REMARK INTER:                 -11.986
REMARK INTRA:                  -1.196
REMARK UNBOUND:                -1.196
REMARK  Name = 
REMARK  7 active torsions:
REMARK  status: ('A' for Active; 'I' for Inactive)
REMARK    1  A    between atoms: C_2  and  C_3
REMARK    2  A    between atoms: C_3  and  N_4
REMARK    3  A    between atoms: C_3  and  C_17
REMARK    4  A    between atoms: C_5  and  C_7
REMARK    5  A    between atoms: C_20  and  C_21
REMARK    6  A    between atoms: C_21  and  N_22
REMARK    7  A    between atoms: C_23  and  C_25
REMARK                            x       y       z     vdW  Elec       q    Type
REMARK                         _______ _______ _______ _____ _____    ______ ____
ROOT
ATOM      1  C   UNL     1      47.501   4.759  14.985  0.00  0.00    +0.000 C 
ENDROOT
BRANCH   1   2
ATOM      2  C   UNL     1      46.536   4.651  13.812  0.00  0.00    +0.000 A 
ATOM      3  C   UNL     1      46.232   3.388  13.273  0.00  0.00    +0.000 A 
ATOM      4  C   UNL     1      45.414   3.268  12.141  0.00  0.00    +0.000 A 
ATOM      5  C   UNL     1      44.905   4.410  11.512  0.00  0.00    +0.000 A 
ATOM      6  C   UNL     1      45.175   5.667  12.066  0.00  0.00    +0.000 A 
ATOM      7  C   UNL     1      45.989   5.786  13.194  0.00  0.00    +0.000 A 
BRANCH   5   8
ATOM      8  C   UNL     1      44.081   4.306  10.256  0.00  0.00    +0.000 C 
BRANCH   8   9
ATOM      9  N   UNL     1      44.690   3.434   9.287  0.00  0.00    +0.000 N 
ATOM     10  C   UNL     1      45.624   3.934   8.406  0.00  0.00    +0.000 C 
ATOM     11  O   UNL     1      45.982   5.105   8.394  0.00  0.00    +0.000 OA
ATOM     12  H   UNL     1      44.591   2.436   9.407  0.00  0.00    +0.000 HD
BRANCH  10  13
ATOM     13  C   UNL     1      46.221   2.956   7.456  0.00  0.00    +0.000 A 
ATOM     14  C   UNL     1      46.540   3.316   6.140  0.00  0.00    +0.000 A 
ATOM     15  C   UNL     1      47.112   2.376   5.279  0.00  0.00    +0.000 A 
ATOM     16  C   UNL     1      47.371   1.083   5.733  0.00  0.00    +0.000 A 
ATOM     17  C   UNL     1      47.070   0.726   7.044  0.00  0.00    +0.000 A 
ATOM     18  C   UNL     1      46.498   1.662   7.910  0.00  0.00    +0.000 A 
ENDBRANCH  10  13
ENDBRANCH   8   9
ENDBRANCH   5   8
ENDBRANCH   1   2
BRANCH   1  19
ATOM     19  N   UNL     1      47.741   6.170  15.261  0.00  0.00    +0.000 N 
ATOM     20  C   UNL     1      48.888   6.555  15.911  0.00  0.00    +0.000 C 
ATOM     21  O   UNL     1      49.763   5.754  16.216  0.00  0.00    +0.000 OA
ATOM     22  H   UNL     1      46.959   6.808  15.215  0.00  0.00    +0.000 HD
BRANCH  20  23
ATOM     23  C   UNL     1      49.026   7.989  16.147  0.00  0.00    +0.000 A 
ATOM     24  C   UNL     1      48.929   8.586  17.394  0.00  0.00    +0.000 A 
ATOM     25  S   UNL     1      48.909  10.297  17.315  0.00  0.00    +0.000 S 
ATOM     26  C   UNL     1      49.038  10.277  15.616  0.00  0.00    +0.000 A 
ATOM     27  N   UNL     1      49.007  11.425  14.886  0.00  0.00    +0.000 NA
ATOM     28  C   UNL     1      49.096  11.240  13.609  0.00  0.00    +0.000 A 
ATOM     29  N   UNL     1      49.249  10.020  12.999  0.00  0.00    +0.000 N 
ATOM     30  C   UNL     1      49.398   8.847  13.704  0.00  0.00    +0.000 A 
ATOM     31  O   UNL     1      49.767   7.817  13.155  0.00  0.00    +0.000 OA
ATOM     32  C   UNL     1      49.172   8.993  15.129  0.00  0.00    +0.000 A 
ATOM     33  H   UNL     1      49.401   9.953  12.004  0.00  0.00    +0.000 HD
ENDBRANCH  20  23
ENDBRANCH   1  19
BRANCH   1  35
ATOM     34  N   UNL     1      46.671   3.445  17.125  0.00  0.00    +0.000 NA
ATOM     35  C   UNL     1      47.030   4.050  16.202  0.00  0.00    +0.000 C 
ENDBRANCH   1  35
TORSDOF 7
ENDMDL
MODEL 2
REMARK VINA RESULT:    -8.458      1.470      2.375
REMARK INTER + INTRA:         -13.115
REMARK INTER:                 -11.782
REMARK INTRA:                  -1.333
REMARK UNBOUND:                -1.196
REMARK  Name = 
REMARK  7 active torsions:
REMARK  status: ('A' for Active; 'I' for Inactive)
REMARK    1  A    between atoms: C_2  and  C_3
REMARK    2  A    between atoms: C_3  and  N_4
REMARK    3  A    between atoms: C_3  and  C_17
REMARK    4  A    between atoms: C_5  and  C_7
REMARK    5  A    between atoms: C_20  and  C_21
REMARK    6  A    between atoms: C_21  and  N_22
REMARK    7  A    between atoms: C_23  and  C_25
REMARK                            x       y       z     vdW  Elec       q    Type
REMARK                         _______ _______ _______ _____ _____    ______ ____
ROOT
ATOM      1  C   UNL     1      47.568   4.880  14.975  0.00  0.00    +0.000 C 
ENDROOT
BRANCH   1   2
ATOM      2  C   UNL     1      46.606   4.778  13.799  0.00  0.00    +0.000 A 
ATOM      3  C   UNL     1      46.244   3.513  13.302  0.00  0.00    +0.000 A 
ATOM      4  C   UNL     1      45.427   3.394  12.169  0.00  0.00    +0.000 A 
ATOM      5  C   UNL     1      44.978   4.536  11.497  0.00  0.00    +0.000 A 
ATOM      6  C   UNL     1      45.305   5.797  12.010  0.00  0.00    +0.000 A 
ATOM      7  C   UNL     1      46.118   5.916  13.139  0.00  0.00    +0.000 A 
BRANCH   5   8
ATOM      8  C   UNL     1      44.156   4.430  10.240  0.00  0.00    +0.000 C 
BRANCH   8   9
ATOM      9  N   UNL     1      44.750   3.529   9.288  0.00  0.00    +0.000 N 
ATOM     10  C   UNL     1      45.684   3.998   8.389  0.00  0.00    +0.000 C 
ATOM     11  O   UNL     1      46.053   5.165   8.347  0.00  0.00    +0.000 OA
ATOM     12  H   UNL     1      44.643   2.535   9.432  0.00  0.00    +0.000 HD
BRANCH  10  13
ATOM     13  C   UNL     1      46.265   2.992   7.460  0.00  0.00    +0.000 A 
ATOM     14  C   UNL     1      46.598   3.323   6.139  0.00  0.00    +0.000 A 
ATOM     15  C   UNL     1      47.155   2.357   5.297  0.00  0.00    +0.000 A 
ATOM     16  C   UNL     1      47.384   1.066   5.774  0.00  0.00    +0.000 A 
ATOM     17  C   UNL     1      47.069   0.738   7.089  0.00  0.00    +0.000 A 
ATOM     18  C   UNL     1      46.512   1.700   7.937  0.00  0.00    +0.000 A 
ENDBRANCH  10  13
ENDBRANCH   8   9
ENDBRANCH   5   8
ENDBRANCH   1   2
BRANCH   1  19
ATOM     19  N   UNL     1      47.680   6.280  15.365  0.00  0.00    +0.000 N 
ATOM     20  C   UNL     1      48.904   6.801  15.704  0.00  0.00    +0.000 C 
ATOM     21  O   UNL     1      49.935   6.143  15.630  0.00  0.00    +0.000 OA
ATOM     22  H   UNL     1      46.840   6.771  15.635  0.00  0.00    +0.000 HD
BRANCH  20  23
ATOM     23  C   UNL     1      48.904   8.210  16.088  0.00  0.00    +0.000 A 
ATOM     24  C   UNL     1      49.255   9.248  15.240  0.00  0.00    +0.000 A 
ATOM     25  S   UNL     1      49.374  10.755  16.044  0.00  0.00    +0.000 S 
ATOM     26  C   UNL     1      48.952  10.056  17.539  0.00  0.00    +0.000 A 
ATOM     27  N   UNL     1      48.933  10.786  18.687  0.00  0.00    +0.000 NA
ATOM     28  C   UNL     1      48.612  10.107  19.739  0.00  0.00    +0.000 A 
ATOM     29  N   UNL     1      48.275   8.776  19.744  0.00  0.00    +0.000 N 
ATOM     30  C   UNL     1      48.173   8.028  18.593  0.00  0.00    +0.000 A 
ATOM     31  O   UNL     1      47.647   6.922  18.597  0.00  0.00    +0.000 OA
ATOM     32  C   UNL     1      48.651   8.716  17.409  0.00  0.00    +0.000 A 
ATOM     33  H   UNL     1      47.949   8.326  20.587  0.00  0.00    +0.000 HD
ENDBRANCH  20  23
ENDBRANCH   1  19
BRANCH   1  35
ATOM     34  N   UNL     1      46.832   3.412  17.048  0.00  0.00    +0.000 NA
ATOM     35  C   UNL     1      47.177   4.034  16.131  0.00  0.00    +0.000 C 
ENDBRANCH   1  35
TORSDOF 7
ENDMDL
MODEL 3
REMARK VINA RESULT:    -8.179      2.094      4.203
REMARK INTER + INTRA:         -12.723
REMARK INTER:                 -11.393
REMARK INTRA:                  -1.330
REMARK UNBOUND:                -1.196
REMARK  Name = 
REMARK  7 active torsions:
REMARK  status: ('A' for Active; 'I' for Inactive)
REMARK    1  A    between atoms: C_2  and  C_3
REMARK    2  A    between atoms: C_3  and  N_4
REMARK    3  A    between atoms: C_3  and  C_17
REMARK    4  A    between atoms: C_5  and  C_7
REMARK    5  A    between atoms: C_20  and  C_21
REMARK    6  A    between atoms: C_21  and  N_22
REMARK    7  A    between atoms: C_23  and  C_25
REMARK                            x       y       z     vdW  Elec       q    Type
REMARK                         _______ _______ _______ _____ _____    ______ ____
ROOT
ATOM      1  C   UNL     1      47.671   7.496  13.767  0.00  0.00    +0.000 C 
ENDROOT
BRANCH   1   2
ATOM      2  C   UNL     1      46.736   6.478  13.127  0.00  0.00    +0.000 A 
ATOM      3  C   UNL     1      46.723   5.151  13.595  0.00  0.00    +0.000 A 
ATOM      4  C   UNL     1      45.935   4.177  12.969  0.00  0.00    +0.000 A 
ATOM      5  C   UNL     1      45.164   4.504  11.847  0.00  0.00    +0.000 A 
ATOM      6  C   UNL     1      45.145   5.831  11.401  0.00  0.00    +0.000 A 
ATOM      7  C   UNL     1      45.930   6.802  12.026  0.00  0.00    +0.000 A 
BRANCH   5   8
ATOM      8  C   UNL     1      44.363   3.457  11.119  0.00  0.00    +0.000 C 
BRANCH   8   9
ATOM      9  N   UNL     1      45.138   2.807  10.096  0.00  0.00    +0.000 N 
ATOM     10  C   UNL     1      45.083   3.267   8.798  0.00  0.00    +0.000 C 
ATOM     11  O   UNL     1      44.399   4.221   8.447  0.00  0.00    +0.000 OA
ATOM     12  H   UNL     1      45.871   2.173  10.376  0.00  0.00    +0.000 HD
BRANCH  10  13
ATOM     13  C   UNL     1      45.937   2.552   7.811  0.00  0.00    +0.000 A 
ATOM     14  C   UNL     1      46.358   1.233   8.027  0.00  0.00    +0.000 A 
ATOM     15  C   UNL     1      47.148   0.587   7.073  0.00  0.00    +0.000 A 
ATOM     16  C   UNL     1      47.512   1.254   5.903  0.00  0.00    +0.000 A 
ATOM     17  C   UNL     1      47.083   2.559   5.677  0.00  0.00    +0.000 A 
ATOM     18  C   UNL     1      46.292   3.210   6.628  0.00  0.00    +0.000 A 
ENDBRANCH  10  13
ENDBRANCH   8   9
ENDBRANCH   5   8
ENDBRANCH   1   2
BRANCH   1  19
ATOM     19  N   UNL     1      48.671   6.781  14.550  0.00  0.00    +0.000 N 
ATOM     20  C   UNL     1      49.041   7.255  15.785  0.00  0.00    +0.000 C 
ATOM     21  O   UNL     1      48.510   8.235  16.292  0.00  0.00    +0.000 OA
ATOM     22  H   UNL     1      49.263   6.113  14.078  0.00  0.00    +0.000 HD
BRANCH  20  23
ATOM     23  C   UNL     1      50.056   6.470  16.482  0.00  0.00    +0.000 A 
ATOM     24  C   UNL     1      51.357   6.896  16.698  0.00  0.00    +0.000 A 
ATOM     25  S   UNL     1      52.363   5.668  17.338  0.00  0.00    +0.000 S 
ATOM     26  C   UNL     1      51.084   4.544  17.347  0.00  0.00    +0.000 A 
ATOM     27  N   UNL     1      51.275   3.249  17.719  0.00  0.00    +0.000 NA
ATOM     28  C   UNL     1      50.210   2.518  17.654  0.00  0.00    +0.000 A 
ATOM     29  N   UNL     1      48.967   2.970  17.286  0.00  0.00    +0.000 N 
ATOM     30  C   UNL     1      48.706   4.293  17.010  0.00  0.00    +0.000 A 
ATOM     31  O   UNL     1      47.558   4.710  16.917  0.00  0.00    +0.000 OA
ATOM     32  C   UNL     1      49.896   5.120  16.944  0.00  0.00    +0.000 A 
ATOM     33  H   UNL     1      48.159   2.368  17.339  0.00  0.00    +0.000 HD
ENDBRANCH  20  23
ENDBRANCH   1  19
BRANCH   1  35
ATOM     34  N   UNL     1      48.771   9.152  12.023  0.00  0.00    +0.000 NA
ATOM     35  C   UNL     1      48.313   8.406  12.784  0.00  0.00    +0.000 C 
ENDBRANCH   1  35
TORSDOF 7
ENDMDL
MODEL 4
REMARK VINA RESULT:    -7.427      2.091      3.859
REMARK INTER + INTRA:         -11.663
REMARK INTER:                 -10.724
REMARK INTRA:                  -0.939
REMARK UNBOUND:                -1.196
REMARK  Name = 
REMARK  7 active torsions:
REMARK  status: ('A' for Active; 'I' for Inactive)
REMARK    1  A    between atoms: C_2  and  C_3
REMARK    2  A    between atoms: C_3  and  N_4
REMARK    3  A    between atoms: C_3  and  C_17
REMARK    4  A    between atoms: C_5  and  C_7
REMARK    5  A    between atoms: C_20  and  C_21
REMARK    6  A    between atoms: C_21  and  N_22
REMARK    7  A    between atoms: C_23  and  C_25
REMARK                            x       y       z     vdW  Elec       q    Type
REMARK                         _______ _______ _______ _____ _____    ______ ____
ROOT
ATOM      1  C   UNL     1      47.677   8.616  13.799  0.00  0.00    +0.000 C 
ENDROOT
BRANCH   1   2
ATOM      2  C   UNL     1      46.719   7.745  12.997  0.00  0.00    +0.000 A 
ATOM      3  C   UNL     1      46.993   6.374  12.833  0.00  0.00    +0.000 A 
ATOM      4  C   UNL     1      46.174   5.570  12.030  0.00  0.00    +0.000 A 
ATOM      5  C   UNL     1      45.079   6.124  11.356  0.00  0.00    +0.000 A 
ATOM      6  C   UNL     1      44.781   7.479  11.546  0.00  0.00    +0.000 A 
ATOM      7  C   UNL     1      45.598   8.280  12.347  0.00  0.00    +0.000 A 
BRANCH   5   8
ATOM      8  C   UNL     1      44.227   5.292  10.436  0.00  0.00    +0.000 C 
BRANCH   8   9
ATOM      9  N   UNL     1      45.011   4.652   9.413  0.00  0.00    +0.000 N 
ATOM     10  C   UNL     1      44.967   3.281   9.271  0.00  0.00    +0.000 C 
ATOM     11  O   UNL     1      44.282   2.551   9.978  0.00  0.00    +0.000 OA
ATOM     12  H   UNL     1      45.408   5.223   8.681  0.00  0.00    +0.000 HD
BRANCH  10  13
ATOM     13  C   UNL     1      45.789   2.707   8.172  0.00  0.00    +0.000 A 
ATOM     14  C   UNL     1      46.251   1.385   8.218  0.00  0.00    +0.000 A 
ATOM     15  C   UNL     1      47.010   0.873   7.162  0.00  0.00    +0.000 A 
ATOM     16  C   UNL     1      47.301   1.678   6.061  0.00  0.00    +0.000 A 
ATOM     17  C   UNL     1      46.832   2.988   6.004  0.00  0.00    +0.000 A 
ATOM     18  C   UNL     1      46.072   3.504   7.057  0.00  0.00    +0.000 A 
ENDBRANCH  10  13
ENDBRANCH   8   9
ENDBRANCH   5   8
ENDBRANCH   1   2
BRANCH   1  19
ATOM     19  N   UNL     1      47.754   8.094  15.157  0.00  0.00    +0.000 N 
ATOM     20  C   UNL     1      48.334   8.846  16.149  0.00  0.00    +0.000 C 
ATOM     21  O   UNL     1      48.740   9.985  15.949  0.00  0.00    +0.000 OA
ATOM     22  H   UNL     1      47.627   7.102  15.299  0.00  0.00    +0.000 HD
BRANCH  20  23
ATOM     23  C   UNL     1      48.368   8.228  17.471  0.00  0.00    +0.000 A 
ATOM     24  C   UNL     1      47.822   8.796  18.611  0.00  0.00    +0.000 A 
ATOM     25  S   UNL     1      48.220   7.940  20.039  0.00  0.00    +0.000 S 
ATOM     26  C   UNL     1      49.123   6.788  19.167  0.00  0.00    +0.000 A 
ATOM     27  N   UNL     1      49.805   5.793  19.795  0.00  0.00    +0.000 NA
ATOM     28  C   UNL     1      50.456   5.013  18.994  0.00  0.00    +0.000 A 
ATOM     29  N   UNL     1      50.458   5.114  17.625  0.00  0.00    +0.000 N 
ATOM     30  C   UNL     1      49.694   6.035  16.945  0.00  0.00    +0.000 A 
ATOM     31  O   UNL     1      49.528   5.955  15.734  0.00  0.00    +0.000 OA
ATOM     32  C   UNL     1      49.054   7.011  17.806  0.00  0.00    +0.000 A 
ATOM     33  H   UNL     1      50.916   4.421  17.054  0.00  0.00    +0.000 HD
ENDBRANCH  20  23
ENDBRANCH   1  19
BRANCH   1  35
ATOM     34  N   UNL     1      50.105   8.809  12.768  0.00  0.00    +0.000 NA
ATOM     35  C   UNL     1      49.028   8.720  13.191  0.00  0.00    +0.000 C 
ENDBRANCH   1  35
TORSDOF 7
ENDMDL
MODEL 5
REMARK VINA RESULT:    -7.265      2.189      4.521
REMARK INTER + INTRA:         -11.434
REMARK INTER:                 -10.092
REMARK INTRA:                  -1.342
REMARK UNBOUND:                -1.196
REMARK  Name = 
REMARK  7 active torsions:
REMARK  status: ('A' for Active; 'I' for Inactive)
REMARK    1  A    between atoms: C_2  and  C_3
REMARK    2  A    between atoms: C_3  and  N_4
REMARK    3  A    between atoms: C_3  and  C_17
REMARK    4  A    between atoms: C_5  and  C_7
REMARK    5  A    between atoms: C_20  and  C_21
REMARK    6  A    between atoms: C_21  and  N_22
REMARK    7  A    between atoms: C_23  and  C_25
REMARK                            x       y       z     vdW  Elec       q    Type
REMARK                         _______ _______ _______ _____ _____    ______ ____
ROOT
ATOM      1  C   UNL     1      48.562   8.591  14.331  0.00  0.00    +0.000 C 
ENDROOT
BRANCH   1   2
ATOM      2  C   UNL     1      47.603   8.017  13.295  0.00  0.00    +0.000 A 
ATOM      3  C   UNL     1      46.245   8.385  13.323  0.00  0.00    +0.000 A 
ATOM      4  C   UNL     1      45.327   7.807  12.436  0.00  0.00    +0.000 A 
ATOM      5  C   UNL     1      45.744   6.834  11.520  0.00  0.00    +0.000 A 
ATOM      6  C   UNL     1      47.100   6.492  11.464  0.00  0.00    +0.000 A 
ATOM      7  C   UNL     1      48.015   7.069  12.348  0.00  0.00    +0.000 A 
BRANCH   5   8
ATOM      8  C   UNL     1      44.761   6.152  10.605  0.00  0.00    +0.000 C 
BRANCH   8   9
ATOM      9  N   UNL     1      45.418   5.267   9.680  0.00  0.00    +0.000 N 
ATOM     10  C   UNL     1      44.931   3.993   9.485  0.00  0.00    +0.000 C 
ATOM     11  O   UNL     1      43.945   3.551  10.064  0.00  0.00    +0.000 OA
ATOM     12  H   UNL     1      46.085   5.658   9.029  0.00  0.00    +0.000 HD
BRANCH  10  13
ATOM     13  C   UNL     1      45.656   3.156   8.492  0.00  0.00    +0.000 A 
ATOM     14  C   UNL     1      45.809   1.774   8.671  0.00  0.00    +0.000 A 
ATOM     15  C   UNL     1      46.485   1.017   7.711  0.00  0.00    +0.000 A 
ATOM     16  C   UNL     1      47.000   1.635   6.573  0.00  0.00    +0.000 A 
ATOM     17  C   UNL     1      46.838   3.004   6.383  0.00  0.00    +0.000 A 
ATOM     18  C   UNL     1      46.162   3.768   7.339  0.00  0.00    +0.000 A 
ENDBRANCH  10  13
ENDBRANCH   8   9
ENDBRANCH   5   8
ENDBRANCH   1   2
BRANCH   1  19
ATOM     19  N   UNL     1      48.995   7.513  15.210  0.00  0.00    +0.000 N 
ATOM     20  C   UNL     1      48.762   7.596  16.561  0.00  0.00    +0.000 C 
ATOM     21  O   UNL     1      48.136   8.524  17.058  0.00  0.00    +0.000 OA
ATOM     22  H   UNL     1      49.683   6.859  14.865  0.00  0.00    +0.000 HD
BRANCH  20  23
ATOM     23  C   UNL     1      49.244   6.468  17.353  0.00  0.00    +0.000 A 
ATOM     24  C   UNL     1      50.171   6.577  18.379  0.00  0.00    +0.000 A 
ATOM     25  S   UNL     1      50.701   5.057  18.961  0.00  0.00    +0.000 S 
ATOM     26  C   UNL     1      49.701   4.221  17.863  0.00  0.00    +0.000 A 
ATOM     27  N   UNL     1      49.717   2.864  17.777  0.00  0.00    +0.000 NA
ATOM     28  C   UNL     1      48.915   2.383  16.883  0.00  0.00    +0.000 A 
ATOM     29  N   UNL     1      48.076   3.131  16.094  0.00  0.00    +0.000 N 
ATOM     30  C   UNL     1      47.948   4.496  16.226  0.00  0.00    +0.000 A 
ATOM     31  O   UNL     1      47.034   5.104  15.685  0.00  0.00    +0.000 OA
ATOM     32  C   UNL     1      48.922   5.087  17.124  0.00  0.00    +0.000 A 
ATOM     33  H   UNL     1      47.413   2.689  15.477  0.00  0.00    +0.000 HD
ENDBRANCH  20  23
ENDBRANCH   1  19
BRANCH   1  35
ATOM     34  N   UNL     1      50.622   9.814  13.211  0.00  0.00    +0.000 NA
ATOM     35  C   UNL     1      49.726   9.291  13.730  0.00  0.00    +0.000 C 
ENDBRANCH   1  35
TORSDOF 7
ENDMDL
MODEL 6
REMARK VINA RESULT:    -7.072      2.987      4.402
REMARK INTER + INTRA:         -11.162
REMARK INTER:                  -9.940
REMARK INTRA:                  -1.222
REMARK UNBOUND:                -1.196
REMARK  Name = 
REMARK  7 active torsions:
REMARK  status: ('A' for Active; 'I' for Inactive)
REMARK    1  A    between atoms: C_2  and  C_3
REMARK    2  A    between atoms: C_3  and  N_4
REMARK    3  A    between atoms: C_3  and  C_17
REMARK    4  A    between atoms: C_5  and  C_7
REMARK    5  A    between atoms: C_20  and  C_21
REMARK    6  A    between atoms: C_21  and  N_22
REMARK    7  A    between atoms: C_23  and  C_25
REMARK                            x       y       z     vdW  Elec       q    Type
REMARK                         _______ _______ _______ _____ _____    ______ ____
ROOT
ATOM      1  C   UNL     1      48.950   8.112  15.447  0.00  0.00    +0.000 C 
ENDROOT
BRANCH   1   2
ATOM      2  C   UNL     1      48.012   7.749  14.304  0.00  0.00    +0.000 A 
ATOM      3  C   UNL     1      47.166   8.732  13.757  0.00  0.00    +0.000 A 
ATOM      4  C   UNL     1      46.235   8.404  12.762  0.00  0.00    +0.000 A 
ATOM      5  C   UNL     1      46.114   7.084  12.313  0.00  0.00    +0.000 A 
ATOM      6  C   UNL     1      46.978   6.111  12.827  0.00  0.00    +0.000 A 
ATOM      7  C   UNL     1      47.907   6.438  13.818  0.00  0.00    +0.000 A 
BRANCH   5   8
ATOM      8  C   UNL     1      45.074   6.698  11.294  0.00  0.00    +0.000 C 
BRANCH   8   9
ATOM      9  N   UNL     1      45.586   5.749  10.341  0.00  0.00    +0.000 N 
ATOM     10  C   UNL     1      44.818   4.665   9.972  0.00  0.00    +0.000 C 
ATOM     11  O   UNL     1      43.695   4.452  10.414  0.00  0.00    +0.000 OA
ATOM     12  H   UNL     1      46.397   6.002   9.796  0.00  0.00    +0.000 HD
BRANCH  10  13
ATOM     13  C   UNL     1      45.415   3.750   8.963  0.00  0.00    +0.000 A 
ATOM     14  C   UNL     1      46.051   4.242   7.814  0.00  0.00    +0.000 A 
ATOM     15  C   UNL     1      46.612   3.354   6.893  0.00  0.00    +0.000 A 
ATOM     16  C   UNL     1      46.545   1.980   7.121  0.00  0.00    +0.000 A 
ATOM     17  C   UNL     1      45.927   1.487   8.267  0.00  0.00    +0.000 A 
ATOM     18  C   UNL     1      45.365   2.371   9.193  0.00  0.00    +0.000 A 
ENDBRANCH  10  13
ENDBRANCH   8   9
ENDBRANCH   5   8
ENDBRANCH   1   2
BRANCH   1  19
ATOM     19  N   UNL     1      48.156   8.639  16.550  0.00  0.00    +0.000 N 
ATOM     20  C   UNL     1      48.662   9.644  17.338  0.00  0.00    +0.000 C 
ATOM     21  O   UNL     1      49.744  10.169  17.110  0.00  0.00    +0.000 OA
ATOM     22  H   UNL     1      47.376   8.092  16.884  0.00  0.00    +0.000 HD
BRANCH  20  23
ATOM     23  C   UNL     1      47.791  10.093  18.421  0.00  0.00    +0.000 A 
ATOM     24  C   UNL     1      47.213  11.351  18.485  0.00  0.00    +0.000 A 
ATOM     25  S   UNL     1      46.434  11.652  19.979  0.00  0.00    +0.000 S 
ATOM     26  C   UNL     1      46.845  10.108  20.571  0.00  0.00    +0.000 A 
ATOM     27  N   UNL     1      46.540   9.728  21.841  0.00  0.00    +0.000 NA
ATOM     28  C   UNL     1      46.936   8.534  22.143  0.00  0.00    +0.000 A 
ATOM     29  N   UNL     1      47.576   7.676  21.284  0.00  0.00    +0.000 N 
ATOM     30  C   UNL     1      47.803   7.978  19.960  0.00  0.00    +0.000 A 
ATOM     31  O   UNL     1      48.156   7.118  19.163  0.00  0.00    +0.000 OA
ATOM     32  C   UNL     1      47.494   9.352  19.616  0.00  0.00    +0.000 A 
ATOM     33  H   UNL     1      47.780   6.726  21.556  0.00  0.00    +0.000 HD
ENDBRANCH  20  23
ENDBRANCH   1  19
BRANCH   1  35
ATOM     34  N   UNL     1      50.484   6.127  16.285  0.00  0.00    +0.000 NA
ATOM     35  C   UNL     1      49.799   6.978  15.895  0.00  0.00    +0.000 C 
ENDBRANCH   1  35
TORSDOF 7
ENDMDL
MODEL 7
REMARK VINA RESULT:    -5.923      2.722      4.876
REMARK INTER + INTRA:          -9.543
REMARK INTER:                  -8.304
REMARK INTRA:                  -1.239
REMARK UNBOUND:                -1.196
REMARK  Name = 
REMARK  7 active torsions:
REMARK  status: ('A' for Active; 'I' for Inactive)
REMARK    1  A    between atoms: C_2  and  C_3
REMARK    2  A    between atoms: C_3  and  N_4
REMARK    3  A    between atoms: C_3  and  C_17
REMARK    4  A    between atoms: C_5  and  C_7
REMARK    5  A    between atoms: C_20  and  C_21
REMARK    6  A    between atoms: C_21  and  N_22
REMARK    7  A    between atoms: C_23  and  C_25
REMARK                            x       y       z     vdW  Elec       q    Type
REMARK                         _______ _______ _______ _____ _____    ______ ____
ROOT
ATOM      1  C   UNL     1      48.022  11.250  12.415  0.00  0.00    +0.000 C 
ENDROOT
BRANCH   1   2
ATOM      2  C   UNL     1      47.221   9.980  12.160  0.00  0.00    +0.000 A 
ATOM      3  C   UNL     1      45.831  10.061  11.956  0.00  0.00    +0.000 A 
ATOM      4  C   UNL     1      45.060   8.901  11.803  0.00  0.00    +0.000 A 
ATOM      5  C   UNL     1      45.659   7.638  11.876  0.00  0.00    +0.000 A 
ATOM      6  C   UNL     1      47.046   7.554  12.042  0.00  0.00    +0.000 A 
ATOM      7  C   UNL     1      47.815   8.710  12.193  0.00  0.00    +0.000 A 
BRANCH   5   8
ATOM      8  C   UNL     1      44.839   6.378  11.782  0.00  0.00    +0.000 C 
BRANCH   8   9
ATOM      9  N   UNL     1      45.420   5.429  10.870  0.00  0.00    +0.000 N 
ATOM     10  C   UNL     1      44.606   4.676  10.052  0.00  0.00    +0.000 C 
ATOM     11  O   UNL     1      43.384   4.765  10.048  0.00  0.00    +0.000 OA
ATOM     12  H   UNL     1      46.412   5.482  10.685  0.00  0.00    +0.000 HD
BRANCH  10  13
ATOM     13  C   UNL     1      45.293   3.739   9.123  0.00  0.00    +0.000 A 
ATOM     14  C   UNL     1      45.216   2.350   9.295  0.00  0.00    +0.000 A 
ATOM     15  C   UNL     1      45.863   1.498   8.396  0.00  0.00    +0.000 A 
ATOM     16  C   UNL     1      46.579   2.031   7.325  0.00  0.00    +0.000 A 
ATOM     17  C   UNL     1      46.646   3.410   7.142  0.00  0.00    +0.000 A 
ATOM     18  C   UNL     1      46.001   4.267   8.037  0.00  0.00    +0.000 A 
ENDBRANCH  10  13
ENDBRANCH   8   9
ENDBRANCH   5   8
ENDBRANCH   1   2
BRANCH   1  19
ATOM     19  N   UNL     1      49.290  10.885  13.033  0.00  0.00    +0.000 N 
ATOM     20  C   UNL     1      49.621  11.388  14.267  0.00  0.00    +0.000 C 
ATOM     21  O   UNL     1      48.852  12.092  14.911  0.00  0.00    +0.000 OA
ATOM     22  H   UNL     1      50.013  10.492  12.448  0.00  0.00    +0.000 HD
BRANCH  20  23
ATOM     23  C   UNL     1      50.917  10.967  14.792  0.00  0.00    +0.000 A 
ATOM     24  C   UNL     1      52.006  11.810  14.945  0.00  0.00    +0.000 A 
ATOM     25  S   UNL     1      53.441  10.976  15.366  0.00  0.00    +0.000 S 
ATOM     26  C   UNL     1      52.638   9.473  15.360  0.00  0.00    +0.000 A 
ATOM     27  N   UNL     1      53.307   8.308  15.575  0.00  0.00    +0.000 NA
ATOM     28  C   UNL     1      52.560   7.253  15.519  0.00  0.00    +0.000 A 
ATOM     29  N   UNL     1      51.204   7.260  15.304  0.00  0.00    +0.000 N 
ATOM     30  C   UNL     1      50.472   8.420  15.193  0.00  0.00    +0.000 A 
ATOM     31  O   UNL     1      49.248   8.408  15.239  0.00  0.00    +0.000 OA
ATOM     32  C   UNL     1      51.287   9.618  15.119  0.00  0.00    +0.000 A 
ATOM     33  H   UNL     1      50.666   6.409  15.358  0.00  0.00    +0.000 HD
ENDBRANCH  20  23
ENDBRANCH   1  19
BRANCH   1  35
ATOM     34  N   UNL     1      48.372  12.741  10.258  0.00  0.00    +0.000 NA
ATOM     35  C   UNL     1      48.239  12.065  11.192  0.00  0.00    +0.000 C 
ENDBRANCH   1  35
TORSDOF 7
ENDMDL
MODEL 8
REMARK VINA RESULT:    -5.830      3.375      5.552
REMARK INTER + INTRA:          -9.413
REMARK INTER:                  -8.191
REMARK INTRA:                  -1.222
REMARK UNBOUND:                -1.196
REMARK  Name = 
REMARK  7 active torsions:
REMARK  status: ('A' for Active; 'I' for Inactive)
REMARK    1  A    between atoms: C_2  and  C_3
REMARK    2  A    between atoms: C_3  and  N_4
REMARK    3  A    between atoms: C_3  and  C_17
REMARK    4  A    between atoms: C_5  and  C_7
REMARK    5  A    between atoms: C_20  and  C_21
REMARK    6  A    between atoms: C_21  and  N_22
REMARK    7  A    between atoms: C_23  and  C_25
REMARK                            x       y       z     vdW  Elec       q    Type
REMARK                         _______ _______ _______ _____ _____    ______ ____
ROOT
ATOM      1  C   UNL     1      51.500   8.795  13.288  0.00  0.00    +0.000 C 
ENDROOT
BRANCH   1   2
ATOM      2  C   UNL     1      50.007   8.555  13.107  0.00  0.00    +0.000 A 
ATOM      3  C   UNL     1      49.395   7.455  13.736  0.00  0.00    +0.000 A 
ATOM      4  C   UNL     1      48.042   7.164  13.518  0.00  0.00    +0.000 A 
ATOM      5  C   UNL     1      47.280   7.952  12.647  0.00  0.00    +0.000 A 
ATOM      6  C   UNL     1      47.874   9.069  12.048  0.00  0.00    +0.000 A 
ATOM      7  C   UNL     1      49.223   9.359  12.267  0.00  0.00    +0.000 A 
BRANCH   5   8
ATOM      8  C   UNL     1      45.843   7.617  12.347  0.00  0.00    +0.000 C 
BRANCH   8   9
ATOM      9  N   UNL     1      45.731   6.623  11.313  0.00  0.00    +0.000 N 
ATOM     10  C   UNL     1      45.046   5.453  11.557  0.00  0.00    +0.000 C 
ATOM     11  O   UNL     1      44.508   5.196  12.628  0.00  0.00    +0.000 OA
ATOM     12  H   UNL     1      45.962   6.884  10.365  0.00  0.00    +0.000 HD
BRANCH  10  13
ATOM     13  C   UNL     1      44.958   4.493  10.424  0.00  0.00    +0.000 A 
ATOM     14  C   UNL     1      45.460   4.811   9.154  0.00  0.00    +0.000 A 
ATOM     15  C   UNL     1      45.372   3.881   8.116  0.00  0.00    +0.000 A 
ATOM     16  C   UNL     1      44.791   2.634   8.345  0.00  0.00    +0.000 A 
ATOM     17  C   UNL     1      44.305   2.308   9.608  0.00  0.00    +0.000 A 
ATOM     18  C   UNL     1      44.390   3.234  10.651  0.00  0.00    +0.000 A 
ENDBRANCH  10  13
ENDBRANCH   8   9
ENDBRANCH   5   8
ENDBRANCH   1   2
BRANCH   1  19
ATOM     19  N   UNL     1      52.035   7.755  14.157  0.00  0.00    +0.000 N 
ATOM     20  C   UNL     1      52.532   8.085  15.395  0.00  0.00    +0.000 C 
ATOM     21  O   UNL     1      52.483   9.229  15.832  0.00  0.00    +0.000 OA
ATOM     22  H   UNL     1      52.279   6.865  13.748  0.00  0.00    +0.000 HD
BRANCH  20  23
ATOM     23  C   UNL     1      53.053   6.971  16.182  0.00  0.00    +0.000 A 
ATOM     24  C   UNL     1      54.399   6.664  16.300  0.00  0.00    +0.000 A 
ATOM     25  S   UNL     1      54.676   5.176  17.099  0.00  0.00    +0.000 S 
ATOM     26  C   UNL     1      53.006   4.913  17.311  0.00  0.00    +0.000 A 
ATOM     27  N   UNL     1      52.531   3.769  17.874  0.00  0.00    +0.000 NA
ATOM     28  C   UNL     1      51.241   3.713  17.947  0.00  0.00    +0.000 A 
ATOM     29  N   UNL     1      50.386   4.708  17.541  0.00  0.00    +0.000 N 
ATOM     30  C   UNL     1      50.827   5.924  17.071  0.00  0.00    +0.000 A 
ATOM     31  O   UNL     1      50.062   6.872  16.940  0.00  0.00    +0.000 OA
ATOM     32  C   UNL     1      52.260   5.978  16.851  0.00  0.00    +0.000 A 
ATOM     33  H   UNL     1      49.393   4.638  17.706  0.00  0.00    +0.000 HD
ENDBRANCH  20  23
ENDBRANCH   1  19
BRANCH   1  35
ATOM     34  N   UNL     1      52.835   8.845  11.006  0.00  0.00    +0.000 NA
ATOM     35  C   UNL     1      52.246   8.855  12.006  0.00  0.00    +0.000 C 
ENDBRANCH   1  35
TORSDOF 7
ENDMDL
MODEL 9
REMARK VINA RESULT:    -5.750      2.883      5.011
REMARK INTER + INTRA:          -9.299
REMARK INTER:                  -8.233
REMARK INTRA:                  -1.066
REMARK UNBOUND:                -1.196
REMARK  Name = 
REMARK  7 active torsions:
REMARK  status: ('A' for Active; 'I' for Inactive)
REMARK    1  A    between atoms: C_2  and  C_3
REMARK    2  A    between atoms: C_3  and  N_4
REMARK    3  A    between atoms: C_3  and  C_17
REMARK    4  A    between atoms: C_5  and  C_7
REMARK    5  A    between atoms: C_20  and  C_21
REMARK    6  A    between atoms: C_21  and  N_22
REMARK    7  A    between atoms: C_23  and  C_25
REMARK                            x       y       z     vdW  Elec       q    Type
REMARK                         _______ _______ _______ _____ _____    ______ ____
ROOT
ATOM      1  C   UNL     1      50.034   8.702  15.277  0.00  0.00    +0.000 C 
ENDROOT
BRANCH   1   2
ATOM      2  C   UNL     1      48.860   8.120  14.501  0.00  0.00    +0.000 A 
ATOM      3  C   UNL     1      47.841   8.970  14.035  0.00  0.00    +0.000 A 
ATOM      4  C   UNL     1      46.710   8.450  13.392  0.00  0.00    +0.000 A 
ATOM      5  C   UNL     1      46.563   7.068  13.225  0.00  0.00    +0.000 A 
ATOM      6  C   UNL     1      47.591   6.221  13.654  0.00  0.00    +0.000 A 
ATOM      7  C   UNL     1      48.720   6.740  14.293  0.00  0.00    +0.000 A 
BRANCH   5   8
ATOM      8  C   UNL     1      45.325   6.485  12.599  0.00  0.00    +0.000 C 
BRANCH   8   9
ATOM      9  N   UNL     1      45.645   5.539  11.563  0.00  0.00    +0.000 N 
ATOM     10  C   UNL     1      44.649   5.061  10.738  0.00  0.00    +0.000 C 
ATOM     11  O   UNL     1      43.475   5.400  10.831  0.00  0.00    +0.000 OA
ATOM     12  H   UNL     1      46.614   5.407  11.312  0.00  0.00    +0.000 HD
BRANCH  10  13
ATOM     13  C   UNL     1      45.074   4.108   9.678  0.00  0.00    +0.000 A 
ATOM     14  C   UNL     1      45.752   4.543   8.531  0.00  0.00    +0.000 A 
ATOM     15  C   UNL     1      46.148   3.619   7.562  0.00  0.00    +0.000 A 
ATOM     16  C   UNL     1      45.874   2.263   7.739  0.00  0.00    +0.000 A 
ATOM     17  C   UNL     1      45.214   1.824   8.884  0.00  0.00    +0.000 A 
ATOM     18  C   UNL     1      44.816   2.744   9.858  0.00  0.00    +0.000 A 
ENDBRANCH  10  13
ENDBRANCH   8   9
ENDBRANCH   5   8
ENDBRANCH   1   2
BRANCH   1  19
ATOM     19  N   UNL     1      50.198   7.944  16.510  0.00  0.00    +0.000 N 
ATOM     20  C   UNL     1      50.587   8.585  17.661  0.00  0.00    +0.000 C 
ATOM     21  O   UNL     1      50.742   9.799  17.710  0.00  0.00    +0.000 OA
ATOM     22  H   UNL     1      50.284   6.940  16.449  0.00  0.00    +0.000 HD
BRANCH  20  23
ATOM     23  C   UNL     1      50.730   7.733  18.838  0.00  0.00    +0.000 A 
ATOM     24  C   UNL     1      51.936   7.475  19.471  0.00  0.00    +0.000 A 
ATOM     25  S   UNL     1      51.811   6.266  20.676  0.00  0.00    +0.000 S 
ATOM     26  C   UNL     1      50.145   6.066  20.386  0.00  0.00    +0.000 A 
ATOM     27  N   UNL     1      49.417   5.120  21.038  0.00  0.00    +0.000 NA
ATOM     28  C   UNL     1      48.171   5.082  20.692  0.00  0.00    +0.000 A 
ATOM     29  N   UNL     1      47.581   5.923  19.782  0.00  0.00    +0.000 N 
ATOM     30  C   UNL     1      48.254   6.964  19.183  0.00  0.00    +0.000 A 
ATOM     31  O   UNL     1      47.657   7.836  18.564  0.00  0.00    +0.000 OA
ATOM     32  C   UNL     1      49.681   6.960  19.443  0.00  0.00    +0.000 A 
ATOM     33  H   UNL     1      46.585   5.898  19.621  0.00  0.00    +0.000 HD
ENDBRANCH  20  23
ENDBRANCH   1  19
BRANCH   1  35
ATOM     34  N   UNL     1      52.280   8.698  13.879  0.00  0.00    +0.000 NA
ATOM     35  C   UNL     1      51.299   8.732  14.497  0.00  0.00    +0.000 C 
ENDBRANCH   1  35
TORSDOF 7
ENDMDL
