MODEL 1
REMARK VINA RESULT:    -7.788      0.000      0.000
REMARK INTER + INTRA:         -10.428
REMARK INTER:                  -9.837
REMARK INTRA:                  -0.591
REMARK UNBOUND:                -0.591
REMARK  Name = 
REMARK  5 active torsions:
REMARK  status: ('A' for Active; 'I' for Inactive)
REMARK    1  A    between atoms: N_1  and  C_2
REMARK    2  A    between atoms: C_6  and  C_7
REMARK    3  A    between atoms: C_7  and  C_8
REMARK    4  A    between atoms: C_8  and  C_9
REMARK    5  A    between atoms: C_13  and  N_14
REMARK                            x       y       z     vdW  Elec       q    Type
REMARK                         _______ _______ _______ _____ _____    ______ ____
ROOT
ATOM      1  C   UNL     1      44.863   4.307  11.220  0.00  0.00    +0.000 A 
ATOM      2  C   UNL     1      45.119   3.333  12.180  0.00  0.00    +0.000 A 
ATOM      3  N   UNL     1      45.887   3.523  13.272  0.00  0.00    +0.000 NA
ATOM      4  C   UNL     1      46.466   4.742  13.399  0.00  0.00    +0.000 A 
ATOM      5  C   UNL     1      46.323   5.807  12.507  0.00  0.00    +0.000 A 
ATOM      6  C   UNL     1      45.485   5.551  11.407  0.00  0.00    +0.000 A 
ENDROOT
BRANCH   5   7
ATOM      7  N   UNL     1      46.974   7.013  12.656  0.00  0.00    +0.000 N 
ATOM      8  C   UNL     1      48.433   7.154  12.530  0.00  0.00    +0.000 C 
ATOM      9  C   UNL     1      48.810   8.476  11.792  0.00  0.00    +0.000 C 
ATOM     10  N   UNL     1      48.029   9.686  12.135  0.00  0.00    +0.000 NA
ATOM     11  C   UNL     1      46.590   9.355  12.122  0.00  0.00    +0.000 C 
ATOM     12  C   UNL     1      46.267   8.215  13.102  0.00  0.00    +0.000 C 
ATOM     13  H   UNL     1      48.277   9.968  13.083  0.00  0.00    +0.000 HD
ENDBRANCH   5   7
BRANCH   1  14
ATOM     14  C   UNL     1      44.031   4.014   9.989  0.00  0.00    +0.000 C 
BRANCH  14  15
ATOM     15  C   UNL     1      44.788   4.272   8.676  0.00  0.00    +0.000 C 
BRANCH  15  20
ATOM     16  C   UNL     1      47.455   2.261   6.749  0.00  0.00    +0.000 A 
ATOM     17  C   UNL     1      47.215   1.038   7.376  0.00  0.00    +0.000 A 
ATOM     18  N   UNL     1      46.229   0.815   8.271  0.00  0.00    +0.000 NA
ATOM     19  C   UNL     1      45.481   1.885   8.611  0.00  0.00    +0.000 A 
ATOM     20  C   UNL     1      45.660   3.176   8.111  0.00  0.00    +0.000 A 
ATOM     21  C   UNL     1      46.685   3.351   7.175  0.00  0.00    +0.000 A 
BRANCH  16  22
ATOM     22  N   UNL     1      48.570   2.449   5.924  0.00  0.00    +0.000 N 
ATOM     23  H   UNL     1      49.064   1.592   5.700  0.00  0.00    +0.000 HD
ATOM     24  H   UNL     1      48.387   3.009   5.097  0.00  0.00    +0.000 HD
ENDBRANCH  16  22
ENDBRANCH  15  20
ENDBRANCH  14  15
ENDBRANCH   1  14
TORSDOF 5
ENDMDL
MODEL 2
REMARK VINA RESULT:    -6.828      1.902      3.290
REMARK INTER + INTRA:          -9.215
REMARK INTER:                  -8.729
REMARK INTRA:                  -0.486
REMARK UNBOUND:                -0.591
REMARK  Name = 
REMARK  5 active torsions:
REMARK  status: ('A' for Active; 'I' for Inactive)
REMARK    1  A    between atoms: N_1  and  C_2
REMARK    2  A    between atoms: C_6  and  C_7
REMARK    3  A    between atoms: C_7  and  C_8
REMARK    4  A    between atoms: C_8  and  C_9
REMARK    5  A    between atoms: C_13  and  N_14
REMARK                            x       y       z     vdW  Elec       q    Type
REMARK                         _______ _______ _______ _____ _____    ______ ____
ROOT
ATOM      1  C   UNL     1      44.491   5.740  11.362  0.00  0.00    +0.000 A 
ATOM      2  C   UNL     1      44.337   7.121  11.324  0.00  0.00    +0.000 A 
ATOM      3  N   UNL     1      45.079   7.990  12.040  0.00  0.00    +0.000 NA
ATOM      4  C   UNL     1      46.003   7.452  12.873  0.00  0.00    +0.000 A 
ATOM      5  C   UNL     1      46.255   6.089  13.036  0.00  0.00    +0.000 A 
ATOM      6  C   UNL     1      45.467   5.241  12.238  0.00  0.00    +0.000 A 
ENDROOT
BRANCH   5   7
ATOM      7  N   UNL     1      47.174   5.590  13.934  0.00  0.00    +0.000 N 
ATOM      8  C   UNL     1      48.348   6.355  14.383  0.00  0.00    +0.000 C 
ATOM      9  C   UNL     1      48.622   6.126  15.902  0.00  0.00    +0.000 C 
ATOM     10  N   UNL     1      48.461   4.746  16.416  0.00  0.00    +0.000 NA
ATOM     11  C   UNL     1      47.185   4.190  15.924  0.00  0.00    +0.000 C 
ATOM     12  C   UNL     1      47.124   4.199  14.387  0.00  0.00    +0.000 C 
ATOM     13  H   UNL     1      49.217   4.175  16.039  0.00  0.00    +0.000 HD
ENDBRANCH   5   7
BRANCH   1  14
ATOM     14  C   UNL     1      43.591   4.815  10.569  0.00  0.00    +0.000 C 
BRANCH  14  15
ATOM     15  C   UNL     1      44.181   3.407  10.390  0.00  0.00    +0.000 C 
BRANCH  15  20
ATOM     16  C   UNL     1      46.499   1.795   7.764  0.00  0.00    +0.000 A 
ATOM     17  C   UNL     1      46.714   2.949   7.012  0.00  0.00    +0.000 A 
ATOM     18  N   UNL     1      46.253   4.176   7.340  0.00  0.00    +0.000 NA
ATOM     19  C   UNL     1      45.480   4.245   8.443  0.00  0.00    +0.000 A 
ATOM     20  C   UNL     1      45.133   3.156   9.245  0.00  0.00    +0.000 A 
ATOM     21  C   UNL     1      45.648   1.911   8.871  0.00  0.00    +0.000 A 
BRANCH  16  22
ATOM     22  N   UNL     1      46.904   0.538   7.299  0.00  0.00    +0.000 N 
ATOM     23  H   UNL     1      46.313   0.161   6.566  0.00  0.00    +0.000 HD
ATOM     24  H   UNL     1      47.889   0.480   7.060  0.00  0.00    +0.000 HD
ENDBRANCH  16  22
ENDBRANCH  15  20
ENDBRANCH  14  15
ENDBRANCH   1  14
TORSDOF 5
ENDMDL
MODEL 3
REMARK VINA RESULT:    -6.823      1.325      2.070
REMARK INTER + INTRA:          -9.208
REMARK INTER:                  -8.620
REMARK INTRA:                  -0.588
REMARK UNBOUND:                -0.591
REMARK  Name = 
REMARK  5 active torsions:
REMARK  status: ('A' for Active; 'I' for Inactive)
REMARK    1  A    between atoms: N_1  and  C_2
REMARK    2  A    between atoms: C_6  and  C_7
REMARK    3  A    between atoms: C_7  and  C_8
REMARK    4  A    between atoms: C_8  and  C_9
REMARK    5  A    between atoms: C_13  and  N_14
REMARK                            x       y       z     vdW  Elec       q    Type
REMARK                         _______ _______ _______ _____ _____    ______ ____
ROOT
ATOM      1  C   UNL     1      45.030   4.569  11.843  0.00  0.00    +0.000 A 
ATOM      2  C   UNL     1      45.393   3.455  12.592  0.00  0.00    +0.000 A 
ATOM      3  N   UNL     1      46.384   3.443  13.507  0.00  0.00    +0.000 NA
ATOM      4  C   UNL     1      47.080   4.596  13.659  0.00  0.00    +0.000 A 
ATOM      5  C   UNL     1      46.848   5.783  12.963  0.00  0.00    +0.000 A 
ATOM      6  C   UNL     1      45.782   5.735  12.047  0.00  0.00    +0.000 A 
ENDROOT
BRANCH   5   7
ATOM      7  N   UNL     1      47.618   6.917  13.120  0.00  0.00    +0.000 N 
ATOM      8  C   UNL     1      47.049   8.224  13.483  0.00  0.00    +0.000 C 
ATOM      9  C   UNL     1      47.977   8.983  14.483  0.00  0.00    +0.000 C 
ATOM     10  N   UNL     1      49.435   8.911  14.237  0.00  0.00    +0.000 NA
ATOM     11  C   UNL     1      49.815   7.507  13.979  0.00  0.00    +0.000 C 
ATOM     12  C   UNL     1      49.042   6.927  12.784  0.00  0.00    +0.000 C 
ATOM     13  H   UNL     1      49.645   9.451  13.398  0.00  0.00    +0.000 HD
ENDBRANCH   5   7
BRANCH   1  14
ATOM     14  C   UNL     1      43.939   4.503  10.794  0.00  0.00    +0.000 C 
BRANCH  14  15
ATOM     15  C   UNL     1      43.981   3.212   9.961  0.00  0.00    +0.000 C 
BRANCH  15  20
ATOM     16  C   UNL     1      46.710   1.763   7.654  0.00  0.00    +0.000 A 
ATOM     17  C   UNL     1      46.977   2.944   6.963  0.00  0.00    +0.000 A 
ATOM     18  N   UNL     1      46.423   4.143   7.248  0.00  0.00    +0.000 NA
ATOM     19  C   UNL     1      45.502   4.152   8.234  0.00  0.00    +0.000 A 
ATOM     20  C   UNL     1      45.094   3.030   8.957  0.00  0.00    +0.000 A 
ATOM     21  C   UNL     1      45.709   1.816   8.633  0.00  0.00    +0.000 A 
BRANCH  16  22
ATOM     22  N   UNL     1      47.230   0.536   7.225  0.00  0.00    +0.000 N 
ATOM     23  H   UNL     1      47.978   0.180   7.811  0.00  0.00    +0.000 HD
ATOM     24  H   UNL     1      46.526  -0.172   7.037  0.00  0.00    +0.000 HD
ENDBRANCH  16  22
ENDBRANCH  15  20
ENDBRANCH  14  15
ENDBRANCH   1  14
TORSDOF 5
ENDMDL
MODEL 4
REMARK VINA RESULT:    -6.759      1.503      2.293
REMARK INTER + INTRA:          -9.128
REMARK INTER:                  -8.667
REMARK INTRA:                  -0.461
REMARK UNBOUND:                -0.591
REMARK  Name = 
REMARK  5 active torsions:
REMARK  status: ('A' for Active; 'I' for Inactive)
REMARK    1  A    between atoms: N_1  and  C_2
REMARK    2  A    between atoms: C_6  and  C_7
REMARK    3  A    between atoms: C_7  and  C_8
REMARK    4  A    between atoms: C_8  and  C_9
REMARK    5  A    between atoms: C_13  and  N_14
REMARK                            x       y       z     vdW  Elec       q    Type
REMARK                         _______ _______ _______ _____ _____    ______ ____
ROOT
ATOM      1  C   UNL     1      45.165   5.751  11.051  0.00  0.00    +0.000 A 
ATOM      2  C   UNL     1      44.138   6.688  11.109  0.00  0.00    +0.000 A 
ATOM      3  N   UNL     1      44.286   7.954  11.548  0.00  0.00    +0.000 NA
ATOM      4  C   UNL     1      45.520   8.299  11.991  0.00  0.00    +0.000 A 
ATOM      5  C   UNL     1      46.638   7.464  12.017  0.00  0.00    +0.000 A 
ATOM      6  C   UNL     1      46.420   6.167  11.518  0.00  0.00    +0.000 A 
ENDROOT
BRANCH   5   7
ATOM      7  N   UNL     1      47.860   7.849  12.524  0.00  0.00    +0.000 N 
ATOM      8  C   UNL     1      48.184   7.793  13.958  0.00  0.00    +0.000 C 
ATOM      9  C   UNL     1      49.653   7.320  14.187  0.00  0.00    +0.000 C 
ATOM     10  N   UNL     1      50.684   7.856  13.269  0.00  0.00    +0.000 NA
ATOM     11  C   UNL     1      50.203   7.741  11.877  0.00  0.00    +0.000 C 
ATOM     12  C   UNL     1      48.873   8.486  11.680  0.00  0.00    +0.000 C 
ATOM     13  H   UNL     1      50.812   8.846  13.475  0.00  0.00    +0.000 HD
ENDBRANCH   5   7
BRANCH   1  14
ATOM     14  C   UNL     1      44.921   4.327  10.594  0.00  0.00    +0.000 C 
BRANCH  14  15
ATOM     15  C   UNL     1      44.812   4.195   9.067  0.00  0.00    +0.000 C 
BRANCH  15  20
ATOM     16  C   UNL     1      47.437   2.397   6.889  0.00  0.00    +0.000 A 
ATOM     17  C   UNL     1      47.173   1.109   7.353  0.00  0.00    +0.000 A 
ATOM     18  N   UNL     1      46.183   0.791   8.216  0.00  0.00    +0.000 NA
ATOM     19  C   UNL     1      45.457   1.823   8.694  0.00  0.00    +0.000 A 
ATOM     20  C   UNL     1      45.662   3.164   8.363  0.00  0.00    +0.000 A 
ATOM     21  C   UNL     1      46.689   3.438   7.454  0.00  0.00    +0.000 A 
BRANCH  16  22
ATOM     22  N   UNL     1      48.555   2.668   6.091  0.00  0.00    +0.000 N 
ATOM     23  H   UNL     1      48.326   3.039   5.175  0.00  0.00    +0.000 HD
ATOM     24  H   UNL     1      49.275   3.215   6.554  0.00  0.00    +0.000 HD
ENDBRANCH  16  22
ENDBRANCH  15  20
ENDBRANCH  14  15
ENDBRANCH   1  14
TORSDOF 5
ENDMDL
MODEL 5
REMARK VINA RESULT:    -6.671      2.449      3.889
REMARK INTER + INTRA:          -9.016
REMARK INTER:                  -8.498
REMARK INTRA:                  -0.519
REMARK UNBOUND:                -0.591
REMARK  Name = 
REMARK  5 active torsions:
REMARK  status: ('A' for Active; 'I' for Inactive)
REMARK    1  A    between atoms: N_1  and  C_2
REMARK    2  A    between atoms: C_6  and  C_7
REMARK    3  A    between atoms: C_7  and  C_8
REMARK    4  A    between atoms: C_8  and  C_9
REMARK    5  A    between atoms: C_13  and  N_14
REMARK                            x       y       z     vdW  Elec       q    Type
REMARK                         _______ _______ _______ _____ _____    ______ ____
ROOT
ATOM      1  C   UNL     1      45.495   5.011  12.564  0.00  0.00    +0.000 A 
ATOM      2  C   UNL     1      46.147   6.059  11.924  0.00  0.00    +0.000 A 
ATOM      3  N   UNL     1      47.271   6.648  12.378  0.00  0.00    +0.000 NA
ATOM      4  C   UNL     1      47.756   6.193  13.559  0.00  0.00    +0.000 A 
ATOM      5  C   UNL     1      47.199   5.169  14.326  0.00  0.00    +0.000 A 
ATOM      6  C   UNL     1      46.046   4.579  13.780  0.00  0.00    +0.000 A 
ENDROOT
BRANCH   5   7
ATOM      7  N   UNL     1      47.704   4.776  15.548  0.00  0.00    +0.000 N 
ATOM      8  C   UNL     1      48.434   5.688  16.441  0.00  0.00    +0.000 C 
ATOM      9  C   UNL     1      48.055   5.438  17.934  0.00  0.00    +0.000 C 
ATOM     10  N   UNL     1      47.903   4.030  18.364  0.00  0.00    +0.000 NA
ATOM     11  C   UNL     1      47.068   3.309  17.382  0.00  0.00    +0.000 C 
ATOM     12  C   UNL     1      47.678   3.375  15.972  0.00  0.00    +0.000 C 
ATOM     13  H   UNL     1      48.825   3.596  18.369  0.00  0.00    +0.000 HD
ENDBRANCH   5   7
BRANCH   1  14
ATOM     14  C   UNL     1      44.205   4.426  12.026  0.00  0.00    +0.000 C 
BRANCH  14  15
ATOM     15  C   UNL     1      43.996   4.703  10.529  0.00  0.00    +0.000 C 
BRANCH  15  20
ATOM     16  C   UNL     1      46.262   3.482   7.659  0.00  0.00    +0.000 A 
ATOM     17  C   UNL     1      46.137   2.119   7.926  0.00  0.00    +0.000 A 
ATOM     18  N   UNL     1      45.329   1.594   8.872  0.00  0.00    +0.000 NA
ATOM     19  C   UNL     1      44.659   2.478   9.640  0.00  0.00    +0.000 A 
ATOM     20  C   UNL     1      44.748   3.867   9.522  0.00  0.00    +0.000 A 
ATOM     21  C   UNL     1      45.586   4.359   8.516  0.00  0.00    +0.000 A 
BRANCH  16  22
ATOM     22  N   UNL     1      47.209   3.960   6.745  0.00  0.00    +0.000 N 
ATOM     23  H   UNL     1      47.191   4.967   6.623  0.00  0.00    +0.000 HD
ATOM     24  H   UNL     1      48.151   3.614   6.901  0.00  0.00    +0.000 HD
ENDBRANCH  16  22
ENDBRANCH  15  20
ENDBRANCH  14  15
ENDBRANCH   1  14
TORSDOF 5
ENDMDL
MODEL 6
REMARK VINA RESULT:    -6.491      2.270      7.078
REMARK INTER + INTRA:          -8.789
REMARK INTER:                  -8.221
REMARK INTRA:                  -0.568
REMARK UNBOUND:                -0.591
REMARK  Name = 
REMARK  5 active torsions:
REMARK  status: ('A' for Active; 'I' for Inactive)
REMARK    1  A    between atoms: N_1  and  C_2
REMARK    2  A    between atoms: C_6  and  C_7
REMARK    3  A    between atoms: C_7  and  C_8
REMARK    4  A    between atoms: C_8  and  C_9
REMARK    5  A    between atoms: C_13  and  N_14
REMARK                            x       y       z     vdW  Elec       q    Type
REMARK                         _______ _______ _______ _____ _____    ______ ____
ROOT
ATOM      1  C   UNL     1      44.861   4.987  12.237  0.00  0.00    +0.000 A 
ATOM      2  C   UNL     1      43.846   4.248  12.836  0.00  0.00    +0.000 A 
ATOM      3  N   UNL     1      43.288   3.145  12.298  0.00  0.00    +0.000 NA
ATOM      4  C   UNL     1      43.738   2.776  11.074  0.00  0.00    +0.000 A 
ATOM      5  C   UNL     1      44.730   3.429  10.342  0.00  0.00    +0.000 A 
ATOM      6  C   UNL     1      45.290   4.554  10.974  0.00  0.00    +0.000 A 
ENDROOT
BRANCH   5   7
ATOM      7  N   UNL     1      45.119   3.041   9.077  0.00  0.00    +0.000 N 
ATOM      8  C   UNL     1      45.429   4.002   8.007  0.00  0.00    +0.000 C 
ATOM      9  C   UNL     1      46.651   3.526   7.160  0.00  0.00    +0.000 C 
ATOM     10  N   UNL     1      46.724   2.084   6.833  0.00  0.00    +0.000 NA
ATOM     11  C   UNL     1      46.469   1.295   8.055  0.00  0.00    +0.000 C 
ATOM     12  C   UNL     1      45.102   1.636   8.669  0.00  0.00    +0.000 C 
ATOM     13  H   UNL     1      45.985   1.871   6.164  0.00  0.00    +0.000 HD
ENDBRANCH   5   7
BRANCH   1  14
ATOM     14  C   UNL     1      45.411   6.247  12.872  0.00  0.00    +0.000 C 
BRANCH  14  15
ATOM     15  C   UNL     1      46.929   6.192  13.103  0.00  0.00    +0.000 C 
BRANCH  15  20
ATOM     16  C   UNL     1      47.536   4.250  16.378  0.00  0.00    +0.000 A 
ATOM     17  C   UNL     1      48.682   4.945  16.765  0.00  0.00    +0.000 A 
ATOM     18  N   UNL     1      49.189   6.013  16.111  0.00  0.00    +0.000 NA
ATOM     19  C   UNL     1      48.560   6.366  14.972  0.00  0.00    +0.000 A 
ATOM     20  C   UNL     1      47.446   5.714  14.438  0.00  0.00    +0.000 A 
ATOM     21  C   UNL     1      46.951   4.624  15.162  0.00  0.00    +0.000 A 
BRANCH  16  22
ATOM     22  N   UNL     1      47.139   3.080  17.036  0.00  0.00    +0.000 N 
ATOM     23  H   UNL     1      46.654   3.246  17.912  0.00  0.00    +0.000 HD
ATOM     24  H   UNL     1      46.642   2.418  16.447  0.00  0.00    +0.000 HD
ENDBRANCH  16  22
ENDBRANCH  15  20
ENDBRANCH  14  15
ENDBRANCH   1  14
TORSDOF 5
ENDMDL
MODEL 7
REMARK VINA RESULT:    -6.341      3.296      7.266
REMARK INTER + INTRA:          -8.600
REMARK INTER:                  -7.928
REMARK INTRA:                  -0.671
REMARK UNBOUND:                -0.591
REMARK  Name = 
REMARK  5 active torsions:
REMARK  status: ('A' for Active; 'I' for Inactive)
REMARK    1  A    between atoms: N_1  and  C_2
REMARK    2  A    between atoms: C_6  and  C_7
REMARK    3  A    between atoms: C_7  and  C_8
REMARK    4  A    between atoms: C_8  and  C_9
REMARK    5  A    between atoms: C_13  and  N_14
REMARK                            x       y       z     vdW  Elec       q    Type
REMARK                         _______ _______ _______ _____ _____    ______ ____
ROOT
ATOM      1  C   UNL     1      48.032   6.901  12.546  0.00  0.00    +0.000 A 
ATOM      2  C   UNL     1      48.586   6.611  13.789  0.00  0.00    +0.000 A 
ATOM      3  N   UNL     1      48.086   5.706  14.653  0.00  0.00    +0.000 NA
ATOM      4  C   UNL     1      46.945   5.078  14.277  0.00  0.00    +0.000 A 
ATOM      5  C   UNL     1      46.263   5.281  13.077  0.00  0.00    +0.000 A 
ATOM      6  C   UNL     1      46.855   6.217  12.209  0.00  0.00    +0.000 A 
ENDROOT
BRANCH   5   7
ATOM      7  N   UNL     1      45.077   4.652  12.762  0.00  0.00    +0.000 N 
ATOM      8  C   UNL     1      43.760   5.255  13.020  0.00  0.00    +0.000 C 
ATOM      9  C   UNL     1      42.766   4.960  11.854  0.00  0.00    +0.000 C 
ATOM     10  N   UNL     1      42.798   3.600  11.269  0.00  0.00    +0.000 NA
ATOM     11  C   UNL     1      44.200   3.218  11.004  0.00  0.00    +0.000 C 
ATOM     12  C   UNL     1      45.047   3.269  12.286  0.00  0.00    +0.000 C 
ATOM     13  H   UNL     1      42.420   2.949  11.956  0.00  0.00    +0.000 HD
ENDBRANCH   5   7
BRANCH   1  14
ATOM     14  C   UNL     1      48.615   7.967  11.642  0.00  0.00    +0.000 C 
BRANCH  14  15
ATOM     15  C   UNL     1      48.444   9.389  12.199  0.00  0.00    +0.000 C 
BRANCH  15  20
ATOM     16  C   UNL     1      44.847  10.695  11.728  0.00  0.00    +0.000 A 
ATOM     17  C   UNL     1      45.194  11.897  11.111  0.00  0.00    +0.000 A 
ATOM     18  N   UNL     1      46.453  12.250  10.771  0.00  0.00    +0.000 NA
ATOM     19  C   UNL     1      47.428  11.387  11.124  0.00  0.00    +0.000 A 
ATOM     20  C   UNL     1      47.223  10.185  11.804  0.00  0.00    +0.000 A 
ATOM     21  C   UNL     1      45.900   9.859  12.120  0.00  0.00    +0.000 A 
BRANCH  16  22
ATOM     22  N   UNL     1      43.538  10.451  12.161  0.00  0.00    +0.000 N 
ATOM     23  H   UNL     1      43.314  10.878  13.053  0.00  0.00    +0.000 HD
ATOM     24  H   UNL     1      42.826  10.638  11.461  0.00  0.00    +0.000 HD
ENDBRANCH  16  22
ENDBRANCH  15  20
ENDBRANCH  14  15
ENDBRANCH   1  14
TORSDOF 5
ENDMDL
MODEL 8
REMARK VINA RESULT:    -6.329      1.655      6.926
REMARK INTER + INTRA:          -8.585
REMARK INTER:                  -7.961
REMARK INTRA:                  -0.624
REMARK UNBOUND:                -0.591
REMARK  Name = 
REMARK  5 active torsions:
REMARK  status: ('A' for Active; 'I' for Inactive)
REMARK    1  A    between atoms: N_1  and  C_2
REMARK    2  A    between atoms: C_6  and  C_7
REMARK    3  A    between atoms: C_7  and  C_8
REMARK    4  A    between atoms: C_8  and  C_9
REMARK    5  A    between atoms: C_13  and  N_14
REMARK                            x       y       z     vdW  Elec       q    Type
REMARK                         _______ _______ _______ _____ _____    ______ ____
ROOT
ATOM      1  C   UNL     1      44.802   4.510   9.903  0.00  0.00    +0.000 A 
ATOM      2  C   UNL     1      43.921   3.540  10.371  0.00  0.00    +0.000 A 
ATOM      3  N   UNL     1      43.941   2.246   9.991  0.00  0.00    +0.000 NA
ATOM      4  C   UNL     1      44.867   1.904   9.062  0.00  0.00    +0.000 A 
ATOM      5  C   UNL     1      45.797   2.768   8.484  0.00  0.00    +0.000 A 
ATOM      6  C   UNL     1      45.741   4.095   8.947  0.00  0.00    +0.000 A 
ENDROOT
BRANCH   5   7
ATOM      7  N   UNL     1      46.687   2.380   7.505  0.00  0.00    +0.000 N 
ATOM      8  C   UNL     1      47.212   1.010   7.401  0.00  0.00    +0.000 C 
ATOM      9  C   UNL     1      47.321   0.560   5.911  0.00  0.00    +0.000 C 
ATOM     10  N   UNL     1      47.814   1.562   4.938  0.00  0.00    +0.000 NA
ATOM     11  C   UNL     1      47.102   2.838   5.152  0.00  0.00    +0.000 C 
ATOM     12  C   UNL     1      47.289   3.350   6.589  0.00  0.00    +0.000 C 
ATOM     13  H   UNL     1      48.804   1.722   5.119  0.00  0.00    +0.000 HD
ENDBRANCH   5   7
BRANCH   1  14
ATOM     14  C   UNL     1      44.694   5.959  10.332  0.00  0.00    +0.000 C 
BRANCH  14  15
ATOM     15  C   UNL     1      44.407   6.123  11.832  0.00  0.00    +0.000 C 
BRANCH  15  20
ATOM     16  C   UNL     1      46.814   4.727  14.502  0.00  0.00    +0.000 A 
ATOM     17  C   UNL     1      47.774   5.733  14.391  0.00  0.00    +0.000 A 
ATOM     18  N   UNL     1      47.651   6.829  13.611  0.00  0.00    +0.000 NA
ATOM     19  C   UNL     1      46.540   6.895  12.850  0.00  0.00    +0.000 A 
ATOM     20  C   UNL     1      45.535   5.926  12.816  0.00  0.00    +0.000 A 
ATOM     21  C   UNL     1      45.703   4.817  13.653  0.00  0.00    +0.000 A 
BRANCH  16  22
ATOM     22  N   UNL     1      47.063   3.562  15.236  0.00  0.00    +0.000 N 
ATOM     23  H   UNL     1      46.443   3.436  16.030  0.00  0.00    +0.000 HD
ATOM     24  H   UNL     1      47.132   2.720  14.672  0.00  0.00    +0.000 HD
ENDBRANCH  16  22
ENDBRANCH  15  20
ENDBRANCH  14  15
ENDBRANCH   1  14
TORSDOF 5
ENDMDL
MODEL 9
REMARK VINA RESULT:    -6.094      3.082      7.442
REMARK INTER + INTRA:          -8.287
REMARK INTER:                  -7.793
REMARK INTRA:                  -0.494
REMARK UNBOUND:                -0.591
REMARK  Name = 
REMARK  5 active torsions:
REMARK  status: ('A' for Active; 'I' for Inactive)
REMARK    1  A    between atoms: N_1  and  C_2
REMARK    2  A    between atoms: C_6  and  C_7
REMARK    3  A    between atoms: C_7  and  C_8
REMARK    4  A    between atoms: C_8  and  C_9
REMARK    5  A    between atoms: C_13  and  N_14
REMARK                            x       y       z     vdW  Elec       q    Type
REMARK                         _______ _______ _______ _____ _____    ______ ____
ROOT
ATOM      1  C   UNL     1      47.177   6.861  13.079  0.00  0.00    +0.000 A 
ATOM      2  C   UNL     1      46.651   8.131  12.868  0.00  0.00    +0.000 A 
ATOM      3  N   UNL     1      45.485   8.377  12.236  0.00  0.00    +0.000 NA
ATOM      4  C   UNL     1      44.822   7.300  11.751  0.00  0.00    +0.000 A 
ATOM      5  C   UNL     1      45.236   5.972  11.864  0.00  0.00    +0.000 A 
ATOM      6  C   UNL     1      46.444   5.784  12.560  0.00  0.00    +0.000 A 
ENDROOT
BRANCH   5   7
ATOM      7  N   UNL     1      44.549   4.913  11.309  0.00  0.00    +0.000 N 
ATOM      8  C   UNL     1      44.832   4.395   9.961  0.00  0.00    +0.000 C 
ATOM      9  C   UNL     1      44.742   2.838   9.925  0.00  0.00    +0.000 C 
ATOM     10  N   UNL     1      43.638   2.209  10.687  0.00  0.00    +0.000 NA
ATOM     11  C   UNL     1      43.578   2.805  12.037  0.00  0.00    +0.000 C 
ATOM     12  C   UNL     1      43.381   4.328  11.970  0.00  0.00    +0.000 C 
ATOM     13  H   UNL     1      42.761   2.421  10.212  0.00  0.00    +0.000 HD
ENDBRANCH   5   7
BRANCH   1  14
ATOM     14  C   UNL     1      48.518   6.655  13.753  0.00  0.00    +0.000 C 
BRANCH  14  15
ATOM     15  C   UNL     1      48.441   6.739  15.286  0.00  0.00    +0.000 C 
BRANCH  15  20
ATOM     16  C   UNL     1      49.162   3.914  17.809  0.00  0.00    +0.000 A 
ATOM     17  C   UNL     1      48.045   3.138  17.502  0.00  0.00    +0.000 A 
ATOM     18  N   UNL     1      47.168   3.413  16.512  0.00  0.00    +0.000 NA
ATOM     19  C   UNL     1      47.378   4.560  15.834  0.00  0.00    +0.000 A 
ATOM     20  C   UNL     1      48.416   5.459  16.085  0.00  0.00    +0.000 A 
ATOM     21  C   UNL     1      49.306   5.120  17.110  0.00  0.00    +0.000 A 
BRANCH  16  22
ATOM     22  N   UNL     1      49.959   3.633  18.926  0.00  0.00    +0.000 N 
ATOM     23  H   UNL     1      50.292   2.676  18.961  0.00  0.00    +0.000 HD
ATOM     24  H   UNL     1      50.707   4.302  19.084  0.00  0.00    +0.000 HD
ENDBRANCH  16  22
ENDBRANCH  15  20
ENDBRANCH  14  15
ENDBRANCH   1  14
TORSDOF 5
ENDMDL
