MODEL 1
REMARK VINA RESULT:    -6.690      0.000      0.000
REMARK INTER + INTRA:         -10.795
REMARK INTER:                  -9.819
REMARK INTRA:                  -0.975
REMARK UNBOUND:                -0.975
REMARK  Name = 
REMARK  12 active torsions:
REMARK  status: ('A' for Active; 'I' for Inactive)
REMARK    1  A    between atoms: C_1  and  S_2
REMARK    2  A    between atoms: S_2  and  C_3
REMARK    3  A    between atoms: C_5  and  C_6
REMARK    4  A    between atoms: C_11  and  N_12
REMARK    5  A    between atoms: N_12  and  C_13
REMARK    6  A    between atoms: C_13  and  C_14
REMARK    7  A    between atoms: C_14  and  C_15
REMARK    8  A    between atoms: C_14  and  C_16
REMARK    9  A    between atoms: C_18  and  C_19
REMARK   10  A    between atoms: C_20  and  O_21
REMARK   11  A    between atoms: O_21  and  C_22
REMARK   12  A    between atoms: C_26  and  C_27
REMARK                            x       y       z     vdW  Elec       q    Type
REMARK                         _______ _______ _______ _____ _____    ______ ____
ROOT
ATOM      1  C   UNL     1      44.158   6.272  11.555  0.00  0.00    +0.000 C 
ENDROOT
BRANCH   1   2
ATOM      2  N   UNL     1      43.818   5.611  10.288  0.00  0.00    +0.000 N 
ATOM      3  H   UNL     1      43.579   6.279   9.553  0.00  0.00    +0.000 HD
BRANCH   2   9
ATOM      4  C   UNL     1      44.384   3.151  10.128  0.00  0.00    +0.000 A 
ATOM      5  C   UNL     1      45.098   2.157   9.424  0.00  0.00    +0.000 A 
ATOM      6  C   UNL     1      45.949   2.468   8.358  0.00  0.00    +0.000 A 
ATOM      7  C   UNL     1      46.103   3.803   8.002  0.00  0.00    +0.000 A 
ATOM      8  C   UNL     1      45.400   4.799   8.697  0.00  0.00    +0.000 A 
ATOM      9  C   UNL     1      44.533   4.513   9.780  0.00  0.00    +0.000 A 
BRANCH   6  10
ATOM     10  C   UNL     1      46.620   1.329   7.664  0.00  0.00    +0.000 C 
ATOM     11  N   UNL     1      47.418   1.592   6.584  0.00  0.00    +0.000 N 
ATOM     12  O   UNL     1      46.463   0.174   8.032  0.00  0.00    +0.000 OA
ATOM     13  H   UNL     1      47.585   2.502   6.186  0.00  0.00    +0.000 HD
ATOM     14  H   UNL     1      47.834   0.793   6.131  0.00  0.00    +0.000 HD
ENDBRANCH   6  10
BRANCH   4  16
ATOM     15  C   UNL     1      44.317   3.101  12.859  0.00  0.00    +0.000 C 
ATOM     16  S   UNL     1      43.363   2.488  11.452  0.00  0.00    +0.000 S 
ENDBRANCH   4  16
ENDBRANCH   2   9
ENDBRANCH   1   2
BRANCH   1  17
ATOM     17  C   UNL     1      45.408   7.185  11.450  0.00  0.00    +0.000 C 
ATOM     18  C   UNL     1      44.969   8.641  11.654  0.00  0.00    +0.000 C 
BRANCH  17  19
ATOM     19  C   UNL     1      46.559   6.817  12.380  0.00  0.00    +0.000 A 
ATOM     20  C   UNL     1      47.721   7.587  12.454  0.00  0.00    +0.000 A 
ATOM     21  C   UNL     1      48.640   7.479  13.512  0.00  0.00    +0.000 A 
ATOM     22  C   UNL     1      49.637   8.599  13.577  0.00  0.00    +0.000 C 
ATOM     23  C   UNL     1      48.494   6.418  14.416  0.00  0.00    +0.000 A 
ATOM     24  C   UNL     1      47.397   5.533  14.274  0.00  0.00    +0.000 A 
ATOM     25  C   UNL     1      47.175   4.357  15.192  0.00  0.00    +0.000 C 
ATOM     26  C   UNL     1      46.426   5.764  13.284  0.00  0.00    +0.000 A 
BRANCH  23  27
ATOM     27  O   UNL     1      49.279   6.119  15.501  0.00  0.00    +0.000 OA
BRANCH  27  28
ATOM     28  C   UNL     1      49.204   6.808  16.761  0.00  0.00    +0.000 C 
ATOM     29  C   UNL     1      50.567   7.330  17.263  0.00  0.00    +0.000 C 
ATOM     30  N   UNL     1      50.480   6.496  18.463  0.00  0.00    +0.000 NA
ATOM     31  C   UNL     1      49.191   5.950  18.041  0.00  0.00    +0.000 C 
ATOM     32  H   UNL     1      50.445   7.018  19.337  0.00  0.00    +0.000 HD
ENDBRANCH  27  28
ENDBRANCH  23  27
ENDBRANCH  17  19
ENDBRANCH   1  17
TORSDOF 8
ENDMDL
MODEL 2
REMARK VINA RESULT:    -6.274      3.537      8.193
REMARK INTER + INTRA:         -10.184
REMARK INTER:                  -8.644
REMARK INTRA:                  -1.540
REMARK UNBOUND:                -0.975
REMARK  Name = 
REMARK  12 active torsions:
REMARK  status: ('A' for Active; 'I' for Inactive)
REMARK    1  A    between atoms: C_1  and  S_2
REMARK    2  A    between atoms: S_2  and  C_3
REMARK    3  A    between atoms: C_5  and  C_6
REMARK    4  A    between atoms: C_11  and  N_12
REMARK    5  A    between atoms: N_12  and  C_13
REMARK    6  A    between atoms: C_13  and  C_14
REMARK    7  A    between atoms: C_14  and  C_15
REMARK    8  A    between atoms: C_14  and  C_16
REMARK    9  A    between atoms: C_18  and  C_19
REMARK   10  A    between atoms: C_20  and  O_21
REMARK   11  A    between atoms: O_21  and  C_22
REMARK   12  A    between atoms: C_26  and  C_27
REMARK                            x       y       z     vdW  Elec       q    Type
REMARK                         _______ _______ _______ _____ _____    ______ ____
ROOT
ATOM      1  C   UNL     1      50.226   7.927  13.349  0.00  0.00    +0.000 C 
ENDROOT
BRANCH   1   2
ATOM      2  N   UNL     1      50.613   8.357  14.699  0.00  0.00    +0.000 N 
ATOM      3  H   UNL     1      50.817   9.356  14.746  0.00  0.00    +0.000 HD
BRANCH   2   9
ATOM      4  C   UNL     1      49.126   8.641  16.726  0.00  0.00    +0.000 A 
ATOM      5  C   UNL     1      48.454   7.993  17.786  0.00  0.00    +0.000 A 
ATOM      6  C   UNL     1      48.572   6.618  18.010  0.00  0.00    +0.000 A 
ATOM      7  C   UNL     1      49.394   5.878  17.167  0.00  0.00    +0.000 A 
ATOM      8  C   UNL     1      50.069   6.513  16.111  0.00  0.00    +0.000 A 
ATOM      9  C   UNL     1      49.968   7.903  15.863  0.00  0.00    +0.000 A 
BRANCH   6  10
ATOM     10  C   UNL     1      47.783   6.038  19.136  0.00  0.00    +0.000 C 
ATOM     11  N   UNL     1      46.557   5.491  18.871  0.00  0.00    +0.000 N 
ATOM     12  O   UNL     1      48.203   6.050  20.284  0.00  0.00    +0.000 OA
ATOM     13  H   UNL     1      46.112   5.461  17.968  0.00  0.00    +0.000 HD
ATOM     14  H   UNL     1      46.048   5.131  19.663  0.00  0.00    +0.000 HD
ENDBRANCH   6  10
BRANCH   4  16
ATOM     15  C   UNL     1      47.710  10.539  18.090  0.00  0.00    +0.000 C 
ATOM     16  S   UNL     1      48.808  10.410  16.660  0.00  0.00    +0.000 S 
ENDBRANCH   4  16
ENDBRANCH   2   9
ENDBRANCH   1   2
BRANCH   1  17
ATOM     17  C   UNL     1      48.801   8.393  12.947  0.00  0.00    +0.000 C 
ATOM     18  C   UNL     1      48.894   9.157  11.620  0.00  0.00    +0.000 C 
BRANCH  17  19
ATOM     19  C   UNL     1      47.754   7.287  12.879  0.00  0.00    +0.000 A 
ATOM     20  C   UNL     1      46.950   7.103  11.752  0.00  0.00    +0.000 A 
ATOM     21  C   UNL     1      46.225   5.922  11.519  0.00  0.00    +0.000 A 
ATOM     22  C   UNL     1      45.692   5.793  10.122  0.00  0.00    +0.000 C 
ATOM     23  C   UNL     1      46.139   4.977  12.551  0.00  0.00    +0.000 A 
ATOM     24  C   UNL     1      46.833   5.212  13.764  0.00  0.00    +0.000 A 
ATOM     25  C   UNL     1      46.781   4.256  14.930  0.00  0.00    +0.000 C 
ATOM     26  C   UNL     1      47.659   6.342  13.899  0.00  0.00    +0.000 A 
BRANCH  23  27
ATOM     27  O   UNL     1      45.478   3.775  12.542  0.00  0.00    +0.000 OA
BRANCH  27  28
ATOM     28  C   UNL     1      44.064   3.635  12.765  0.00  0.00    +0.000 C 
ATOM     29  C   UNL     1      43.251   3.432  11.469  0.00  0.00    +0.000 C 
ATOM     30  N   UNL     1      42.498   4.664  11.709  0.00  0.00    +0.000 NA
ATOM     31  C   UNL     1      43.241   4.926  12.942  0.00  0.00    +0.000 C 
ATOM     32  H   UNL     1      41.499   4.528  11.846  0.00  0.00    +0.000 HD
ENDBRANCH  27  28
ENDBRANCH  23  27
ENDBRANCH  17  19
ENDBRANCH   1  17
TORSDOF 8
ENDMDL
MODEL 3
REMARK VINA RESULT:    -6.255      3.564      8.258
REMARK INTER + INTRA:         -10.156
REMARK INTER:                  -8.586
REMARK INTRA:                  -1.569
REMARK UNBOUND:                -0.975
REMARK  Name = 
REMARK  12 active torsions:
REMARK  status: ('A' for Active; 'I' for Inactive)
REMARK    1  A    between atoms: C_1  and  S_2
REMARK    2  A    between atoms: S_2  and  C_3
REMARK    3  A    between atoms: C_5  and  C_6
REMARK    4  A    between atoms: C_11  and  N_12
REMARK    5  A    between atoms: N_12  and  C_13
REMARK    6  A    between atoms: C_13  and  C_14
REMARK    7  A    between atoms: C_14  and  C_15
REMARK    8  A    between atoms: C_14  and  C_16
REMARK    9  A    between atoms: C_18  and  C_19
REMARK   10  A    between atoms: C_20  and  O_21
REMARK   11  A    between atoms: O_21  and  C_22
REMARK   12  A    between atoms: C_26  and  C_27
REMARK                            x       y       z     vdW  Elec       q    Type
REMARK                         _______ _______ _______ _____ _____    ______ ____
ROOT
ATOM      1  C   UNL     1      50.583   8.159  13.843  0.00  0.00    +0.000 C 
ENDROOT
BRANCH   1   2
ATOM      2  N   UNL     1      49.942   8.729  15.036  0.00  0.00    +0.000 N 
ATOM      3  H   UNL     1      49.261   9.453  14.803  0.00  0.00    +0.000 HD
BRANCH   2   9
ATOM      4  C   UNL     1      48.687   8.343  17.199  0.00  0.00    +0.000 A 
ATOM      5  C   UNL     1      48.255   7.392  18.148  0.00  0.00    +0.000 A 
ATOM      6  C   UNL     1      48.606   6.041  18.058  0.00  0.00    +0.000 A 
ATOM      7  C   UNL     1      49.421   5.637  17.007  0.00  0.00    +0.000 A 
ATOM      8  C   UNL     1      49.859   6.575  16.059  0.00  0.00    +0.000 A 
ATOM      9  C   UNL     1      49.520   7.948  16.127  0.00  0.00    +0.000 A 
BRANCH   6  10
ATOM     10  C   UNL     1      48.056   5.121  19.098  0.00  0.00    +0.000 C 
ATOM     11  N   UNL     1      46.989   5.535  19.848  0.00  0.00    +0.000 N 
ATOM     12  O   UNL     1      48.542   4.018  19.297  0.00  0.00    +0.000 OA
ATOM     13  H   UNL     1      46.539   6.434  19.782  0.00  0.00    +0.000 HD
ATOM     14  H   UNL     1      46.663   4.893  20.554  0.00  0.00    +0.000 HD
ENDBRANCH   6  10
BRANCH   4  16
ATOM     15  C   UNL     1      47.292   9.685  19.128  0.00  0.00    +0.000 C 
ATOM     16  S   UNL     1      48.099  10.008  17.544  0.00  0.00    +0.000 S 
ENDBRANCH   4  16
ENDBRANCH   2   9
ENDBRANCH   1   2
BRANCH   1  17
ATOM     17  C   UNL     1      49.760   8.381  12.546  0.00  0.00    +0.000 C 
ATOM     18  C   UNL     1      50.625   7.976  11.345  0.00  0.00    +0.000 C 
BRANCH  17  19
ATOM     19  C   UNL     1      48.404   7.686  12.513  0.00  0.00    +0.000 A 
ATOM     20  C   UNL     1      48.226   6.394  13.015  0.00  0.00    +0.000 A 
ATOM     21  C   UNL     1      46.960   5.857  13.304  0.00  0.00    +0.000 A 
ATOM     22  C   UNL     1      46.997   4.603  14.126  0.00  0.00    +0.000 C 
ATOM     23  C   UNL     1      45.825   6.562  12.879  0.00  0.00    +0.000 A 
ATOM     24  C   UNL     1      45.987   7.813  12.235  0.00  0.00    +0.000 A 
ATOM     25  C   UNL     1      44.821   8.628  11.732  0.00  0.00    +0.000 C 
ATOM     26  C   UNL     1      47.268   8.375  12.093  0.00  0.00    +0.000 A 
BRANCH  23  27
ATOM     27  O   UNL     1      44.507   6.216  13.042  0.00  0.00    +0.000 OA
BRANCH  27  28
ATOM     28  C   UNL     1      43.859   5.158  12.314  0.00  0.00    +0.000 C 
ATOM     29  C   UNL     1      44.506   4.864  10.943  0.00  0.00    +0.000 C 
ATOM     30  N   UNL     1      43.266   5.210  10.247  0.00  0.00    +0.000 NA
ATOM     31  C   UNL     1      42.595   5.519  11.509  0.00  0.00    +0.000 C 
ATOM     32  H   UNL     1      42.845   4.441   9.729  0.00  0.00    +0.000 HD
ENDBRANCH  27  28
ENDBRANCH  23  27
ENDBRANCH  17  19
ENDBRANCH   1  17
TORSDOF 8
ENDMDL
MODEL 4
REMARK VINA RESULT:    -6.150      2.865      4.938
REMARK INTER + INTRA:         -10.001
REMARK INTER:                  -8.899
REMARK INTRA:                  -1.102
REMARK UNBOUND:                -0.975
REMARK  Name = 
REMARK  12 active torsions:
REMARK  status: ('A' for Active; 'I' for Inactive)
REMARK    1  A    between atoms: C_1  and  S_2
REMARK    2  A    between atoms: S_2  and  C_3
REMARK    3  A    between atoms: C_5  and  C_6
REMARK    4  A    between atoms: C_11  and  N_12
REMARK    5  A    between atoms: N_12  and  C_13
REMARK    6  A    between atoms: C_13  and  C_14
REMARK    7  A    between atoms: C_14  and  C_15
REMARK    8  A    between atoms: C_14  and  C_16
REMARK    9  A    between atoms: C_18  and  C_19
REMARK   10  A    between atoms: C_20  and  O_21
REMARK   11  A    between atoms: O_21  and  C_22
REMARK   12  A    between atoms: C_26  and  C_27
REMARK                            x       y       z     vdW  Elec       q    Type
REMARK                         _______ _______ _______ _____ _____    ______ ____
ROOT
ATOM      1  C   UNL     1      47.335   4.070  15.257  0.00  0.00    +0.000 C 
ENDROOT
BRANCH   1   2
ATOM      2  N   UNL     1      46.115   4.698  14.733  0.00  0.00    +0.000 N 
ATOM      3  H   UNL     1      45.860   5.542  15.249  0.00  0.00    +0.000 HD
BRANCH   2   9
ATOM      4  C   UNL     1      46.205   5.899  12.508  0.00  0.00    +0.000 A 
ATOM      5  C   UNL     1      45.969   5.809  11.119  0.00  0.00    +0.000 A 
ATOM      6  C   UNL     1      45.404   4.672  10.533  0.00  0.00    +0.000 A 
ATOM      7  C   UNL     1      45.050   3.609  11.357  0.00  0.00    +0.000 A 
ATOM      8  C   UNL     1      45.278   3.689  12.740  0.00  0.00    +0.000 A 
ATOM      9  C   UNL     1      45.848   4.828  13.359  0.00  0.00    +0.000 A 
BRANCH   6  10
ATOM     10  C   UNL     1      45.239   4.677   9.050  0.00  0.00    +0.000 C 
ATOM     11  N   UNL     1      44.050   4.259   8.516  0.00  0.00    +0.000 N 
ATOM     12  O   UNL     1      46.141   5.034   8.307  0.00  0.00    +0.000 OA
ATOM     13  H   UNL     1      43.260   3.918   9.040  0.00  0.00    +0.000 HD
ATOM     14  H   UNL     1      43.988   4.257   7.510  0.00  0.00    +0.000 HD
ENDBRANCH   6  10
BRANCH   4  16
ATOM     15  C   UNL     1      48.644   6.909  13.214  0.00  0.00    +0.000 C 
ATOM     16  S   UNL     1      46.937   7.465  13.004  0.00  0.00    +0.000 S 
ENDBRANCH   4  16
ENDBRANCH   2   9
ENDBRANCH   1   2
BRANCH   1  17
ATOM     17  C   UNL     1      47.423   4.110  16.806  0.00  0.00    +0.000 C 
ATOM     18  C   UNL     1      48.005   2.778  17.297  0.00  0.00    +0.000 C 
BRANCH  17  19
ATOM     19  C   UNL     1      48.191   5.296  17.380  0.00  0.00    +0.000 A 
ATOM     20  C   UNL     1      49.397   5.730  16.825  0.00  0.00    +0.000 A 
ATOM     21  C   UNL     1      49.954   6.990  17.104  0.00  0.00    +0.000 A 
ATOM     22  C   UNL     1      51.062   7.392  16.176  0.00  0.00    +0.000 C 
ATOM     23  C   UNL     1      49.389   7.755  18.135  0.00  0.00    +0.000 A 
ATOM     24  C   UNL     1      48.245   7.265  18.813  0.00  0.00    +0.000 A 
ATOM     25  C   UNL     1      47.586   8.015  19.944  0.00  0.00    +0.000 C 
ATOM     26  C   UNL     1      47.641   6.064  18.404  0.00  0.00    +0.000 A 
BRANCH  23  27
ATOM     27  O   UNL     1      49.780   8.992  18.579  0.00  0.00    +0.000 OA
BRANCH  27  28
ATOM     28  C   UNL     1      49.604  10.207  17.829  0.00  0.00    +0.000 C 
ATOM     29  C   UNL     1      48.799  11.288  18.583  0.00  0.00    +0.000 C 
ATOM     30  N   UNL     1      47.760  11.278  17.552  0.00  0.00    +0.000 NA
ATOM     31  C   UNL     1      48.462  10.244  16.794  0.00  0.00    +0.000 C 
ATOM     32  H   UNL     1      47.652  12.160  17.054  0.00  0.00    +0.000 HD
ENDBRANCH  27  28
ENDBRANCH  23  27
ENDBRANCH  17  19
ENDBRANCH   1  17
TORSDOF 8
ENDMDL
MODEL 5
REMARK VINA RESULT:    -6.144      2.962      8.066
REMARK INTER + INTRA:          -9.993
REMARK INTER:                  -9.009
REMARK INTRA:                  -0.984
REMARK UNBOUND:                -0.975
REMARK  Name = 
REMARK  12 active torsions:
REMARK  status: ('A' for Active; 'I' for Inactive)
REMARK    1  A    between atoms: C_1  and  S_2
REMARK    2  A    between atoms: S_2  and  C_3
REMARK    3  A    between atoms: C_5  and  C_6
REMARK    4  A    between atoms: C_11  and  N_12
REMARK    5  A    between atoms: N_12  and  C_13
REMARK    6  A    between atoms: C_13  and  C_14
REMARK    7  A    between atoms: C_14  and  C_15
REMARK    8  A    between atoms: C_14  and  C_16
REMARK    9  A    between atoms: C_18  and  C_19
REMARK   10  A    between atoms: C_20  and  O_21
REMARK   11  A    between atoms: O_21  and  C_22
REMARK   12  A    between atoms: C_26  and  C_27
REMARK                            x       y       z     vdW  Elec       q    Type
REMARK                         _______ _______ _______ _____ _____    ______ ____
ROOT
ATOM      1  C   UNL     1      49.763   7.699  15.500  0.00  0.00    +0.000 C 
ENDROOT
BRANCH   1   2
ATOM      2  N   UNL     1      49.600   7.128  16.843  0.00  0.00    +0.000 N 
ATOM      3  H   UNL     1      48.687   7.340  17.248  0.00  0.00    +0.000 HD
BRANCH   2   9
ATOM      4  C   UNL     1      49.238   4.680  17.370  0.00  0.00    +0.000 A 
ATOM      5  C   UNL     1      49.849   3.426  17.586  0.00  0.00    +0.000 A 
ATOM      6  C   UNL     1      51.238   3.270  17.603  0.00  0.00    +0.000 A 
ATOM      7  C   UNL     1      52.034   4.395  17.418  0.00  0.00    +0.000 A 
ATOM      8  C   UNL     1      51.436   5.648  17.205  0.00  0.00    +0.000 A 
ATOM      9  C   UNL     1      50.032   5.834  17.185  0.00  0.00    +0.000 A 
BRANCH   6  10
ATOM     10  C   UNL     1      51.769   1.888  17.800  0.00  0.00    +0.000 C 
ATOM     11  N   UNL     1      52.900   1.717  18.552  0.00  0.00    +0.000 N 
ATOM     12  O   UNL     1      51.224   0.916  17.299  0.00  0.00    +0.000 OA
ATOM     13  H   UNL     1      53.437   2.454  18.979  0.00  0.00    +0.000 HD
ATOM     14  H   UNL     1      53.236   0.771  18.641  0.00  0.00    +0.000 HD
ENDBRANCH   6  10
BRANCH   4  16
ATOM     15  C   UNL     1      47.155   5.587  18.890  0.00  0.00    +0.000 C 
ATOM     16  S   UNL     1      47.440   4.608  17.398  0.00  0.00    +0.000 S 
ENDBRANCH   4  16
ENDBRANCH   2   9
ENDBRANCH   1   2
BRANCH   1  17
ATOM     17  C   UNL     1      48.459   8.334  14.947  0.00  0.00    +0.000 C 
ATOM     18  C   UNL     1      48.804   9.693  14.323  0.00  0.00    +0.000 C 
BRANCH  17  19
ATOM     19  C   UNL     1      47.677   7.459  13.973  0.00  0.00    +0.000 A 
ATOM     20  C   UNL     1      47.808   6.069  13.963  0.00  0.00    +0.000 A 
ATOM     21  C   UNL     1      46.882   5.222  13.330  0.00  0.00    +0.000 A 
ATOM     22  C   UNL     1      47.019   3.775  13.703  0.00  0.00    +0.000 C 
ATOM     23  C   UNL     1      45.908   5.798  12.503  0.00  0.00    +0.000 A 
ATOM     24  C   UNL     1      45.847   7.208  12.384  0.00  0.00    +0.000 A 
ATOM     25  C   UNL     1      44.841   7.909  11.504  0.00  0.00    +0.000 C 
ATOM     26  C   UNL     1      46.705   8.020  13.146  0.00  0.00    +0.000 A 
BRANCH  23  27
ATOM     27  O   UNL     1      44.926   5.162  11.786  0.00  0.00    +0.000 OA
BRANCH  27  28
ATOM     28  C   UNL     1      45.179   4.117  10.831  0.00  0.00    +0.000 C 
ATOM     29  C   UNL     1      45.151   4.599   9.365  0.00  0.00    +0.000 C 
ATOM     30  N   UNL     1      44.033   3.705   9.058  0.00  0.00    +0.000 NA
ATOM     31  C   UNL     1      43.994   3.214  10.435  0.00  0.00    +0.000 C 
ATOM     32  H   UNL     1      44.244   2.989   8.366  0.00  0.00    +0.000 HD
ENDBRANCH  27  28
ENDBRANCH  23  27
ENDBRANCH  17  19
ENDBRANCH   1  17
TORSDOF 8
ENDMDL
MODEL 6
REMARK VINA RESULT:    -6.138      3.545      5.716
REMARK INTER + INTRA:          -9.983
REMARK INTER:                  -9.154
REMARK INTRA:                  -0.829
REMARK UNBOUND:                -0.975
REMARK  Name = 
REMARK  12 active torsions:
REMARK  status: ('A' for Active; 'I' for Inactive)
REMARK    1  A    between atoms: C_1  and  S_2
REMARK    2  A    between atoms: S_2  and  C_3
REMARK    3  A    between atoms: C_5  and  C_6
REMARK    4  A    between atoms: C_11  and  N_12
REMARK    5  A    between atoms: N_12  and  C_13
REMARK    6  A    between atoms: C_13  and  C_14
REMARK    7  A    between atoms: C_14  and  C_15
REMARK    8  A    between atoms: C_14  and  C_16
REMARK    9  A    between atoms: C_18  and  C_19
REMARK   10  A    between atoms: C_20  and  O_21
REMARK   11  A    between atoms: O_21  and  C_22
REMARK   12  A    between atoms: C_26  and  C_27
REMARK                            x       y       z     vdW  Elec       q    Type
REMARK                         _______ _______ _______ _____ _____    ______ ____
ROOT
ATOM      1  C   UNL     1      47.611   4.031  15.284  0.00  0.00    +0.000 C 
ENDROOT
BRANCH   1   2
ATOM      2  N   UNL     1      46.363   4.668  14.841  0.00  0.00    +0.000 N 
ATOM      3  H   UNL     1      46.136   5.499  15.388  0.00  0.00    +0.000 HD
BRANCH   2   9
ATOM      4  C   UNL     1      46.335   5.916  12.640  0.00  0.00    +0.000 A 
ATOM      5  C   UNL     1      46.023   5.857  11.265  0.00  0.00    +0.000 A 
ATOM      6  C   UNL     1      45.425   4.733  10.686  0.00  0.00    +0.000 A 
ATOM      7  C   UNL     1      45.115   3.652  11.505  0.00  0.00    +0.000 A 
ATOM      8  C   UNL     1      45.418   3.702  12.875  0.00  0.00    +0.000 A 
ATOM      9  C   UNL     1      46.022   4.827  13.486  0.00  0.00    +0.000 A 
BRANCH   6  10
ATOM     10  C   UNL     1      45.180   4.770   9.214  0.00  0.00    +0.000 C 
ATOM     11  N   UNL     1      43.973   4.339   8.735  0.00  0.00    +0.000 N 
ATOM     12  O   UNL     1      46.034   5.165   8.433  0.00  0.00    +0.000 OA
ATOM     13  H   UNL     1      43.220   3.968   9.291  0.00  0.00    +0.000 HD
ATOM     14  H   UNL     1      43.857   4.360   7.733  0.00  0.00    +0.000 HD
ENDBRANCH   6  10
BRANCH   4  16
ATOM     15  C   UNL     1      48.496   7.455  11.987  0.00  0.00    +0.000 C 
ATOM     16  S   UNL     1      47.096   7.471  13.130  0.00  0.00    +0.000 S 
ENDBRANCH   4  16
ENDBRANCH   2   9
ENDBRANCH   1   2
BRANCH   1  17
ATOM     17  C   UNL     1      47.818   4.102  16.820  0.00  0.00    +0.000 C 
ATOM     18  C   UNL     1      46.935   3.036  17.482  0.00  0.00    +0.000 C 
BRANCH  17  19
ATOM     19  C   UNL     1      49.266   3.990  17.284  0.00  0.00    +0.000 A 
ATOM     20  C   UNL     1      49.876   2.752  17.499  0.00  0.00    +0.000 A 
ATOM     21  C   UNL     1      51.269   2.597  17.600  0.00  0.00    +0.000 A 
ATOM     22  C   UNL     1      51.738   1.175  17.505  0.00  0.00    +0.000 C 
ATOM     23  C   UNL     1      52.063   3.748  17.696  0.00  0.00    +0.000 A 
ATOM     24  C   UNL     1      51.446   5.022  17.625  0.00  0.00    +0.000 A 
ATOM     25  C   UNL     1      52.223   6.311  17.736  0.00  0.00    +0.000 C 
ATOM     26  C   UNL     1      50.066   5.127  17.384  0.00  0.00    +0.000 A 
BRANCH  23  27
ATOM     27  O   UNL     1      53.428   3.825  17.815  0.00  0.00    +0.000 OA
BRANCH  27  28
ATOM     28  C   UNL     1      54.152   3.455  19.001  0.00  0.00    +0.000 C 
ATOM     29  C   UNL     1      53.399   3.772  20.310  0.00  0.00    +0.000 C 
ATOM     30  N   UNL     1      54.462   4.681  20.740  0.00  0.00    +0.000 NA
ATOM     31  C   UNL     1      55.223   4.437  19.515  0.00  0.00    +0.000 C 
ATOM     32  H   UNL     1      54.942   4.395  21.592  0.00  0.00    +0.000 HD
ENDBRANCH  27  28
ENDBRANCH  23  27
ENDBRANCH  17  19
ENDBRANCH   1  17
TORSDOF 8
ENDMDL
MODEL 7
REMARK VINA RESULT:    -6.134      3.424      8.379
REMARK INTER + INTRA:          -9.978
REMARK INTER:                  -8.664
REMARK INTRA:                  -1.315
REMARK UNBOUND:                -0.975
REMARK  Name = 
REMARK  12 active torsions:
REMARK  status: ('A' for Active; 'I' for Inactive)
REMARK    1  A    between atoms: C_1  and  S_2
REMARK    2  A    between atoms: S_2  and  C_3
REMARK    3  A    between atoms: C_5  and  C_6
REMARK    4  A    between atoms: C_11  and  N_12
REMARK    5  A    between atoms: N_12  and  C_13
REMARK    6  A    between atoms: C_13  and  C_14
REMARK    7  A    between atoms: C_14  and  C_15
REMARK    8  A    between atoms: C_14  and  C_16
REMARK    9  A    between atoms: C_18  and  C_19
REMARK   10  A    between atoms: C_20  and  O_21
REMARK   11  A    between atoms: O_21  and  C_22
REMARK   12  A    between atoms: C_26  and  C_27
REMARK                            x       y       z     vdW  Elec       q    Type
REMARK                         _______ _______ _______ _____ _____    ______ ____
ROOT
ATOM      1  C   UNL     1      49.261   8.385  14.192  0.00  0.00    +0.000 C 
ENDROOT
BRANCH   1   2
ATOM      2  N   UNL     1      50.268   7.427  14.667  0.00  0.00    +0.000 N 
ATOM      3  H   UNL     1      51.213   7.813  14.643  0.00  0.00    +0.000 HD
BRANCH   2   9
ATOM      4  C   UNL     1      51.042   6.166  16.719  0.00  0.00    +0.000 A 
ATOM      5  C   UNL     1      50.649   5.439  17.864  0.00  0.00    +0.000 A 
ATOM      6  C   UNL     1      49.309   5.141  18.131  0.00  0.00    +0.000 A 
ATOM      7  C   UNL     1      48.343   5.565  17.225  0.00  0.00    +0.000 A 
ATOM      8  C   UNL     1      48.723   6.287  16.082  0.00  0.00    +0.000 A 
ATOM      9  C   UNL     1      50.072   6.600  15.787  0.00  0.00    +0.000 A 
BRANCH   6  10
ATOM     10  C   UNL     1      49.011   4.401  19.393  0.00  0.00    +0.000 C 
ATOM     11  N   UNL     1      48.384   3.188  19.314  0.00  0.00    +0.000 N 
ATOM     12  O   UNL     1      49.305   4.859  20.488  0.00  0.00    +0.000 OA
ATOM     13  H   UNL     1      48.074   2.742  18.466  0.00  0.00    +0.000 HD
ATOM     14  H   UNL     1      48.182   2.732  20.191  0.00  0.00    +0.000 HD
ENDBRANCH   6  10
BRANCH   4  16
ATOM     15  C   UNL     1      53.351   4.940  17.516  0.00  0.00    +0.000 C 
ATOM     16  S   UNL     1      52.820   6.411  16.610  0.00  0.00    +0.000 S 
ENDBRANCH   4  16
ENDBRANCH   2   9
ENDBRANCH   1   2
BRANCH   1  17
ATOM     17  C   UNL     1      48.900   8.195  12.695  0.00  0.00    +0.000 C 
ATOM     18  C   UNL     1      50.122   7.620  11.967  0.00  0.00    +0.000 C 
BRANCH  17  19
ATOM     19  C   UNL     1      47.653   7.358  12.431  0.00  0.00    +0.000 A 
ATOM     20  C   UNL     1      47.588   6.005  12.773  0.00  0.00    +0.000 A 
ATOM     21  C   UNL     1      46.377   5.298  12.854  0.00  0.00    +0.000 A 
ATOM     22  C   UNL     1      46.486   3.968  13.542  0.00  0.00    +0.000 C 
ATOM     23  C   UNL     1      45.212   5.912  12.373  0.00  0.00    +0.000 A 
ATOM     24  C   UNL     1      45.282   7.241  11.884  0.00  0.00    +0.000 A 
ATOM     25  C   UNL     1      44.081   7.970  11.334  0.00  0.00    +0.000 C 
ATOM     26  C   UNL     1      46.489   7.957  11.953  0.00  0.00    +0.000 A 
BRANCH  23  27
ATOM     27  O   UNL     1      43.939   5.402  12.343  0.00  0.00    +0.000 OA
BRANCH  27  28
ATOM     28  C   UNL     1      43.454   4.516  11.319  0.00  0.00    +0.000 C 
ATOM     29  C   UNL     1      43.403   3.036  11.756  0.00  0.00    +0.000 C 
ATOM     30  N   UNL     1      44.353   2.661  10.707  0.00  0.00    +0.000 NA
ATOM     31  C   UNL     1      44.460   4.046  10.250  0.00  0.00    +0.000 C 
ATOM     32  H   UNL     1      43.980   2.020  10.010  0.00  0.00    +0.000 HD
ENDBRANCH  27  28
ENDBRANCH  23  27
ENDBRANCH  17  19
ENDBRANCH   1  17
TORSDOF 8
ENDMDL
MODEL 8
REMARK VINA RESULT:    -6.080      3.547      5.846
REMARK INTER + INTRA:          -9.899
REMARK INTER:                  -8.326
REMARK INTRA:                  -1.573
REMARK UNBOUND:                -0.975
REMARK  Name = 
REMARK  12 active torsions:
REMARK  status: ('A' for Active; 'I' for Inactive)
REMARK    1  A    between atoms: C_1  and  S_2
REMARK    2  A    between atoms: S_2  and  C_3
REMARK    3  A    between atoms: C_5  and  C_6
REMARK    4  A    between atoms: C_11  and  N_12
REMARK    5  A    between atoms: N_12  and  C_13
REMARK    6  A    between atoms: C_13  and  C_14
REMARK    7  A    between atoms: C_14  and  C_15
REMARK    8  A    between atoms: C_14  and  C_16
REMARK    9  A    between atoms: C_18  and  C_19
REMARK   10  A    between atoms: C_20  and  O_21
REMARK   11  A    between atoms: O_21  and  C_22
REMARK   12  A    between atoms: C_26  and  C_27
REMARK                            x       y       z     vdW  Elec       q    Type
REMARK                         _______ _______ _______ _____ _____    ______ ____
ROOT
ATOM      1  C   UNL     1      47.713   3.503  15.302  0.00  0.00    +0.000 C 
ENDROOT
BRANCH   1   2
ATOM      2  N   UNL     1      46.642   3.734  14.323  0.00  0.00    +0.000 N 
ATOM      3  H   UNL     1      45.778   3.250  14.571  0.00  0.00    +0.000 HD
BRANCH   2   9
ATOM      4  C   UNL     1      45.172   5.458  13.198  0.00  0.00    +0.000 A 
ATOM      5  C   UNL     1      45.054   6.799  12.773  0.00  0.00    +0.000 A 
ATOM      6  C   UNL     1      46.106   7.712  12.897  0.00  0.00    +0.000 A 
ATOM      7  C   UNL     1      47.308   7.269  13.438  0.00  0.00    +0.000 A 
ATOM      8  C   UNL     1      47.436   5.936  13.861  0.00  0.00    +0.000 A 
ATOM      9  C   UNL     1      46.388   4.991  13.747  0.00  0.00    +0.000 A 
BRANCH   6  10
ATOM     10  C   UNL     1      45.851   9.114  12.451  0.00  0.00    +0.000 C 
ATOM     11  N   UNL     1      44.634   9.680  12.717  0.00  0.00    +0.000 N 
ATOM     12  O   UNL     1      46.698   9.757  11.849  0.00  0.00    +0.000 OA
ATOM     13  H   UNL     1      43.864   9.224  13.178  0.00  0.00    +0.000 HD
ATOM     14  H   UNL     1      44.496  10.620  12.379  0.00  0.00    +0.000 HD
ENDBRANCH   6  10
BRANCH   4  16
ATOM     15  C   UNL     1      44.239   3.520  11.511  0.00  0.00    +0.000 C 
ATOM     16  S   UNL     1      43.677   4.494  12.927  0.00  0.00    +0.000 S 
ENDBRANCH   4  16
ENDBRANCH   2   9
ENDBRANCH   1   2
BRANCH   1  17
ATOM     17  C   UNL     1      47.314   3.907  16.746  0.00  0.00    +0.000 C 
ATOM     18  C   UNL     1      47.423   2.670  17.647  0.00  0.00    +0.000 C 
BRANCH  17  19
ATOM     19  C   UNL     1      48.089   5.085  17.327  0.00  0.00    +0.000 A 
ATOM     20  C   UNL     1      49.343   5.456  16.835  0.00  0.00    +0.000 A 
ATOM     21  C   UNL     1      49.928   6.705  17.106  0.00  0.00    +0.000 A 
ATOM     22  C   UNL     1      51.106   7.033  16.236  0.00  0.00    +0.000 C 
ATOM     23  C   UNL     1      49.330   7.526  18.071  0.00  0.00    +0.000 A 
ATOM     24  C   UNL     1      48.129   7.102  18.692  0.00  0.00    +0.000 A 
ATOM     25  C   UNL     1      47.429   7.916  19.753  0.00  0.00    +0.000 C 
ATOM     26  C   UNL     1      47.506   5.909  18.288  0.00  0.00    +0.000 A 
BRANCH  23  27
ATOM     27  O   UNL     1      49.739   8.764  18.497  0.00  0.00    +0.000 OA
BRANCH  27  28
ATOM     28  C   UNL     1      49.631   9.961  17.706  0.00  0.00    +0.000 C 
ATOM     29  C   UNL     1      48.813  11.079  18.386  0.00  0.00    +0.000 C 
ATOM     30  N   UNL     1      47.830  11.064  17.302  0.00  0.00    +0.000 NA
ATOM     31  C   UNL     1      48.548   9.993  16.610  0.00  0.00    +0.000 C 
ATOM     32  H   UNL     1      47.770  11.933  16.775  0.00  0.00    +0.000 HD
ENDBRANCH  27  28
ENDBRANCH  23  27
ENDBRANCH  17  19
ENDBRANCH   1  17
TORSDOF 8
ENDMDL
MODEL 9
REMARK VINA RESULT:    -5.852      4.013      6.042
REMARK INTER + INTRA:          -9.564
REMARK INTER:                  -8.257
REMARK INTRA:                  -1.307
REMARK UNBOUND:                -0.975
REMARK  Name = 
REMARK  12 active torsions:
REMARK  status: ('A' for Active; 'I' for Inactive)
REMARK    1  A    between atoms: C_1  and  S_2
REMARK    2  A    between atoms: S_2  and  C_3
REMARK    3  A    between atoms: C_5  and  C_6
REMARK    4  A    between atoms: C_11  and  N_12
REMARK    5  A    between atoms: N_12  and  C_13
REMARK    6  A    between atoms: C_13  and  C_14
REMARK    7  A    between atoms: C_14  and  C_15
REMARK    8  A    between atoms: C_14  and  C_16
REMARK    9  A    between atoms: C_18  and  C_19
REMARK   10  A    between atoms: C_20  and  O_21
REMARK   11  A    between atoms: O_21  and  C_22
REMARK   12  A    between atoms: C_26  and  C_27
REMARK                            x       y       z     vdW  Elec       q    Type
REMARK                         _______ _______ _______ _____ _____    ______ ____
ROOT
ATOM      1  C   UNL     1      47.689   3.757  15.204  0.00  0.00    +0.000 C 
ENDROOT
BRANCH   1   2
ATOM      2  N   UNL     1      46.554   3.842  14.276  0.00  0.00    +0.000 N 
ATOM      3  H   UNL     1      45.735   3.335  14.616  0.00  0.00    +0.000 HD
BRANCH   2   9
ATOM      4  C   UNL     1      44.930   5.364  13.074  0.00  0.00    +0.000 A 
ATOM      5  C   UNL     1      44.704   6.656  12.549  0.00  0.00    +0.000 A 
ATOM      6  C   UNL     1      45.693   7.645  12.560  0.00  0.00    +0.000 A 
ATOM      7  C   UNL     1      46.940   7.329  13.089  0.00  0.00    +0.000 A 
ATOM      8  C   UNL     1      47.175   6.047  13.611  0.00  0.00    +0.000 A 
ATOM      9  C   UNL     1      46.193   5.027  13.612  0.00  0.00    +0.000 A 
BRANCH   6  10
ATOM     10  C   UNL     1      45.326   8.985  12.015  0.00  0.00    +0.000 C 
ATOM     11  N   UNL     1      44.045   9.193  11.582  0.00  0.00    +0.000 N 
ATOM     12  O   UNL     1      46.144   9.890  11.939  0.00  0.00    +0.000 OA
ATOM     13  H   UNL     1      43.310   8.505  11.574  0.00  0.00    +0.000 HD
ATOM     14  H   UNL     1      43.845  10.105  11.200  0.00  0.00    +0.000 HD
ENDBRANCH   6  10
BRANCH   4  16
ATOM     15  C   UNL     1      42.445   5.357  11.936  0.00  0.00    +0.000 C 
ATOM     16  S   UNL     1      43.499   4.283  12.937  0.00  0.00    +0.000 S 
ENDBRANCH   4  16
ENDBRANCH   2   9
ENDBRANCH   1   2
BRANCH   1  17
ATOM     17  C   UNL     1      47.263   3.826  16.695  0.00  0.00    +0.000 C 
ATOM     18  C   UNL     1      47.831   2.600  17.422  0.00  0.00    +0.000 C 
BRANCH  17  19
ATOM     19  C   UNL     1      47.632   5.118  17.415  0.00  0.00    +0.000 A 
ATOM     20  C   UNL     1      47.167   5.404  18.700  0.00  0.00    +0.000 A 
ATOM     21  C   UNL     1      47.737   6.400  19.512  0.00  0.00    +0.000 A 
ATOM     22  C   UNL     1      47.318   6.333  20.951  0.00  0.00    +0.000 C 
ATOM     23  C   UNL     1      48.668   7.276  18.938  0.00  0.00    +0.000 A 
ATOM     24  C   UNL     1      49.049   7.093  17.585  0.00  0.00    +0.000 A 
ATOM     25  C   UNL     1      50.030   8.000  16.885  0.00  0.00    +0.000 C 
ATOM     26  C   UNL     1      48.556   5.998  16.854  0.00  0.00    +0.000 A 
BRANCH  23  27
ATOM     27  O   UNL     1      49.329   8.318  19.538  0.00  0.00    +0.000 OA
BRANCH  27  28
ATOM     28  C   UNL     1      48.750   9.616  19.757  0.00  0.00    +0.000 C 
ATOM     29  C   UNL     1      48.147   9.796  21.166  0.00  0.00    +0.000 C 
ATOM     30  N   UNL     1      46.816  10.025  20.603  0.00  0.00    +0.000 NA
ATOM     31  C   UNL     1      47.318   9.853  19.240  0.00  0.00    +0.000 C 
ATOM     32  H   UNL     1      46.432  10.949  20.792  0.00  0.00    +0.000 HD
ENDBRANCH  27  28
ENDBRANCH  23  27
ENDBRANCH  17  19
ENDBRANCH   1  17
TORSDOF 8
ENDMDL
