MODEL 1
REMARK VINA RESULT:    -6.994      0.000      0.000
REMARK INTER + INTRA:         -10.930
REMARK INTER:                  -9.856
REMARK INTRA:                  -1.074
REMARK UNBOUND:                -1.074
REMARK  Name = 
REMARK  10 active torsions:
REMARK  status: ('A' for Active; 'I' for Inactive)
REMARK    1  A    between atoms: C_1  and  C_2
REMARK    2  A    between atoms: C_2  and  O_3
REMARK    3  A    between atoms: O_3  and  C_4
REMARK    4  A    between atoms: C_6  and  C_7
REMARK    5  A    between atoms: C_7  and  C_8
REMARK    6  A    between atoms: C_8  and  N_9
REMARK    7  A    between atoms: C_13  and  C_14
REMARK    8  A    between atoms: C_17  and  C_18
REMARK    9  A    between atoms: C_21  and  N_22
REMARK   10  A    between atoms: N_25  and  C_26
REMARK                            x       y       z     vdW  Elec       q    Type
REMARK                         _______ _______ _______ _____ _____    ______ ____
ROOT
ATOM      1  C   UNL     1      46.808   4.619  14.086  0.00  0.00    +0.000 A 
ATOM      2  C   UNL     1      45.532   4.541  13.520  0.00  0.00    +0.000 A 
ATOM      3  C   UNL     1      45.100   5.531  12.627  0.00  0.00    +0.000 A 
ATOM      4  C   UNL     1      45.997   6.567  12.308  0.00  0.00    +0.000 A 
ATOM      5  C   UNL     1      47.281   6.668  12.856  0.00  0.00    +0.000 A 
ATOM      6  C   UNL     1      47.673   5.660  13.736  0.00  0.00    +0.000 A 
ENDROOT
BRANCH   5   7
ATOM      7  N   UNL     1      48.038   7.792  12.591  0.00  0.00    +0.000 N 
ATOM      8  C   UNL     1      47.512   9.137  12.838  0.00  0.00    +0.000 C 
ATOM      9  C   UNL     1      48.096  10.108  11.786  0.00  0.00    +0.000 C 
ATOM     10  N   UNL     1      49.577  10.116  11.771  0.00  0.00    +0.000 NA
ATOM     11  C   UNL     1      50.069  11.012  10.726  0.00  0.00    +0.000 C 
ATOM     12  C   UNL     1      50.073   8.735  11.552  0.00  0.00    +0.000 C 
ATOM     13  C   UNL     1      49.510   7.717  12.573  0.00  0.00    +0.000 C 
ENDBRANCH   5   7
BRANCH   1  14
ATOM     14  O   UNL     1      47.320   3.731  14.994  0.00  0.00    +0.000 OA
BRANCH  14  16
ATOM     15  C   UNL     1      47.224   3.189  17.312  0.00  0.00    +0.000 C 
ATOM     16  C   UNL     1      47.586   4.255  16.294  0.00  0.00    +0.000 C 
ENDBRANCH  14  16
ENDBRANCH   1  14
BRANCH   3  17
ATOM     17  C   UNL     1      43.683   5.496  12.073  0.00  0.00    +0.000 C 
BRANCH  17  18
ATOM     18  C   UNL     1      43.595   4.964  10.636  0.00  0.00    +0.000 C 
BRANCH  18  19
ATOM     19  N   UNL     1      43.583   3.500  10.549  0.00  0.00    +0.000 N 
ATOM     20  C   UNL     1      44.509   3.054   9.576  0.00  0.00    +0.000 A 
ATOM     21  C   UNL     1      44.652   1.693   9.356  0.00  0.00    +0.000 A 
ATOM     22  C   UNL     1      45.587   1.251   8.417  0.00  0.00    +0.000 A 
ATOM     23  C   UNL     1      46.364   2.173   7.700  0.00  0.00    +0.000 A 
ATOM     24  C   UNL     1      46.169   3.527   7.970  0.00  0.00    +0.000 A 
ATOM     25  C   UNL     1      46.899   4.659   7.312  0.00  0.00    +0.000 C 
ATOM     26  N   UNL     1      45.258   3.945   8.894  0.00  0.00    +0.000 NA
ATOM     27  H   UNL     1      42.666   3.137  10.307  0.00  0.00    +0.000 HD
BRANCH  23  28
ATOM     28  C   UNL     1      47.374   1.684   6.726  0.00  0.00    +0.000 C 
ATOM     29  N   UNL     1      46.912   1.218   5.526  0.00  0.00    +0.000 N 
ATOM     30  O   UNL     1      48.576   1.688   6.959  0.00  0.00    +0.000 OA
ATOM     31  H   UNL     1      45.954   1.304   5.215  0.00  0.00    +0.000 HD
ATOM     32  H   UNL     1      47.609   0.940   4.846  0.00  0.00    +0.000 HD
ENDBRANCH  23  28
ENDBRANCH  18  19
ENDBRANCH  17  18
ENDBRANCH   3  17
TORSDOF 7
ENDMDL
MODEL 2
REMARK VINA RESULT:    -6.948      1.656      2.196
REMARK INTER + INTRA:         -10.866
REMARK INTER:                 -10.237
REMARK INTRA:                  -0.629
REMARK UNBOUND:                -1.074
REMARK  Name = 
REMARK  10 active torsions:
REMARK  status: ('A' for Active; 'I' for Inactive)
REMARK    1  A    between atoms: C_1  and  C_2
REMARK    2  A    between atoms: C_2  and  O_3
REMARK    3  A    between atoms: O_3  and  C_4
REMARK    4  A    between atoms: C_6  and  C_7
REMARK    5  A    between atoms: C_7  and  C_8
REMARK    6  A    between atoms: C_8  and  N_9
REMARK    7  A    between atoms: C_13  and  C_14
REMARK    8  A    between atoms: C_17  and  C_18
REMARK    9  A    between atoms: C_21  and  N_22
REMARK   10  A    between atoms: N_25  and  C_26
REMARK                            x       y       z     vdW  Elec       q    Type
REMARK                         _______ _______ _______ _____ _____    ______ ____
ROOT
ATOM      1  C   UNL     1      46.921   4.458  14.149  0.00  0.00    +0.000 A 
ATOM      2  C   UNL     1      45.851   3.695  13.670  0.00  0.00    +0.000 A 
ATOM      3  C   UNL     1      44.865   4.292  12.875  0.00  0.00    +0.000 A 
ATOM      4  C   UNL     1      45.009   5.656  12.560  0.00  0.00    +0.000 A 
ATOM      5  C   UNL     1      46.070   6.444  13.021  0.00  0.00    +0.000 A 
ATOM      6  C   UNL     1      47.033   5.809  13.805  0.00  0.00    +0.000 A 
ENDROOT
BRANCH   5   7
ATOM      7  N   UNL     1      46.056   7.802  12.776  0.00  0.00    +0.000 N 
ATOM      8  C   UNL     1      44.809   8.502  12.454  0.00  0.00    +0.000 C 
ATOM      9  C   UNL     1      45.119   9.663  11.482  0.00  0.00    +0.000 C 
ATOM     10  N   UNL     1      46.130  10.605  12.015  0.00  0.00    +0.000 NA
ATOM     11  C   UNL     1      46.417  11.650  11.034  0.00  0.00    +0.000 C 
ATOM     12  C   UNL     1      47.365   9.858  12.359  0.00  0.00    +0.000 C 
ATOM     13  C   UNL     1      47.110   8.674  13.324  0.00  0.00    +0.000 C 
ENDBRANCH   5   7
BRANCH   1  14
ATOM     14  O   UNL     1      47.918   3.990  14.961  0.00  0.00    +0.000 OA
BRANCH  14  16
ATOM     15  C   UNL     1      48.190   2.813  17.014  0.00  0.00    +0.000 C 
ATOM     16  C   UNL     1      47.675   4.083  16.364  0.00  0.00    +0.000 C 
ENDBRANCH  14  16
ENDBRANCH   1  14
BRANCH   3  17
ATOM     17  C   UNL     1      43.656   3.486  12.421  0.00  0.00    +0.000 C 
BRANCH  17  18
ATOM     18  C   UNL     1      43.643   3.190  10.914  0.00  0.00    +0.000 C 
BRANCH  18  19
ATOM     19  N   UNL     1      44.166   4.287  10.093  0.00  0.00    +0.000 N 
ATOM     20  C   UNL     1      45.041   3.788   9.101  0.00  0.00    +0.000 A 
ATOM     21  C   UNL     1      45.630   4.676   8.213  0.00  0.00    +0.000 A 
ATOM     22  C   UNL     1      46.472   4.180   7.214  0.00  0.00    +0.000 A 
ATOM     23  C   UNL     1      46.724   2.804   7.115  0.00  0.00    +0.000 A 
ATOM     24  C   UNL     1      46.099   1.967   8.039  0.00  0.00    +0.000 A 
ATOM     25  C   UNL     1      46.241   0.476   8.098  0.00  0.00    +0.000 C 
ATOM     26  N   UNL     1      45.275   2.463   9.006  0.00  0.00    +0.000 NA
ATOM     27  H   UNL     1      44.669   4.974  10.647  0.00  0.00    +0.000 HD
BRANCH  23  28
ATOM     28  C   UNL     1      47.597   2.291   6.028  0.00  0.00    +0.000 C 
ATOM     29  N   UNL     1      48.948   2.431   6.192  0.00  0.00    +0.000 N 
ATOM     30  O   UNL     1      47.156   1.762   5.016  0.00  0.00    +0.000 OA
ATOM     31  H   UNL     1      49.386   2.736   7.050  0.00  0.00    +0.000 HD
ATOM     32  H   UNL     1      49.538   2.029   5.474  0.00  0.00    +0.000 HD
ENDBRANCH  23  28
ENDBRANCH  18  19
ENDBRANCH  17  18
ENDBRANCH   3  17
TORSDOF 7
ENDMDL
MODEL 3
REMARK VINA RESULT:    -6.672      2.191      4.343
REMARK INTER + INTRA:         -10.477
REMARK INTER:                  -9.375
REMARK INTRA:                  -1.101
REMARK UNBOUND:                -1.074
REMARK  Name = 
REMARK  10 active torsions:
REMARK  status: ('A' for Active; 'I' for Inactive)
REMARK    1  A    between atoms: C_1  and  C_2
REMARK    2  A    between atoms: C_2  and  O_3
REMARK    3  A    between atoms: O_3  and  C_4
REMARK    4  A    between atoms: C_6  and  C_7
REMARK    5  A    between atoms: C_7  and  C_8
REMARK    6  A    between atoms: C_8  and  N_9
REMARK    7  A    between atoms: C_13  and  C_14
REMARK    8  A    between atoms: C_17  and  C_18
REMARK    9  A    between atoms: C_21  and  N_22
REMARK   10  A    between atoms: N_25  and  C_26
REMARK                            x       y       z     vdW  Elec       q    Type
REMARK                         _______ _______ _______ _____ _____    ______ ____
ROOT
ATOM      1  C   UNL     1      47.043   6.372  12.269  0.00  0.00    +0.000 A 
ATOM      2  C   UNL     1      45.838   5.705  12.025  0.00  0.00    +0.000 A 
ATOM      3  C   UNL     1      45.316   4.829  12.985  0.00  0.00    +0.000 A 
ATOM      4  C   UNL     1      46.024   4.675  14.191  0.00  0.00    +0.000 A 
ATOM      5  C   UNL     1      47.230   5.332  14.464  0.00  0.00    +0.000 A 
ATOM      6  C   UNL     1      47.713   6.199  13.485  0.00  0.00    +0.000 A 
ENDROOT
BRANCH   5   7
ATOM      7  N   UNL     1      47.924   5.013  15.615  0.00  0.00    +0.000 N 
ATOM      8  C   UNL     1      48.585   6.048  16.414  0.00  0.00    +0.000 C 
ATOM      9  C   UNL     1      49.860   5.453  17.055  0.00  0.00    +0.000 C 
ATOM     10  N   UNL     1      49.583   4.250  17.874  0.00  0.00    +0.000 NA
ATOM     11  C   UNL     1      50.828   3.705  18.412  0.00  0.00    +0.000 C 
ATOM     12  C   UNL     1      48.886   3.238  17.043  0.00  0.00    +0.000 C 
ATOM     13  C   UNL     1      47.605   3.786  16.366  0.00  0.00    +0.000 C 
ENDBRANCH   5   7
BRANCH   1  14
ATOM     14  O   UNL     1      47.663   7.220  11.391  0.00  0.00    +0.000 OA
BRANCH  14  16
ATOM     15  C   UNL     1      47.996   9.542  11.807  0.00  0.00    +0.000 C 
ATOM     16  C   UNL     1      48.580   8.150  11.966  0.00  0.00    +0.000 C 
ENDBRANCH  14  16
ENDBRANCH   1  14
BRANCH   3  17
ATOM     17  C   UNL     1      44.049   4.039  12.691  0.00  0.00    +0.000 C 
BRANCH  17  18
ATOM     18  C   UNL     1      43.749   3.888  11.193  0.00  0.00    +0.000 C 
BRANCH  18  19
ATOM     19  N   UNL     1      43.909   2.518  10.695  0.00  0.00    +0.000 N 
ATOM     20  C   UNL     1      44.765   2.498   9.568  0.00  0.00    +0.000 A 
ATOM     21  C   UNL     1      45.049   1.285   8.960  0.00  0.00    +0.000 A 
ATOM     22  C   UNL     1      45.917   1.260   7.865  0.00  0.00    +0.000 A 
ATOM     23  C   UNL     1      46.487   2.449   7.384  0.00  0.00    +0.000 A 
ATOM     24  C   UNL     1      46.158   3.633   8.042  0.00  0.00    +0.000 A 
ATOM     25  C   UNL     1      46.661   4.998   7.680  0.00  0.00    +0.000 C 
ATOM     26  N   UNL     1      45.315   3.642   9.113  0.00  0.00    +0.000 NA
ATOM     27  H   UNL     1      43.022   2.100  10.430  0.00  0.00    +0.000 HD
BRANCH  23  28
ATOM     28  C   UNL     1      47.431   2.401   6.238  0.00  0.00    +0.000 C 
ATOM     29  N   UNL     1      48.767   2.352   6.529  0.00  0.00    +0.000 N 
ATOM     30  O   UNL     1      47.059   2.402   5.071  0.00  0.00    +0.000 OA
ATOM     31  H   UNL     1      49.140   2.217   7.459  0.00  0.00    +0.000 HD
ATOM     32  H   UNL     1      49.401   2.262   5.745  0.00  0.00    +0.000 HD
ENDBRANCH  23  28
ENDBRANCH  18  19
ENDBRANCH  17  18
ENDBRANCH   3  17
TORSDOF 7
ENDMDL
MODEL 4
REMARK VINA RESULT:    -6.639      3.304      8.025
REMARK INTER + INTRA:         -10.430
REMARK INTER:                  -9.190
REMARK INTRA:                  -1.240
REMARK UNBOUND:                -1.074
REMARK  Name = 
REMARK  10 active torsions:
REMARK  status: ('A' for Active; 'I' for Inactive)
REMARK    1  A    between atoms: C_1  and  C_2
REMARK    2  A    between atoms: C_2  and  O_3
REMARK    3  A    between atoms: O_3  and  C_4
REMARK    4  A    between atoms: C_6  and  C_7
REMARK    5  A    between atoms: C_7  and  C_8
REMARK    6  A    between atoms: C_8  and  N_9
REMARK    7  A    between atoms: C_13  and  C_14
REMARK    8  A    between atoms: C_17  and  C_18
REMARK    9  A    between atoms: C_21  and  N_22
REMARK   10  A    between atoms: N_25  and  C_26
REMARK                            x       y       z     vdW  Elec       q    Type
REMARK                         _______ _______ _______ _____ _____    ______ ____
ROOT
ATOM      1  C   UNL     1      45.353   9.969  11.919  0.00  0.00    +0.000 A 
ATOM      2  C   UNL     1      46.748   9.996  12.022  0.00  0.00    +0.000 A 
ATOM      3  C   UNL     1      47.484   8.815  11.871  0.00  0.00    +0.000 A 
ATOM      4  C   UNL     1      46.779   7.630  11.587  0.00  0.00    +0.000 A 
ATOM      5  C   UNL     1      45.385   7.573  11.475  0.00  0.00    +0.000 A 
ATOM      6  C   UNL     1      44.690   8.773  11.627  0.00  0.00    +0.000 A 
ENDROOT
BRANCH   5   7
ATOM      7  N   UNL     1      44.772   6.345  11.333  0.00  0.00    +0.000 N 
ATOM      8  C   UNL     1      43.331   6.186  11.551  0.00  0.00    +0.000 C 
ATOM      9  C   UNL     1      43.061   4.779  12.132  0.00  0.00    +0.000 C 
ATOM     10  N   UNL     1      43.589   3.692  11.275  0.00  0.00    +0.000 NA
ATOM     11  C   UNL     1      43.348   2.392  11.900  0.00  0.00    +0.000 C 
ATOM     12  C   UNL     1      45.040   3.903  11.052  0.00  0.00    +0.000 C 
ATOM     13  C   UNL     1      45.369   5.303  10.479  0.00  0.00    +0.000 C 
ENDBRANCH   5   7
BRANCH   1  14
ATOM     14  O   UNL     1      44.532  11.052  12.084  0.00  0.00    +0.000 OA
BRANCH  14  16
ATOM     15  C   UNL     1      42.842  12.491  11.220  0.00  0.00    +0.000 C 
ATOM     16  C   UNL     1      43.348  11.062  11.289  0.00  0.00    +0.000 C 
ENDBRANCH  14  16
ENDBRANCH   1  14
BRANCH   3  17
ATOM     17  C   UNL     1      48.994   8.824  12.063  0.00  0.00    +0.000 C 
BRANCH  17  18
ATOM     18  C   UNL     1      49.568   7.471  12.508  0.00  0.00    +0.000 C 
BRANCH  18  19
ATOM     19  N   UNL     1      50.168   7.496  13.846  0.00  0.00    +0.000 N 
ATOM     20  C   UNL     1      49.406   6.714  14.745  0.00  0.00    +0.000 A 
ATOM     21  C   UNL     1      49.822   6.604  16.063  0.00  0.00    +0.000 A 
ATOM     22  C   UNL     1      49.087   5.807  16.944  0.00  0.00    +0.000 A 
ATOM     23  C   UNL     1      47.937   5.135  16.502  0.00  0.00    +0.000 A 
ATOM     24  C   UNL     1      47.575   5.289  15.165  0.00  0.00    +0.000 A 
ATOM     25  C   UNL     1      46.386   4.655  14.507  0.00  0.00    +0.000 C 
ATOM     26  N   UNL     1      48.305   6.064  14.314  0.00  0.00    +0.000 NA
ATOM     27  H   UNL     1      50.233   8.439  14.219  0.00  0.00    +0.000 HD
BRANCH  23  28
ATOM     28  C   UNL     1      47.184   4.268  17.445  0.00  0.00    +0.000 C 
ATOM     29  N   UNL     1      46.781   4.830  18.626  0.00  0.00    +0.000 N 
ATOM     30  O   UNL     1      46.919   3.098  17.203  0.00  0.00    +0.000 OA
ATOM     31  H   UNL     1      46.849   5.816  18.837  0.00  0.00    +0.000 HD
ATOM     32  H   UNL     1      46.220   4.250  19.238  0.00  0.00    +0.000 HD
ENDBRANCH  23  28
ENDBRANCH  18  19
ENDBRANCH  17  18
ENDBRANCH   3  17
TORSDOF 7
ENDMDL
MODEL 5
REMARK VINA RESULT:    -6.560      3.443      8.021
REMARK INTER + INTRA:         -10.318
REMARK INTER:                  -9.144
REMARK INTRA:                  -1.174
REMARK UNBOUND:                -1.074
REMARK  Name = 
REMARK  10 active torsions:
REMARK  status: ('A' for Active; 'I' for Inactive)
REMARK    1  A    between atoms: C_1  and  C_2
REMARK    2  A    between atoms: C_2  and  O_3
REMARK    3  A    between atoms: O_3  and  C_4
REMARK    4  A    between atoms: C_6  and  C_7
REMARK    5  A    between atoms: C_7  and  C_8
REMARK    6  A    between atoms: C_8  and  N_9
REMARK    7  A    between atoms: C_13  and  C_14
REMARK    8  A    between atoms: C_17  and  C_18
REMARK    9  A    between atoms: C_21  and  N_22
REMARK   10  A    between atoms: N_25  and  C_26
REMARK                            x       y       z     vdW  Elec       q    Type
REMARK                         _______ _______ _______ _____ _____    ______ ____
ROOT
ATOM      1  C   UNL     1      44.500  10.220  11.283  0.00  0.00    +0.000 A 
ATOM      2  C   UNL     1      45.744  10.447  11.882  0.00  0.00    +0.000 A 
ATOM      3  C   UNL     1      46.549   9.365  12.258  0.00  0.00    +0.000 A 
ATOM      4  C   UNL     1      46.077   8.067  11.985  0.00  0.00    +0.000 A 
ATOM      5  C   UNL     1      44.840   7.809  11.384  0.00  0.00    +0.000 A 
ATOM      6  C   UNL     1      44.072   8.915  11.021  0.00  0.00    +0.000 A 
ENDROOT
BRANCH   5   7
ATOM      7  N   UNL     1      44.401   6.504  11.283  0.00  0.00    +0.000 N 
ATOM      8  C   UNL     1      42.977   6.172  11.382  0.00  0.00    +0.000 C 
ATOM      9  C   UNL     1      42.828   4.783  12.044  0.00  0.00    +0.000 C 
ATOM     10  N   UNL     1      43.569   3.721  11.323  0.00  0.00    +0.000 NA
ATOM     11  C   UNL     1      43.431   2.444  12.022  0.00  0.00    +0.000 C 
ATOM     12  C   UNL     1      44.997   4.105  11.214  0.00  0.00    +0.000 C 
ATOM     13  C   UNL     1      45.204   5.497  10.567  0.00  0.00    +0.000 C 
ENDBRANCH   5   7
BRANCH   1  14
ATOM     14  O   UNL     1      43.618  11.198  10.909  0.00  0.00    +0.000 OA
BRANCH  14  16
ATOM     15  C   UNL     1      43.846  11.615   8.575  0.00  0.00    +0.000 C 
ATOM     16  C   UNL     1      42.970  11.003   9.653  0.00  0.00    +0.000 C 
ENDBRANCH  14  16
ENDBRANCH   1  14
BRANCH   3  17
ATOM     17  C   UNL     1      47.864   9.605  12.985  0.00  0.00    +0.000 C 
BRANCH  17  18
ATOM     18  C   UNL     1      48.690   8.330  13.205  0.00  0.00    +0.000 C 
BRANCH  18  19
ATOM     19  N   UNL     1      49.230   8.204  14.563  0.00  0.00    +0.000 N 
ATOM     20  C   UNL     1      48.811   6.988  15.152  0.00  0.00    +0.000 A 
ATOM     21  C   UNL     1      49.232   6.682  16.437  0.00  0.00    +0.000 A 
ATOM     22  C   UNL     1      48.843   5.467  17.008  0.00  0.00    +0.000 A 
ATOM     23  C   UNL     1      48.031   4.574  16.293  0.00  0.00    +0.000 A 
ATOM     24  C   UNL     1      47.644   4.944  15.006  0.00  0.00    +0.000 A 
ATOM     25  C   UNL     1      46.782   4.131  14.089  0.00  0.00    +0.000 C 
ATOM     26  N   UNL     1      48.035   6.130  14.458  0.00  0.00    +0.000 NA
ATOM     27  H   UNL     1      48.936   8.969  15.164  0.00  0.00    +0.000 HD
BRANCH  23  28
ATOM     28  C   UNL     1      47.651   3.274  16.904  0.00  0.00    +0.000 C 
ATOM     29  N   UNL     1      48.593   2.282  16.899  0.00  0.00    +0.000 N 
ATOM     30  O   UNL     1      46.551   3.070  17.400  0.00  0.00    +0.000 OA
ATOM     31  H   UNL     1      49.557   2.417  16.628  0.00  0.00    +0.000 HD
ATOM     32  H   UNL     1      48.348   1.418  17.367  0.00  0.00    +0.000 HD
ENDBRANCH  23  28
ENDBRANCH  18  19
ENDBRANCH  17  18
ENDBRANCH   3  17
TORSDOF 7
ENDMDL
MODEL 6
REMARK VINA RESULT:    -6.152      3.645      8.078
REMARK INTER + INTRA:          -9.743
REMARK INTER:                  -8.599
REMARK INTRA:                  -1.144
REMARK UNBOUND:                -1.074
REMARK  Name = 
REMARK  10 active torsions:
REMARK  status: ('A' for Active; 'I' for Inactive)
REMARK    1  A    between atoms: C_1  and  C_2
REMARK    2  A    between atoms: C_2  and  O_3
REMARK    3  A    between atoms: O_3  and  C_4
REMARK    4  A    between atoms: C_6  and  C_7
REMARK    5  A    between atoms: C_7  and  C_8
REMARK    6  A    between atoms: C_8  and  N_9
REMARK    7  A    between atoms: C_13  and  C_14
REMARK    8  A    between atoms: C_17  and  C_18
REMARK    9  A    between atoms: C_21  and  N_22
REMARK   10  A    between atoms: N_25  and  C_26
REMARK                            x       y       z     vdW  Elec       q    Type
REMARK                         _______ _______ _______ _____ _____    ______ ____
ROOT
ATOM      1  C   UNL     1      50.058   8.174  12.889  0.00  0.00    +0.000 A 
ATOM      2  C   UNL     1      49.878   8.780  14.137  0.00  0.00    +0.000 A 
ATOM      3  C   UNL     1      48.723   8.516  14.884  0.00  0.00    +0.000 A 
ATOM      4  C   UNL     1      47.786   7.611  14.351  0.00  0.00    +0.000 A 
ATOM      5  C   UNL     1      47.941   6.987  13.108  0.00  0.00    +0.000 A 
ATOM      6  C   UNL     1      49.107   7.273  12.399  0.00  0.00    +0.000 A 
ENDROOT
BRANCH   5   7
ATOM      7  N   UNL     1      46.907   6.222  12.605  0.00  0.00    +0.000 N 
ATOM      8  C   UNL     1      46.448   6.381  11.223  0.00  0.00    +0.000 C 
ATOM      9  C   UNL     1      44.928   6.109  11.161  0.00  0.00    +0.000 C 
ATOM     10  N   UNL     1      44.560   4.774  11.690  0.00  0.00    +0.000 NA
ATOM     11  C   UNL     1      43.110   4.596  11.652  0.00  0.00    +0.000 C 
ATOM     12  C   UNL     1      45.068   4.639  13.077  0.00  0.00    +0.000 C 
ATOM     13  C   UNL     1      46.587   4.912  13.198  0.00  0.00    +0.000 C 
ENDBRANCH   5   7
BRANCH   1  14
ATOM     14  O   UNL     1      51.126   8.386  12.060  0.00  0.00    +0.000 OA
BRANCH  14  16
ATOM     15  C   UNL     1      52.587   7.548  10.376  0.00  0.00    +0.000 C 
ATOM     16  C   UNL     1      51.153   7.603  10.867  0.00  0.00    +0.000 C 
ENDBRANCH  14  16
ENDBRANCH   1  14
BRANCH   3  17
ATOM     17  C   UNL     1      48.483   9.236  16.203  0.00  0.00    +0.000 C 
BRANCH  17  18
ATOM     18  C   UNL     1      48.590   8.323  17.433  0.00  0.00    +0.000 C 
BRANCH  18  19
ATOM     19  N   UNL     1      49.947   7.827  17.682  0.00  0.00    +0.000 N 
ATOM     20  C   UNL     1      49.992   6.419  17.544  0.00  0.00    +0.000 A 
ATOM     21  C   UNL     1      51.199   5.762  17.730  0.00  0.00    +0.000 A 
ATOM     22  C   UNL     1      51.250   4.376  17.565  0.00  0.00    +0.000 A 
ATOM     23  C   UNL     1      50.094   3.658  17.224  0.00  0.00    +0.000 A 
ATOM     24  C   UNL     1      48.915   4.380  17.052  0.00  0.00    +0.000 A 
ATOM     25  C   UNL     1      47.583   3.798  16.688  0.00  0.00    +0.000 C 
ATOM     26  N   UNL     1      48.879   5.735  17.209  0.00  0.00    +0.000 NA
ATOM     27  H   UNL     1      50.279   8.068  18.611  0.00  0.00    +0.000 HD
BRANCH  23  28
ATOM     28  C   UNL     1      50.173   2.188  17.023  0.00  0.00    +0.000 C 
ATOM     29  N   UNL     1      50.848   1.463  17.967  0.00  0.00    +0.000 N 
ATOM     30  O   UNL     1      49.666   1.621  16.064  0.00  0.00    +0.000 OA
ATOM     31  H   UNL     1      51.177   1.841  18.845  0.00  0.00    +0.000 HD
ATOM     32  H   UNL     1      50.849   0.457  17.854  0.00  0.00    +0.000 HD
ENDBRANCH  23  28
ENDBRANCH  18  19
ENDBRANCH  17  18
ENDBRANCH   3  17
TORSDOF 7
ENDMDL
MODEL 7
REMARK VINA RESULT:    -6.108      3.764      6.698
REMARK INTER + INTRA:          -9.682
REMARK INTER:                  -8.449
REMARK INTRA:                  -1.233
REMARK UNBOUND:                -1.074
REMARK  Name = 
REMARK  10 active torsions:
REMARK  status: ('A' for Active; 'I' for Inactive)
REMARK    1  A    between atoms: C_1  and  C_2
REMARK    2  A    between atoms: C_2  and  O_3
REMARK    3  A    between atoms: O_3  and  C_4
REMARK    4  A    between atoms: C_6  and  C_7
REMARK    5  A    between atoms: C_7  and  C_8
REMARK    6  A    between atoms: C_8  and  N_9
REMARK    7  A    between atoms: C_13  and  C_14
REMARK    8  A    between atoms: C_17  and  C_18
REMARK    9  A    between atoms: C_21  and  N_22
REMARK   10  A    between atoms: N_25  and  C_26
REMARK                            x       y       z     vdW  Elec       q    Type
REMARK                         _______ _______ _______ _____ _____    ______ ____
ROOT
ATOM      1  C   UNL     1      48.076   9.083  18.008  0.00  0.00    +0.000 A 
ATOM      2  C   UNL     1      48.122   9.566  16.696  0.00  0.00    +0.000 A 
ATOM      3  C   UNL     1      48.508   8.719  15.650  0.00  0.00    +0.000 A 
ATOM      4  C   UNL     1      48.811   7.381  15.964  0.00  0.00    +0.000 A 
ATOM      5  C   UNL     1      48.771   6.869  17.266  0.00  0.00    +0.000 A 
ATOM      6  C   UNL     1      48.377   7.744  18.277  0.00  0.00    +0.000 A 
ENDROOT
BRANCH   5   7
ATOM      7  N   UNL     1      49.218   5.583  17.496  0.00  0.00    +0.000 N 
ATOM      8  C   UNL     1      50.516   5.333  18.129  0.00  0.00    +0.000 C 
ATOM      9  C   UNL     1      51.116   4.029  17.553  0.00  0.00    +0.000 C 
ATOM     10  N   UNL     1      50.216   2.863  17.715  0.00  0.00    +0.000 NA
ATOM     11  C   UNL     1      50.814   1.675  17.109  0.00  0.00    +0.000 C 
ATOM     12  C   UNL     1      48.904   3.164  17.092  0.00  0.00    +0.000 C 
ATOM     13  C   UNL     1      48.263   4.468  17.625  0.00  0.00    +0.000 C 
ENDBRANCH   5   7
BRANCH   1  14
ATOM     14  O   UNL     1      47.749   9.828  19.109  0.00  0.00    +0.000 OA
BRANCH  14  16
ATOM     15  C   UNL     1      46.791  10.067  21.276  0.00  0.00    +0.000 C 
ATOM     16  C   UNL     1      47.369   9.090  20.269  0.00  0.00    +0.000 C 
ENDBRANCH  14  16
ENDBRANCH   1  14
BRANCH   3  17
ATOM     17  C   UNL     1      48.639   9.261  14.234  0.00  0.00    +0.000 C 
BRANCH  17  18
ATOM     18  C   UNL     1      48.608   8.174  13.151  0.00  0.00    +0.000 C 
BRANCH  18  19
ATOM     19  N   UNL     1      47.463   8.280  12.241  0.00  0.00    +0.000 N 
ATOM     20  C   UNL     1      46.733   7.069  12.220  0.00  0.00    +0.000 A 
ATOM     21  C   UNL     1      45.602   6.978  11.422  0.00  0.00    +0.000 A 
ATOM     22  C   UNL     1      44.863   5.793  11.424  0.00  0.00    +0.000 A 
ATOM     23  C   UNL     1      45.265   4.706  12.215  0.00  0.00    +0.000 A 
ATOM     24  C   UNL     1      46.411   4.865  12.993  0.00  0.00    +0.000 A 
ATOM     25  C   UNL     1      46.998   3.826  13.899  0.00  0.00    +0.000 C 
ATOM     26  N   UNL     1      47.120   6.030  12.987  0.00  0.00    +0.000 NA
ATOM     27  H   UNL     1      47.748   8.498  11.290  0.00  0.00    +0.000 HD
BRANCH  23  28
ATOM     28  C   UNL     1      44.451   3.463  12.228  0.00  0.00    +0.000 C 
ATOM     29  N   UNL     1      44.588   2.614  11.164  0.00  0.00    +0.000 N 
ATOM     30  O   UNL     1      43.681   3.183  13.138  0.00  0.00    +0.000 OA
ATOM     31  H   UNL     1      45.293   2.714  10.446  0.00  0.00    +0.000 HD
ATOM     32  H   UNL     1      44.073   1.744  11.206  0.00  0.00    +0.000 HD
ENDBRANCH  23  28
ENDBRANCH  18  19
ENDBRANCH  17  18
ENDBRANCH   3  17
TORSDOF 7
ENDMDL
MODEL 8
REMARK VINA RESULT:    -6.074      2.286      3.767
REMARK INTER + INTRA:          -9.634
REMARK INTER:                  -9.295
REMARK INTRA:                  -0.339
REMARK UNBOUND:                -1.074
REMARK  Name = 
REMARK  10 active torsions:
REMARK  status: ('A' for Active; 'I' for Inactive)
REMARK    1  A    between atoms: C_1  and  C_2
REMARK    2  A    between atoms: C_2  and  O_3
REMARK    3  A    between atoms: O_3  and  C_4
REMARK    4  A    between atoms: C_6  and  C_7
REMARK    5  A    between atoms: C_7  and  C_8
REMARK    6  A    between atoms: C_8  and  N_9
REMARK    7  A    between atoms: C_13  and  C_14
REMARK    8  A    between atoms: C_17  and  C_18
REMARK    9  A    between atoms: C_21  and  N_22
REMARK   10  A    between atoms: N_25  and  C_26
REMARK                            x       y       z     vdW  Elec       q    Type
REMARK                         _______ _______ _______ _____ _____    ______ ____
ROOT
ATOM      1  C   UNL     1      44.394   7.527  11.641  0.00  0.00    +0.000 A 
ATOM      2  C   UNL     1      44.188   6.144  11.678  0.00  0.00    +0.000 A 
ATOM      3  C   UNL     1      45.129   5.312  12.298  0.00  0.00    +0.000 A 
ATOM      4  C   UNL     1      46.251   5.917  12.896  0.00  0.00    +0.000 A 
ATOM      5  C   UNL     1      46.481   7.298  12.878  0.00  0.00    +0.000 A 
ATOM      6  C   UNL     1      45.517   8.090  12.256  0.00  0.00    +0.000 A 
ENDROOT
BRANCH   5   7
ATOM      7  N   UNL     1      47.675   7.787  13.369  0.00  0.00    +0.000 N 
ATOM      8  C   UNL     1      48.084   9.173  13.127  0.00  0.00    +0.000 C 
ATOM      9  C   UNL     1      49.625   9.231  13.010  0.00  0.00    +0.000 C 
ATOM     10  N   UNL     1      50.312   8.677  14.200  0.00  0.00    +0.000 NA
ATOM     11  C   UNL     1      51.761   8.714  14.011  0.00  0.00    +0.000 C 
ATOM     12  C   UNL     1      49.850   7.287  14.432  0.00  0.00    +0.000 C 
ATOM     13  C   UNL     1      48.311   7.169  14.546  0.00  0.00    +0.000 C 
ENDBRANCH   5   7
BRANCH   1  14
ATOM     14  O   UNL     1      43.562   8.429  11.034  0.00  0.00    +0.000 OA
BRANCH  14  16
ATOM     15  C   UNL     1      43.639  10.467   9.803  0.00  0.00    +0.000 C 
ATOM     16  C   UNL     1      43.953   9.798  11.128  0.00  0.00    +0.000 C 
ENDBRANCH  14  16
ENDBRANCH   1  14
BRANCH   3  17
ATOM     17  C   UNL     1      44.952   3.801  12.268  0.00  0.00    +0.000 C 
BRANCH  17  18
ATOM     18  C   UNL     1      44.773   3.228  10.855  0.00  0.00    +0.000 C 
BRANCH  18  19
ATOM     19  N   UNL     1      45.078   4.187   9.787  0.00  0.00    +0.000 N 
ATOM     20  C   UNL     1      45.671   3.528   8.685  0.00  0.00    +0.000 A 
ATOM     21  C   UNL     1      46.021   4.269   7.566  0.00  0.00    +0.000 A 
ATOM     22  C   UNL     1      46.579   3.615   6.465  0.00  0.00    +0.000 A 
ATOM     23  C   UNL     1      46.790   2.228   6.495  0.00  0.00    +0.000 A 
ATOM     24  C   UNL     1      46.415   1.545   7.650  0.00  0.00    +0.000 A 
ATOM     25  C   UNL     1      46.559   0.070   7.874  0.00  0.00    +0.000 C 
ATOM     26  N   UNL     1      45.865   2.194   8.716  0.00  0.00    +0.000 NA
ATOM     27  H   UNL     1      45.709   4.920  10.099  0.00  0.00    +0.000 HD
BRANCH  23  28
ATOM     28  C   UNL     1      47.357   1.544   5.304  0.00  0.00    +0.000 C 
ATOM     29  N   UNL     1      46.591   1.523   4.170  0.00  0.00    +0.000 N 
ATOM     30  O   UNL     1      48.460   1.015   5.306  0.00  0.00    +0.000 OA
ATOM     31  H   UNL     1      45.734   2.047   4.056  0.00  0.00    +0.000 HD
ATOM     32  H   UNL     1      47.006   1.105   3.347  0.00  0.00    +0.000 HD
ENDBRANCH  23  28
ENDBRANCH  18  19
ENDBRANCH  17  18
ENDBRANCH   3  17
TORSDOF 7
ENDMDL
MODEL 9
REMARK VINA RESULT:    -5.863      3.429      6.079
REMARK INTER + INTRA:          -9.337
REMARK INTER:                  -8.179
REMARK INTRA:                  -1.157
REMARK UNBOUND:                -1.074
REMARK  Name = 
REMARK  10 active torsions:
REMARK  status: ('A' for Active; 'I' for Inactive)
REMARK    1  A    between atoms: C_1  and  C_2
REMARK    2  A    between atoms: C_2  and  O_3
REMARK    3  A    between atoms: O_3  and  C_4
REMARK    4  A    between atoms: C_6  and  C_7
REMARK    5  A    between atoms: C_7  and  C_8
REMARK    6  A    between atoms: C_8  and  N_9
REMARK    7  A    between atoms: C_13  and  C_14
REMARK    8  A    between atoms: C_17  and  C_18
REMARK    9  A    between atoms: C_21  and  N_22
REMARK   10  A    between atoms: N_25  and  C_26
REMARK                            x       y       z     vdW  Elec       q    Type
REMARK                         _______ _______ _______ _____ _____    ______ ____
ROOT
ATOM      1  C   UNL     1      50.515   8.419  12.868  0.00  0.00    +0.000 A 
ATOM      2  C   UNL     1      49.388   8.965  12.246  0.00  0.00    +0.000 A 
ATOM      3  C   UNL     1      48.147   8.936  12.894  0.00  0.00    +0.000 A 
ATOM      4  C   UNL     1      48.089   8.374  14.182  0.00  0.00    +0.000 A 
ATOM      5  C   UNL     1      49.201   7.824  14.832  0.00  0.00    +0.000 A 
ATOM      6  C   UNL     1      50.418   7.878  14.154  0.00  0.00    +0.000 A 
ENDROOT
BRANCH   5   7
ATOM      7  N   UNL     1      49.021   7.171  16.035  0.00  0.00    +0.000 N 
ATOM      8  C   UNL     1      48.848   7.917  17.284  0.00  0.00    +0.000 C 
ATOM      9  C   UNL     1      49.474   7.109  18.445  0.00  0.00    +0.000 C 
ATOM     10  N   UNL     1      48.911   5.743  18.563  0.00  0.00    +0.000 NA
ATOM     11  C   UNL     1      49.575   5.013  19.642  0.00  0.00    +0.000 C 
ATOM     12  C   UNL     1      49.076   5.031  17.272  0.00  0.00    +0.000 C 
ATOM     13  C   UNL     1      48.476   5.803  16.072  0.00  0.00    +0.000 C 
ENDBRANCH   5   7
BRANCH   1  14
ATOM     14  O   UNL     1      51.767   8.360  12.316  0.00  0.00    +0.000 OA
BRANCH  14  16
ATOM     15  C   UNL     1      51.965   7.264  10.210  0.00  0.00    +0.000 C 
ATOM     16  C   UNL     1      51.839   8.604  10.912  0.00  0.00    +0.000 C 
ENDBRANCH  14  16
ENDBRANCH   1  14
BRANCH   3  17
ATOM     17  C   UNL     1      46.902   9.453  12.187  0.00  0.00    +0.000 C 
BRANCH  17  18
ATOM     18  C   UNL     1      45.591   9.082  12.894  0.00  0.00    +0.000 C 
BRANCH  18  19
ATOM     19  N   UNL     1      44.515   8.693  11.977  0.00  0.00    +0.000 N 
ATOM     20  C   UNL     1      44.401   7.284  11.917  0.00  0.00    +0.000 A 
ATOM     21  C   UNL     1      43.426   6.721  11.107  0.00  0.00    +0.000 A 
ATOM     22  C   UNL     1      43.293   5.331  11.070  0.00  0.00    +0.000 A 
ATOM     23  C   UNL     1      44.141   4.516  11.836  0.00  0.00    +0.000 A 
ATOM     24  C   UNL     1      45.099   5.147  12.627  0.00  0.00    +0.000 A 
ATOM     25  C   UNL     1      46.091   4.454  13.511  0.00  0.00    +0.000 C 
ATOM     26  N   UNL     1      45.214   6.506  12.660  0.00  0.00    +0.000 NA
ATOM     27  H   UNL     1      44.670   9.042  11.035  0.00  0.00    +0.000 HD
BRANCH  23  28
ATOM     28  C   UNL     1      43.966   3.041  11.807  0.00  0.00    +0.000 C 
ATOM     29  N   UNL     1      44.507   2.367  10.746  0.00  0.00    +0.000 N 
ATOM     30  O   UNL     1      43.369   2.426  12.682  0.00  0.00    +0.000 OA
ATOM     31  H   UNL     1      45.119   2.787  10.061  0.00  0.00    +0.000 HD
ATOM     32  H   UNL     1      44.433   1.357  10.763  0.00  0.00    +0.000 HD
ENDBRANCH  23  28
ENDBRANCH  18  19
ENDBRANCH  17  18
ENDBRANCH   3  17
TORSDOF 7
ENDMDL
