MODEL 1
REMARK VINA RESULT:    -7.841      0.000      0.000
REMARK INTER + INTRA:         -13.021
REMARK INTER:                 -11.738
REMARK INTRA:                  -1.283
REMARK UNBOUND:                -1.283
REMARK  Name = 
REMARK  10 active torsions:
REMARK  status: ('A' for Active; 'I' for Inactive)
REMARK    1  A    between atoms: C_1  and  C_2
REMARK    2  A    between atoms: C_2  and  C_3
REMARK    3  A    between atoms: C_3  and  N_4
REMARK    4  A    between atoms: C_3  and  C_26
REMARK    5  A    between atoms: N_4  and  C_5
REMARK    6  A    between atoms: C_5  and  C_6
REMARK    7  A    between atoms: C_9  and  C_10
REMARK    8  A    between atoms: C_10  and  N_11
REMARK    9  A    between atoms: C_12  and  C_14
REMARK   10  A    between atoms: C_21  and  O_22
REMARK                            x       y       z     vdW  Elec       q    Type
REMARK                         _______ _______ _______ _____ _____    ______ ____
ROOT
ATOM      1  C   UNL     1      45.167   6.475  11.238  0.00  0.00    +0.000 A 
ATOM      2  C   UNL     1      46.499   6.093  11.448  0.00  0.00    +0.000 A 
ATOM      3  C   UNL     1      47.321   6.814  12.321  0.00  0.00    +0.000 A 
ATOM      4  C   UNL     1      46.828   7.937  13.000  0.00  0.00    +0.000 A 
ATOM      5  C   UNL     1      45.513   8.350  12.753  0.00  0.00    +0.000 A 
ATOM      6  C   UNL     1      44.690   7.622  11.889  0.00  0.00    +0.000 A 
ENDROOT
BRANCH   1   7
ATOM      7  C   UNL     1      44.263   5.702  10.300  0.00  0.00    +0.000 C 
BRANCH   7   8
ATOM      8  N   UNL     1      45.020   4.998   9.265  0.00  0.00    +0.000 NA
ATOM      9  H   UNL     1      44.802   5.401   8.355  0.00  0.00    +0.000 HD
BRANCH   8  10
ATOM     10  C   UNL     1      44.785   3.545   9.228  0.00  0.00    +0.000 C 
BRANCH  10  11
ATOM     11  C   UNL     1      45.682   2.842   8.200  0.00  0.00    +0.000 A 
ATOM     12  C   UNL     1      46.099   1.507   8.343  0.00  0.00    +0.000 A 
ATOM     13  C   UNL     1      46.914   0.895   7.386  0.00  0.00    +0.000 A 
ATOM     14  C   UNL     1      47.330   1.609   6.267  0.00  0.00    +0.000 A 
ATOM     15  C   UNL     1      46.934   2.934   6.106  0.00  0.00    +0.000 A 
ATOM     16  C   UNL     1      46.114   3.545   7.063  0.00  0.00    +0.000 A 
ENDBRANCH  10  11
BRANCH  10  18
ATOM     17  C   UNL     1      43.431   2.774  11.308  0.00  0.00    +0.000 C 
ATOM     18  C   UNL     1      44.788   2.873  10.625  0.00  0.00    +0.000 C 
ENDBRANCH  10  18
ENDBRANCH   8  10
ENDBRANCH   7   8
ENDBRANCH   1   7
BRANCH   4  19
ATOM     19  C   UNL     1      47.702   8.706  13.953  0.00  0.00    +0.000 C 
BRANCH  19  20
ATOM     20  N   UNL     1      48.113   7.881  15.058  0.00  0.00    +0.000 N 
ATOM     21  C   UNL     1      49.366   7.334  15.115  0.00  0.00    +0.000 C 
ATOM     22  O   UNL     1      50.228   7.587  14.279  0.00  0.00    +0.000 OA
ATOM     23  H   UNL     1      47.390   7.484  15.648  0.00  0.00    +0.000 HD
BRANCH  21  24
ATOM     24  C   UNL     1      49.640   6.477  16.276  0.00  0.00    +0.000 A 
ATOM     25  C   UNL     1      50.773   6.723  17.041  0.00  0.00    +0.000 A 
ATOM     26  S   UNL     1      50.915   5.699  18.391  0.00  0.00    +0.000 S 
ATOM     27  C   UNL     1      49.502   4.858  17.966  0.00  0.00    +0.000 A 
ATOM     28  N   UNL     1      49.083   3.827  18.731  0.00  0.00    +0.000 NA
ATOM     29  C   UNL     1      47.970   3.219  18.293  0.00  0.00    +0.000 A 
ATOM     30  C   UNL     1      47.264   3.569  17.161  0.00  0.00    +0.000 A 
ATOM     31  C   UNL     1      47.730   4.643  16.409  0.00  0.00    +0.000 A 
ATOM     32  C   UNL     1      48.896   5.345  16.808  0.00  0.00    +0.000 A 
BRANCH  31  33
ATOM     33  O   UNL     1      47.043   5.011  15.277  0.00  0.00    +0.000 OA
ATOM     34  H   UNL     1      46.119   4.715  15.348  0.00  0.00    +0.000 HD
ENDBRANCH  31  33
ENDBRANCH  21  24
ENDBRANCH  19  20
ENDBRANCH   4  19
TORSDOF 9
ENDMDL
MODEL 2
REMARK VINA RESULT:    -7.356      2.064      2.329
REMARK INTER + INTRA:         -12.294
REMARK INTER:                 -11.076
REMARK INTRA:                  -1.218
REMARK UNBOUND:                -1.283
REMARK  Name = 
REMARK  10 active torsions:
REMARK  status: ('A' for Active; 'I' for Inactive)
REMARK    1  A    between atoms: C_1  and  C_2
REMARK    2  A    between atoms: C_2  and  C_3
REMARK    3  A    between atoms: C_3  and  N_4
REMARK    4  A    between atoms: C_3  and  C_26
REMARK    5  A    between atoms: N_4  and  C_5
REMARK    6  A    between atoms: C_5  and  C_6
REMARK    7  A    between atoms: C_9  and  C_10
REMARK    8  A    between atoms: C_10  and  N_11
REMARK    9  A    between atoms: C_12  and  C_14
REMARK   10  A    between atoms: C_21  and  O_22
REMARK                            x       y       z     vdW  Elec       q    Type
REMARK                         _______ _______ _______ _____ _____    ______ ____
ROOT
ATOM      1  C   UNL     1      45.493   6.599  11.832  0.00  0.00    +0.000 A 
ATOM      2  C   UNL     1      46.641   5.878  12.185  0.00  0.00    +0.000 A 
ATOM      3  C   UNL     1      47.580   6.415  13.073  0.00  0.00    +0.000 A 
ATOM      4  C   UNL     1      47.389   7.689  13.626  0.00  0.00    +0.000 A 
ATOM      5  C   UNL     1      46.268   8.432  13.236  0.00  0.00    +0.000 A 
ATOM      6  C   UNL     1      45.327   7.889  12.356  0.00  0.00    +0.000 A 
ENDROOT
BRANCH   1   7
ATOM      7  C   UNL     1      44.465   6.030  10.876  0.00  0.00    +0.000 C 
BRANCH   7   8
ATOM      8  N   UNL     1      45.090   5.306   9.768  0.00  0.00    +0.000 NA
ATOM      9  H   UNL     1      44.854   5.765   8.890  0.00  0.00    +0.000 HD
BRANCH   8  10
ATOM     10  C   UNL     1      44.721   3.882   9.693  0.00  0.00    +0.000 C 
BRANCH  10  11
ATOM     11  C   UNL     1      45.549   3.127   8.645  0.00  0.00    +0.000 A 
ATOM     12  C   UNL     1      45.771   1.740   8.707  0.00  0.00    +0.000 A 
ATOM     13  C   UNL     1      46.527   1.082   7.733  0.00  0.00    +0.000 A 
ATOM     14  C   UNL     1      47.081   1.800   6.678  0.00  0.00    +0.000 A 
ATOM     15  C   UNL     1      46.879   3.175   6.598  0.00  0.00    +0.000 A 
ATOM     16  C   UNL     1      46.117   3.834   7.571  0.00  0.00    +0.000 A 
ENDBRANCH  10  11
BRANCH  10  18
ATOM     17  C   UNL     1      43.276   2.741  11.527  0.00  0.00    +0.000 C 
ATOM     18  C   UNL     1      44.662   3.176  11.072  0.00  0.00    +0.000 C 
ENDBRANCH  10  18
ENDBRANCH   8  10
ENDBRANCH   7   8
ENDBRANCH   1   7
BRANCH   4  19
ATOM     19  C   UNL     1      48.386   8.265  14.595  0.00  0.00    +0.000 C 
BRANCH  19  20
ATOM     20  N   UNL     1      48.243   7.670  15.897  0.00  0.00    +0.000 N 
ATOM     21  C   UNL     1      49.143   6.752  16.366  0.00  0.00    +0.000 C 
ATOM     22  O   UNL     1      50.158   6.454  15.744  0.00  0.00    +0.000 OA
ATOM     23  H   UNL     1      47.336   7.723  16.347  0.00  0.00    +0.000 HD
BRANCH  21  24
ATOM     24  C   UNL     1      48.855   6.191  17.693  0.00  0.00    +0.000 A 
ATOM     25  C   UNL     1      49.086   4.839  17.917  0.00  0.00    +0.000 A 
ATOM     26  S   UNL     1      48.777   4.355  19.517  0.00  0.00    +0.000 S 
ATOM     27  C   UNL     1      48.271   5.919  19.947  0.00  0.00    +0.000 A 
ATOM     28  N   UNL     1      47.855   6.161  21.208  0.00  0.00    +0.000 NA
ATOM     29  C   UNL     1      47.457   7.423  21.434  0.00  0.00    +0.000 A 
ATOM     30  C   UNL     1      47.448   8.436  20.498  0.00  0.00    +0.000 A 
ATOM     31  C   UNL     1      47.895   8.139  19.214  0.00  0.00    +0.000 A 
ATOM     32  C   UNL     1      48.340   6.831  18.894  0.00  0.00    +0.000 A 
BRANCH  31  33
ATOM     33  O   UNL     1      47.896   9.132  18.263  0.00  0.00    +0.000 OA
ATOM     34  H   UNL     1      47.863   8.732  17.377  0.00  0.00    +0.000 HD
ENDBRANCH  31  33
ENDBRANCH  21  24
ENDBRANCH  19  20
ENDBRANCH   4  19
TORSDOF 9
ENDMDL
MODEL 3
REMARK VINA RESULT:    -7.346      1.577      1.891
REMARK INTER + INTRA:         -12.280
REMARK INTER:                 -11.043
REMARK INTRA:                  -1.237
REMARK UNBOUND:                -1.283
REMARK  Name = 
REMARK  10 active torsions:
REMARK  status: ('A' for Active; 'I' for Inactive)
REMARK    1  A    between atoms: C_1  and  C_2
REMARK    2  A    between atoms: C_2  and  C_3
REMARK    3  A    between atoms: C_3  and  N_4
REMARK    4  A    between atoms: C_3  and  C_26
REMARK    5  A    between atoms: N_4  and  C_5
REMARK    6  A    between atoms: C_5  and  C_6
REMARK    7  A    between atoms: C_9  and  C_10
REMARK    8  A    between atoms: C_10  and  N_11
REMARK    9  A    between atoms: C_12  and  C_14
REMARK   10  A    between atoms: C_21  and  O_22
REMARK                            x       y       z     vdW  Elec       q    Type
REMARK                         _______ _______ _______ _____ _____    ______ ____
ROOT
ATOM      1  C   UNL     1      45.032   6.550  11.557  0.00  0.00    +0.000 A 
ATOM      2  C   UNL     1      44.754   7.902  11.799  0.00  0.00    +0.000 A 
ATOM      3  C   UNL     1      45.654   8.703  12.511  0.00  0.00    +0.000 A 
ATOM      4  C   UNL     1      46.853   8.165  12.999  0.00  0.00    +0.000 A 
ATOM      5  C   UNL     1      47.110   6.803  12.801  0.00  0.00    +0.000 A 
ATOM      6  C   UNL     1      46.214   6.008  12.081  0.00  0.00    +0.000 A 
ENDROOT
BRANCH   1   7
ATOM      7  C   UNL     1      44.070   5.672  10.784  0.00  0.00    +0.000 C 
BRANCH   7   8
ATOM      8  N   UNL     1      44.709   5.049   9.624  0.00  0.00    +0.000 NA
ATOM      9  H   UNL     1      44.327   5.454   8.771  0.00  0.00    +0.000 HD
BRANCH   8  10
ATOM     10  C   UNL     1      44.575   3.583   9.576  0.00  0.00    +0.000 C 
BRANCH  10  11
ATOM     11  C   UNL     1      45.490   2.955   8.516  0.00  0.00    +0.000 A 
ATOM     12  C   UNL     1      45.874   1.603   8.550  0.00  0.00    +0.000 A 
ATOM     13  C   UNL     1      46.707   1.061   7.567  0.00  0.00    +0.000 A 
ATOM     14  C   UNL     1      47.175   1.864   6.531  0.00  0.00    +0.000 A 
ATOM     15  C   UNL     1      46.812   3.207   6.479  0.00  0.00    +0.000 A 
ATOM     16  C   UNL     1      45.974   3.748   7.462  0.00  0.00    +0.000 A 
ENDBRANCH  10  11
BRANCH  10  18
ATOM     17  C   UNL     1      43.328   2.553  11.610  0.00  0.00    +0.000 C 
ATOM     18  C   UNL     1      44.662   2.899  10.965  0.00  0.00    +0.000 C 
ENDBRANCH  10  18
ENDBRANCH   8  10
ENDBRANCH   7   8
ENDBRANCH   1   7
BRANCH   4  19
ATOM     19  C   UNL     1      47.833   9.025  13.750  0.00  0.00    +0.000 C 
BRANCH  19  20
ATOM     20  N   UNL     1      47.747   8.788  15.167  0.00  0.00    +0.000 N 
ATOM     21  C   UNL     1      48.701   8.063  15.830  0.00  0.00    +0.000 C 
ATOM     22  O   UNL     1      49.716   7.655  15.274  0.00  0.00    +0.000 OA
ATOM     23  H   UNL     1      46.848   8.919  15.617  0.00  0.00    +0.000 HD
BRANCH  21  24
ATOM     24  C   UNL     1      48.470   7.859  17.266  0.00  0.00    +0.000 A 
ATOM     25  C   UNL     1      48.045   8.933  18.038  0.00  0.00    +0.000 A 
ATOM     26  S   UNL     1      47.749   8.525  19.662  0.00  0.00    +0.000 S 
ATOM     27  C   UNL     1      48.233   6.918  19.400  0.00  0.00    +0.000 A 
ATOM     28  N   UNL     1      48.223   6.043  20.429  0.00  0.00    +0.000 NA
ATOM     29  C   UNL     1      48.645   4.808  20.117  0.00  0.00    +0.000 A 
ATOM     30  C   UNL     1      49.067   4.401  18.869  0.00  0.00    +0.000 A 
ATOM     31  C   UNL     1      49.051   5.337  17.839  0.00  0.00    +0.000 A 
ATOM     32  C   UNL     1      48.612   6.662  18.082  0.00  0.00    +0.000 A 
BRANCH  31  33
ATOM     33  O   UNL     1      49.467   4.954  16.586  0.00  0.00    +0.000 OA
ATOM     34  H   UNL     1      50.204   5.523  16.302  0.00  0.00    +0.000 HD
ENDBRANCH  31  33
ENDBRANCH  21  24
ENDBRANCH  19  20
ENDBRANCH   4  19
TORSDOF 9
ENDMDL
MODEL 4
REMARK VINA RESULT:    -7.343      3.475      6.476
REMARK INTER + INTRA:         -12.275
REMARK INTER:                 -11.218
REMARK INTRA:                  -1.058
REMARK UNBOUND:                -1.283
REMARK  Name = 
REMARK  10 active torsions:
REMARK  status: ('A' for Active; 'I' for Inactive)
REMARK    1  A    between atoms: C_1  and  C_2
REMARK    2  A    between atoms: C_2  and  C_3
REMARK    3  A    between atoms: C_3  and  N_4
REMARK    4  A    between atoms: C_3  and  C_26
REMARK    5  A    between atoms: N_4  and  C_5
REMARK    6  A    between atoms: C_5  and  C_6
REMARK    7  A    between atoms: C_9  and  C_10
REMARK    8  A    between atoms: C_10  and  N_11
REMARK    9  A    between atoms: C_12  and  C_14
REMARK   10  A    between atoms: C_21  and  O_22
REMARK                            x       y       z     vdW  Elec       q    Type
REMARK                         _______ _______ _______ _____ _____    ______ ____
ROOT
ATOM      1  C   UNL     1      46.713   2.160   7.006  0.00  0.00    +0.000 A 
ATOM      2  C   UNL     1      46.178   1.403   8.058  0.00  0.00    +0.000 A 
ATOM      3  C   UNL     1      45.361   1.999   9.025  0.00  0.00    +0.000 A 
ATOM      4  C   UNL     1      45.064   3.367   8.961  0.00  0.00    +0.000 A 
ATOM      5  C   UNL     1      45.638   4.135   7.939  0.00  0.00    +0.000 A 
ATOM      6  C   UNL     1      46.445   3.535   6.969  0.00  0.00    +0.000 A 
ENDROOT
BRANCH   1   7
ATOM      7  C   UNL     1      47.595   1.529   5.948  0.00  0.00    +0.000 C 
BRANCH   7   8
ATOM      8  N   UNL     1      47.050   0.259   5.467  0.00  0.00    +0.000 NA
ATOM      9  H   UNL     1      47.551  -0.511   5.907  0.00  0.00    +0.000 HD
BRANCH   8  10
ATOM     10  C   UNL     1      47.091   0.099   4.003  0.00  0.00    +0.000 C 
BRANCH  10  11
ATOM     11  C   UNL     1      47.146  -1.376   3.585  0.00  0.00    +0.000 A 
ATOM     12  C   UNL     1      46.483  -2.391   4.297  0.00  0.00    +0.000 A 
ATOM     13  C   UNL     1      46.550  -3.726   3.887  0.00  0.00    +0.000 A 
ATOM     14  C   UNL     1      47.286  -4.072   2.758  0.00  0.00    +0.000 A 
ATOM     15  C   UNL     1      47.955  -3.084   2.041  0.00  0.00    +0.000 A 
ATOM     16  C   UNL     1      47.884  -1.747   2.449  0.00  0.00    +0.000 A 
ENDBRANCH  10  11
BRANCH  10  18
ATOM     17  C   UNL     1      45.203   0.157   2.219  0.00  0.00    +0.000 C 
ATOM     18  C   UNL     1      46.015   0.924   3.252  0.00  0.00    +0.000 C 
ENDBRANCH  10  18
ENDBRANCH   8  10
ENDBRANCH   7   8
ENDBRANCH   1   7
BRANCH   4  19
ATOM     19  C   UNL     1      44.173   4.010   9.989  0.00  0.00    +0.000 C 
BRANCH  19  20
ATOM     20  N   UNL     1      44.758   5.223  10.494  0.00  0.00    +0.000 N 
ATOM     21  C   UNL     1      45.071   5.369  11.819  0.00  0.00    +0.000 C 
ATOM     22  O   UNL     1      44.951   4.450  12.624  0.00  0.00    +0.000 OA
ATOM     23  H   UNL     1      44.683   6.060   9.926  0.00  0.00    +0.000 HD
BRANCH  21  24
ATOM     24  C   UNL     1      45.623   6.673  12.209  0.00  0.00    +0.000 A 
ATOM     25  C   UNL     1      45.033   7.829  11.713  0.00  0.00    +0.000 A 
ATOM     26  S   UNL     1      45.734   9.258  12.311  0.00  0.00    +0.000 S 
ATOM     27  C   UNL     1      46.883   8.381  13.204  0.00  0.00    +0.000 A 
ATOM     28  N   UNL     1      47.805   9.043  13.936  0.00  0.00    +0.000 NA
ATOM     29  C   UNL     1      48.677   8.255  14.583  0.00  0.00    +0.000 A 
ATOM     30  C   UNL     1      48.686   6.877  14.545  0.00  0.00    +0.000 A 
ATOM     31  C   UNL     1      47.711   6.240  13.784  0.00  0.00    +0.000 A 
ATOM     32  C   UNL     1      46.746   6.999  13.074  0.00  0.00    +0.000 A 
BRANCH  31  33
ATOM     33  O   UNL     1      47.700   4.866  13.730  0.00  0.00    +0.000 OA
ATOM     34  H   UNL     1      46.800   4.543  13.908  0.00  0.00    +0.000 HD
ENDBRANCH  31  33
ENDBRANCH  21  24
ENDBRANCH  19  20
ENDBRANCH   4  19
TORSDOF 9
ENDMDL
MODEL 5
REMARK VINA RESULT:    -7.260      2.880      8.518
REMARK INTER + INTRA:         -12.151
REMARK INTER:                 -10.011
REMARK INTRA:                  -2.140
REMARK UNBOUND:                -1.283
REMARK  Name = 
REMARK  10 active torsions:
REMARK  status: ('A' for Active; 'I' for Inactive)
REMARK    1  A    between atoms: C_1  and  C_2
REMARK    2  A    between atoms: C_2  and  C_3
REMARK    3  A    between atoms: C_3  and  N_4
REMARK    4  A    between atoms: C_3  and  C_26
REMARK    5  A    between atoms: N_4  and  C_5
REMARK    6  A    between atoms: C_5  and  C_6
REMARK    7  A    between atoms: C_9  and  C_10
REMARK    8  A    between atoms: C_10  and  N_11
REMARK    9  A    between atoms: C_12  and  C_14
REMARK   10  A    between atoms: C_21  and  O_22
REMARK                            x       y       z     vdW  Elec       q    Type
REMARK                         _______ _______ _______ _____ _____    ______ ____
ROOT
ATOM      1  C   UNL     1      48.952   7.893  16.227  0.00  0.00    +0.000 A 
ATOM      2  C   UNL     1      49.177   6.772  15.417  0.00  0.00    +0.000 A 
ATOM      3  C   UNL     1      48.731   6.745  14.091  0.00  0.00    +0.000 A 
ATOM      4  C   UNL     1      48.047   7.841  13.548  0.00  0.00    +0.000 A 
ATOM      5  C   UNL     1      47.778   8.943  14.370  0.00  0.00    +0.000 A 
ATOM      6  C   UNL     1      48.233   8.971  15.691  0.00  0.00    +0.000 A 
ENDROOT
BRANCH   1   7
ATOM      7  C   UNL     1      49.433   7.939  17.663  0.00  0.00    +0.000 C 
BRANCH   7   8
ATOM      8  N   UNL     1      48.385   7.546  18.604  0.00  0.00    +0.000 NA
ATOM      9  H   UNL     1      48.206   8.313  19.251  0.00  0.00    +0.000 HD
BRANCH   8  10
ATOM     10  C   UNL     1      48.685   6.321  19.366  0.00  0.00    +0.000 C 
BRANCH  10  11
ATOM     11  C   UNL     1      48.580   5.061  18.496  0.00  0.00    +0.000 A 
ATOM     12  C   UNL     1      49.677   4.219  18.243  0.00  0.00    +0.000 A 
ATOM     13  C   UNL     1      49.546   3.077  17.449  0.00  0.00    +0.000 A 
ATOM     14  C   UNL     1      48.313   2.755  16.888  0.00  0.00    +0.000 A 
ATOM     15  C   UNL     1      47.214   3.577  17.121  0.00  0.00    +0.000 A 
ATOM     16  C   UNL     1      47.344   4.719  17.921  0.00  0.00    +0.000 A 
ENDBRANCH  10  11
BRANCH  10  18
ATOM     17  C   UNL     1      49.868   6.008  21.658  0.00  0.00    +0.000 C 
ATOM     18  C   UNL     1      49.994   6.403  20.194  0.00  0.00    +0.000 C 
ENDBRANCH  10  18
ENDBRANCH   8  10
ENDBRANCH   7   8
ENDBRANCH   1   7
BRANCH   4  19
ATOM     19  C   UNL     1      47.580   7.826  12.117  0.00  0.00    +0.000 C 
BRANCH  19  20
ATOM     20  N   UNL     1      46.887   6.602  11.814  0.00  0.00    +0.000 N 
ATOM     21  C   UNL     1      45.546   6.461  12.052  0.00  0.00    +0.000 C 
ATOM     22  O   UNL     1      44.852   7.391  12.450  0.00  0.00    +0.000 OA
ATOM     23  H   UNL     1      47.440   5.762  11.685  0.00  0.00    +0.000 HD
BRANCH  21  24
ATOM     24  C   UNL     1      44.973   5.146  11.737  0.00  0.00    +0.000 A 
ATOM     25  C   UNL     1      44.339   4.430  12.744  0.00  0.00    +0.000 A 
ATOM     26  S   UNL     1      43.662   2.964  12.210  0.00  0.00    +0.000 S 
ATOM     27  C   UNL     1      44.243   3.210  10.634  0.00  0.00    +0.000 A 
ATOM     28  N   UNL     1      44.006   2.281   9.683  0.00  0.00    +0.000 NA
ATOM     29  C   UNL     1      44.528   2.565   8.479  0.00  0.00    +0.000 A 
ATOM     30  C   UNL     1      45.258   3.694   8.174  0.00  0.00    +0.000 A 
ATOM     31  C   UNL     1      45.469   4.627   9.185  0.00  0.00    +0.000 A 
ATOM     32  C   UNL     1      44.944   4.407  10.483  0.00  0.00    +0.000 A 
BRANCH  31  33
ATOM     33  O   UNL     1      46.194   5.761   8.904  0.00  0.00    +0.000 OA
ATOM     34  H   UNL     1      46.895   5.547   8.264  0.00  0.00    +0.000 HD
ENDBRANCH  31  33
ENDBRANCH  21  24
ENDBRANCH  19  20
ENDBRANCH   4  19
TORSDOF 9
ENDMDL
MODEL 6
REMARK VINA RESULT:    -7.182      3.941      7.081
REMARK INTER + INTRA:         -12.034
REMARK INTER:                 -11.131
REMARK INTRA:                  -0.903
REMARK UNBOUND:                -1.283
REMARK  Name = 
REMARK  10 active torsions:
REMARK  status: ('A' for Active; 'I' for Inactive)
REMARK    1  A    between atoms: C_1  and  C_2
REMARK    2  A    between atoms: C_2  and  C_3
REMARK    3  A    between atoms: C_3  and  N_4
REMARK    4  A    between atoms: C_3  and  C_26
REMARK    5  A    between atoms: N_4  and  C_5
REMARK    6  A    between atoms: C_5  and  C_6
REMARK    7  A    between atoms: C_9  and  C_10
REMARK    8  A    between atoms: C_10  and  N_11
REMARK    9  A    between atoms: C_12  and  C_14
REMARK   10  A    between atoms: C_21  and  O_22
REMARK                            x       y       z     vdW  Elec       q    Type
REMARK                         _______ _______ _______ _____ _____    ______ ____
ROOT
ATOM      1  C   UNL     1      46.684   2.200   7.370  0.00  0.00    +0.000 A 
ATOM      2  C   UNL     1      46.578   3.596   7.307  0.00  0.00    +0.000 A 
ATOM      3  C   UNL     1      45.725   4.289   8.175  0.00  0.00    +0.000 A 
ATOM      4  C   UNL     1      44.959   3.596   9.122  0.00  0.00    +0.000 A 
ATOM      5  C   UNL     1      45.026   2.198   9.153  0.00  0.00    +0.000 A 
ATOM      6  C   UNL     1      45.886   1.510   8.292  0.00  0.00    +0.000 A 
ENDROOT
BRANCH   1   7
ATOM      7  C   UNL     1      47.606   1.437   6.441  0.00  0.00    +0.000 C 
BRANCH   7   8
ATOM      8  N   UNL     1      46.927   0.313   5.797  0.00  0.00    +0.000 NA
ATOM      9  H   UNL     1      47.243  -0.559   6.218  0.00  0.00    +0.000 HD
BRANCH   8  10
ATOM     10  C   UNL     1      47.115   0.250   4.337  0.00  0.00    +0.000 C 
BRANCH  10  11
ATOM     11  C   UNL     1      47.093  -1.193   3.815  0.00  0.00    +0.000 A 
ATOM     12  C   UNL     1      46.571  -2.263   4.563  0.00  0.00    +0.000 A 
ATOM     13  C   UNL     1      46.563  -3.566   4.057  0.00  0.00    +0.000 A 
ATOM     14  C   UNL     1      47.081  -3.825   2.792  0.00  0.00    +0.000 A 
ATOM     15  C   UNL     1      47.609  -2.782   2.035  0.00  0.00    +0.000 A 
ATOM     16  C   UNL     1      47.613  -1.476   2.541  0.00  0.00    +0.000 A 
ENDBRANCH  10  11
BRANCH  10  18
ATOM     17  C   UNL     1      45.338   0.571   2.469  0.00  0.00    +0.000 C 
ATOM     18  C   UNL     1      46.199   1.217   3.544  0.00  0.00    +0.000 C 
ENDBRANCH  10  18
ENDBRANCH   8  10
ENDBRANCH   7   8
ENDBRANCH   1   7
BRANCH   4  19
ATOM     19  C   UNL     1      44.053   4.337  10.069  0.00  0.00    +0.000 C 
BRANCH  19  20
ATOM     20  N   UNL     1      44.641   5.585  10.477  0.00  0.00    +0.000 N 
ATOM     21  C   UNL     1      44.991   5.819  11.780  0.00  0.00    +0.000 C 
ATOM     22  O   UNL     1      44.904   4.954  12.646  0.00  0.00    +0.000 OA
ATOM     23  H   UNL     1      44.541   6.382   9.858  0.00  0.00    +0.000 HD
BRANCH  21  24
ATOM     24  C   UNL     1      45.541   7.150  12.067  0.00  0.00    +0.000 A 
ATOM     25  C   UNL     1      46.752   7.246  12.741  0.00  0.00    +0.000 A 
ATOM     26  S   UNL     1      47.295   8.846  12.934  0.00  0.00    +0.000 S 
ATOM     27  C   UNL     1      45.905   9.464  12.177  0.00  0.00    +0.000 A 
ATOM     28  N   UNL     1      45.756  10.799  12.043  0.00  0.00    +0.000 NA
ATOM     29  C   UNL     1      44.613  11.179  11.452  0.00  0.00    +0.000 A 
ATOM     30  C   UNL     1      43.630  10.326  10.995  0.00  0.00    +0.000 A 
ATOM     31  C   UNL     1      43.833   8.958  11.148  0.00  0.00    +0.000 A 
ATOM     32  C   UNL     1      45.018   8.473  11.756  0.00  0.00    +0.000 A 
BRANCH  31  33
ATOM     33  O   UNL     1      42.867   8.088  10.701  0.00  0.00    +0.000 OA
ATOM     34  H   UNL     1      41.999   8.364  11.043  0.00  0.00    +0.000 HD
ENDBRANCH  31  33
ENDBRANCH  21  24
ENDBRANCH  19  20
ENDBRANCH   4  19
TORSDOF 9
ENDMDL
MODEL 7
REMARK VINA RESULT:    -6.716      3.495      6.321
REMARK INTER + INTRA:         -11.337
REMARK INTER:                 -10.074
REMARK INTRA:                  -1.262
REMARK UNBOUND:                -1.283
REMARK  Name = 
REMARK  10 active torsions:
REMARK  status: ('A' for Active; 'I' for Inactive)
REMARK    1  A    between atoms: C_1  and  C_2
REMARK    2  A    between atoms: C_2  and  C_3
REMARK    3  A    between atoms: C_3  and  N_4
REMARK    4  A    between atoms: C_3  and  C_26
REMARK    5  A    between atoms: N_4  and  C_5
REMARK    6  A    between atoms: C_5  and  C_6
REMARK    7  A    between atoms: C_9  and  C_10
REMARK    8  A    between atoms: C_10  and  N_11
REMARK    9  A    between atoms: C_12  and  C_14
REMARK   10  A    between atoms: C_21  and  O_22
REMARK                            x       y       z     vdW  Elec       q    Type
REMARK                         _______ _______ _______ _____ _____    ______ ____
ROOT
ATOM      1  C   UNL     1      46.795   2.062   6.789  0.00  0.00    +0.000 A 
ATOM      2  C   UNL     1      46.260   1.365   7.881  0.00  0.00    +0.000 A 
ATOM      3  C   UNL     1      45.505   2.029   8.854  0.00  0.00    +0.000 A 
ATOM      4  C   UNL     1      45.272   3.407   8.756  0.00  0.00    +0.000 A 
ATOM      5  C   UNL     1      45.846   4.115   7.692  0.00  0.00    +0.000 A 
ATOM      6  C   UNL     1      46.592   3.447   6.716  0.00  0.00    +0.000 A 
ENDROOT
BRANCH   1   7
ATOM      7  C   UNL     1      47.610   1.357   5.724  0.00  0.00    +0.000 C 
BRANCH   7   8
ATOM      8  N   UNL     1      46.954   0.138   5.251  0.00  0.00    +0.000 NA
ATOM      9  H   UNL     1      47.225  -0.644   5.845  0.00  0.00    +0.000 HD
BRANCH   8  10
ATOM     10  C   UNL     1      47.238  -0.194   3.844  0.00  0.00    +0.000 C 
BRANCH  10  11
ATOM     11  C   UNL     1      47.044  -1.688   3.553  0.00  0.00    +0.000 A 
ATOM     12  C   UNL     1      47.259  -2.248   2.281  0.00  0.00    +0.000 A 
ATOM     13  C   UNL     1      47.077  -3.614   2.051  0.00  0.00    +0.000 A 
ATOM     14  C   UNL     1      46.671  -4.448   3.088  0.00  0.00    +0.000 A 
ATOM     15  C   UNL     1      46.448  -3.915   4.355  0.00  0.00    +0.000 A 
ATOM     16  C   UNL     1      46.635  -2.546   4.587  0.00  0.00    +0.000 A 
ENDBRANCH  10  11
BRANCH  10  18
ATOM     17  C   UNL     1      45.052   0.478   2.610  0.00  0.00    +0.000 C 
ATOM     18  C   UNL     1      46.535   0.740   2.825  0.00  0.00    +0.000 C 
ENDBRANCH  10  18
ENDBRANCH   8  10
ENDBRANCH   7   8
ENDBRANCH   1   7
BRANCH   4  19
ATOM     19  C   UNL     1      44.446   4.124   9.790  0.00  0.00    +0.000 C 
BRANCH  19  20
ATOM     20  N   UNL     1      45.161   4.235  11.034  0.00  0.00    +0.000 N 
ATOM     21  C   UNL     1      45.612   5.442  11.495  0.00  0.00    +0.000 C 
ATOM     22  O   UNL     1      45.359   6.497  10.921  0.00  0.00    +0.000 OA
ATOM     23  H   UNL     1      45.566   3.392  11.426  0.00  0.00    +0.000 HD
BRANCH  21  24
ATOM     24  C   UNL     1      46.364   5.408  12.756  0.00  0.00    +0.000 A 
ATOM     25  C   UNL     1      45.981   4.509  13.743  0.00  0.00    +0.000 A 
ATOM     26  S   UNL     1      46.989   4.534  15.112  0.00  0.00    +0.000 S 
ATOM     27  C   UNL     1      47.933   5.785  14.457  0.00  0.00    +0.000 A 
ATOM     28  N   UNL     1      48.971   6.279  15.166  0.00  0.00    +0.000 NA
ATOM     29  C   UNL     1      49.635   7.279  14.565  0.00  0.00    +0.000 A 
ATOM     30  C   UNL     1      49.332   7.805  13.327  0.00  0.00    +0.000 A 
ATOM     31  C   UNL     1      48.259   7.257  12.631  0.00  0.00    +0.000 A 
ATOM     32  C   UNL     1      47.510   6.192  13.191  0.00  0.00    +0.000 A 
BRANCH  31  33
ATOM     33  O   UNL     1      47.939   7.765  11.394  0.00  0.00    +0.000 OA
ATOM     34  H   UNL     1      47.946   7.047  10.737  0.00  0.00    +0.000 HD
ENDBRANCH  31  33
ENDBRANCH  21  24
ENDBRANCH  19  20
ENDBRANCH   4  19
TORSDOF 9
ENDMDL
MODEL 8
REMARK VINA RESULT:    -6.624      4.465      6.227
REMARK INTER + INTRA:         -11.198
REMARK INTER:                  -9.911
REMARK INTRA:                  -1.287
REMARK UNBOUND:                -1.283
REMARK  Name = 
REMARK  10 active torsions:
REMARK  status: ('A' for Active; 'I' for Inactive)
REMARK    1  A    between atoms: C_1  and  C_2
REMARK    2  A    between atoms: C_2  and  C_3
REMARK    3  A    between atoms: C_3  and  N_4
REMARK    4  A    between atoms: C_3  and  C_26
REMARK    5  A    between atoms: N_4  and  C_5
REMARK    6  A    between atoms: C_5  and  C_6
REMARK    7  A    between atoms: C_9  and  C_10
REMARK    8  A    between atoms: C_10  and  N_11
REMARK    9  A    between atoms: C_12  and  C_14
REMARK   10  A    between atoms: C_21  and  O_22
REMARK                            x       y       z     vdW  Elec       q    Type
REMARK                         _______ _______ _______ _____ _____    ______ ____
ROOT
ATOM      1  C   UNL     1      45.175   6.931  11.863  0.00  0.00    +0.000 A 
ATOM      2  C   UNL     1      46.432   6.313  11.923  0.00  0.00    +0.000 A 
ATOM      3  C   UNL     1      47.593   7.070  12.112  0.00  0.00    +0.000 A 
ATOM      4  C   UNL     1      47.521   8.464  12.242  0.00  0.00    +0.000 A 
ATOM      5  C   UNL     1      46.272   9.088  12.133  0.00  0.00    +0.000 A 
ATOM      6  C   UNL     1      45.112   8.328  11.955  0.00  0.00    +0.000 A 
ENDROOT
BRANCH   1   7
ATOM      7  C   UNL     1      43.908   6.125  11.665  0.00  0.00    +0.000 C 
BRANCH   7   8
ATOM      8  N   UNL     1      43.827   5.553  10.321  0.00  0.00    +0.000 NA
ATOM      9  H   UNL     1      43.010   5.929   9.843  0.00  0.00    +0.000 HD
BRANCH   8  10
ATOM     10  C   UNL     1      43.780   4.081  10.292  0.00  0.00    +0.000 C 
BRANCH  10  11
ATOM     11  C   UNL     1      44.793   3.491   9.302  0.00  0.00    +0.000 A 
ATOM     12  C   UNL     1      45.025   2.109   9.186  0.00  0.00    +0.000 A 
ATOM     13  C   UNL     1      45.952   1.604   8.271  0.00  0.00    +0.000 A 
ATOM     14  C   UNL     1      46.670   2.473   7.455  0.00  0.00    +0.000 A 
ATOM     15  C   UNL     1      46.460   3.845   7.555  0.00  0.00    +0.000 A 
ATOM     16  C   UNL     1      45.528   4.351   8.469  0.00  0.00    +0.000 A 
ENDBRANCH  10  11
BRANCH  10  18
ATOM     17  C   UNL     1      45.209   3.100  12.228  0.00  0.00    +0.000 C 
ATOM     18  C   UNL     1      43.821   3.425  11.697  0.00  0.00    +0.000 C 
ENDBRANCH  10  18
ENDBRANCH   8  10
ENDBRANCH   7   8
ENDBRANCH   1   7
BRANCH   4  19
ATOM     19  C   UNL     1      48.765   9.282  12.462  0.00  0.00    +0.000 C 
BRANCH  19  20
ATOM     20  N   UNL     1      49.728   9.049  11.418  0.00  0.00    +0.000 N 
ATOM     21  C   UNL     1      50.960   8.516  11.687  0.00  0.00    +0.000 C 
ATOM     22  O   UNL     1      51.275   8.131  12.809  0.00  0.00    +0.000 OA
ATOM     23  H   UNL     1      49.598   9.531  10.536  0.00  0.00    +0.000 HD
BRANCH  21  24
ATOM     24  C   UNL     1      51.862   8.371  10.537  0.00  0.00    +0.000 A 
ATOM     25  C   UNL     1      52.312   7.103  10.191  0.00  0.00    +0.000 A 
ATOM     26  S   UNL     1      53.285   7.087   8.797  0.00  0.00    +0.000 S 
ATOM     27  C   UNL     1      53.185   8.776   8.645  0.00  0.00    +0.000 A 
ATOM     28  N   UNL     1      53.834   9.394   7.635  0.00  0.00    +0.000 NA
ATOM     29  C   UNL     1      53.707  10.730   7.621  0.00  0.00    +0.000 A 
ATOM     30  C   UNL     1      52.988  11.471   8.536  0.00  0.00    +0.000 A 
ATOM     31  C   UNL     1      52.329  10.788   9.553  0.00  0.00    +0.000 A 
ATOM     32  C   UNL     1      52.406   9.375   9.635  0.00  0.00    +0.000 A 
BRANCH  31  33
ATOM     33  O   UNL     1      51.606  11.506  10.476  0.00  0.00    +0.000 OA
ATOM     34  H   UNL     1      50.991  10.910  10.940  0.00  0.00    +0.000 HD
ENDBRANCH  31  33
ENDBRANCH  21  24
ENDBRANCH  19  20
ENDBRANCH   4  19
TORSDOF 9
ENDMDL
MODEL 9
REMARK VINA RESULT:    -6.600      3.879      5.389
REMARK INTER + INTRA:         -11.163
REMARK INTER:                 -10.114
REMARK INTRA:                  -1.049
REMARK UNBOUND:                -1.283
REMARK  Name = 
REMARK  10 active torsions:
REMARK  status: ('A' for Active; 'I' for Inactive)
REMARK    1  A    between atoms: C_1  and  C_2
REMARK    2  A    between atoms: C_2  and  C_3
REMARK    3  A    between atoms: C_3  and  N_4
REMARK    4  A    between atoms: C_3  and  C_26
REMARK    5  A    between atoms: N_4  and  C_5
REMARK    6  A    between atoms: C_5  and  C_6
REMARK    7  A    between atoms: C_9  and  C_10
REMARK    8  A    between atoms: C_10  and  N_11
REMARK    9  A    between atoms: C_12  and  C_14
REMARK   10  A    between atoms: C_21  and  O_22
REMARK                            x       y       z     vdW  Elec       q    Type
REMARK                         _______ _______ _______ _____ _____    ______ ____
ROOT
ATOM      1  C   UNL     1      45.247   6.908  12.043  0.00  0.00    +0.000 A 
ATOM      2  C   UNL     1      46.491   6.308  12.276  0.00  0.00    +0.000 A 
ATOM      3  C   UNL     1      47.542   7.036  12.846  0.00  0.00    +0.000 A 
ATOM      4  C   UNL     1      47.369   8.383  13.192  0.00  0.00    +0.000 A 
ATOM      5  C   UNL     1      46.142   8.998  12.914  0.00  0.00    +0.000 A 
ATOM      6  C   UNL     1      45.091   8.266  12.354  0.00  0.00    +0.000 A 
ENDROOT
BRANCH   1   7
ATOM      7  C   UNL     1      44.098   6.133  11.432  0.00  0.00    +0.000 C 
BRANCH   7   8
ATOM      8  N   UNL     1      44.452   5.562  10.132  0.00  0.00    +0.000 NA
ATOM      9  H   UNL     1      43.987   6.088   9.394  0.00  0.00    +0.000 HD
BRANCH   8  10
ATOM     10  C   UNL     1      44.132   4.131   9.993  0.00  0.00    +0.000 C 
BRANCH  10  11
ATOM     11  C   UNL     1      45.092   3.416   9.033  0.00  0.00    +0.000 A 
ATOM     12  C   UNL     1      45.243   2.019   9.010  0.00  0.00    +0.000 A 
ATOM     13  C   UNL     1      46.124   1.399   8.120  0.00  0.00    +0.000 A 
ATOM     14  C   UNL     1      46.876   2.166   7.236  0.00  0.00    +0.000 A 
ATOM     15  C   UNL     1      46.748   3.552   7.244  0.00  0.00    +0.000 A 
ATOM     16  C   UNL     1      45.861   4.173   8.133  0.00  0.00    +0.000 A 
ENDBRANCH  10  11
BRANCH  10  18
ATOM     17  C   UNL     1      45.209   3.117  12.129  0.00  0.00    +0.000 C 
ATOM     18  C   UNL     1      43.936   3.398  11.345  0.00  0.00    +0.000 C 
ENDBRANCH  10  18
ENDBRANCH   8  10
ENDBRANCH   7   8
ENDBRANCH   1   7
BRANCH   4  19
ATOM     19  C   UNL     1      48.490   9.166  13.821  0.00  0.00    +0.000 C 
BRANCH  19  20
ATOM     20  N   UNL     1      49.592   9.314  12.907  0.00  0.00    +0.000 N 
ATOM     21  C   UNL     1      49.564  10.237  11.896  0.00  0.00    +0.000 C 
ATOM     22  O   UNL     1      48.644  11.039  11.769  0.00  0.00    +0.000 OA
ATOM     23  H   UNL     1      50.261   8.555  12.844  0.00  0.00    +0.000 HD
BRANCH  21  24
ATOM     24  C   UNL     1      50.735  10.253  11.010  0.00  0.00    +0.000 A 
ATOM     25  C   UNL     1      51.169  11.467  10.492  0.00  0.00    +0.000 A 
ATOM     26  S   UNL     1      52.577  11.335   9.547  0.00  0.00    +0.000 S 
ATOM     27  C   UNL     1      52.618   9.649   9.750  0.00  0.00    +0.000 A 
ATOM     28  N   UNL     1      53.595   8.930   9.159  0.00  0.00    +0.000 NA
ATOM     29  C   UNL     1      53.521   7.606   9.366  0.00  0.00    +0.000 A 
ATOM     30  C   UNL     1      52.550   6.970  10.110  0.00  0.00    +0.000 A 
ATOM     31  C   UNL     1      51.568   7.754  10.707  0.00  0.00    +0.000 A 
ATOM     32  C   UNL     1      51.579   9.163  10.544  0.00  0.00    +0.000 A 
BRANCH  31  33
ATOM     33  O   UNL     1      50.589   7.143  11.454  0.00  0.00    +0.000 OA
ATOM     34  H   UNL     1      50.156   7.803  12.023  0.00  0.00    +0.000 HD
ENDBRANCH  31  33
ENDBRANCH  21  24
ENDBRANCH  19  20
ENDBRANCH   4  19
TORSDOF 9
ENDMDL
