MODEL 1
REMARK VINA RESULT:    -8.553      0.000      0.000
REMARK INTER + INTRA:         -11.419
REMARK INTER:                 -11.053
REMARK INTRA:                  -0.366
REMARK UNBOUND:                -0.366
REMARK  Name = 
REMARK  7 active torsions:
REMARK  status: ('A' for Active; 'I' for Inactive)
REMARK    1  A    between atoms: C_1  and  C_2
REMARK    2  A    between atoms: C_2  and  C_3
REMARK    3  A    between atoms: C_2  and  N_4
REMARK    4  A    between atoms: C_2  and  C_17
REMARK    5  A    between atoms: C_5  and  C_7
REMARK    6  A    between atoms: C_20  and  O_21
REMARK    7  A    between atoms: O_21  and  C_22
REMARK                            x       y       z     vdW  Elec       q    Type
REMARK                         _______ _______ _______ _____ _____    ______ ____
ROOT
ATOM      1  C   UNL     1      45.167   8.495  12.858  0.00  0.00    +0.000 C 
ATOM      2  C   UNL     1      46.406   7.591  12.631  0.00  0.00    +0.000 C 
ATOM      3  C   UNL     1      47.513   8.355  11.870  0.00  0.00    +0.000 C 
ENDROOT
BRANCH   2   4
ATOM      4  C   UNL     1      45.930   6.406  11.747  0.00  0.00    +0.000 A 
ATOM      5  C   UNL     1      46.263   6.406  10.374  0.00  0.00    +0.000 A 
ATOM      6  C   UNL     1      45.829   5.406   9.503  0.00  0.00    +0.000 A 
ATOM      7  C   UNL     1      45.121   4.314   9.993  0.00  0.00    +0.000 A 
ATOM      8  C   UNL     1      44.757   4.294  11.338  0.00  0.00    +0.000 A 
ATOM      9  C   UNL     1      45.145   5.332  12.203  0.00  0.00    +0.000 A 
BRANCH   7  10
ATOM     10  O   UNL     1      44.698   3.254   9.220  0.00  0.00    +0.000 OA
BRANCH  10  11
ATOM     11  C   UNL     1      45.553   2.706   8.286  0.00  0.00    +0.000 A 
ATOM     12  C   UNL     1      46.092   1.418   8.377  0.00  0.00    +0.000 A 
ATOM     13  C   UNL     1      46.987   0.961   7.409  0.00  0.00    +0.000 A 
ATOM     14  C   UNL     1      47.293   1.762   6.311  0.00  0.00    +0.000 A 
ATOM     15  C   UNL     1      46.700   3.017   6.177  0.00  0.00    +0.000 A 
ATOM     16  C   UNL     1      45.833   3.490   7.165  0.00  0.00    +0.000 A 
ENDBRANCH  10  11
ENDBRANCH   7  10
ENDBRANCH   2   4
BRANCH   2  17
ATOM     17  N   UNL     1      46.947   7.156  13.935  0.00  0.00    +0.000 N 
ATOM     18  C   UNL     1      48.141   6.479  14.075  0.00  0.00    +0.000 C 
ATOM     19  O   UNL     1      48.871   6.204  13.129  0.00  0.00    +0.000 OA
ATOM     20  H   UNL     1      46.280   7.034  14.686  0.00  0.00    +0.000 HD
BRANCH  18  21
ATOM     21  C   UNL     1      48.557   6.130  15.439  0.00  0.00    +0.000 A 
ATOM     22  C   UNL     1      49.488   6.935  16.085  0.00  0.00    +0.000 A 
ATOM     23  S   UNL     1      49.872   6.409  17.659  0.00  0.00    +0.000 S 
ATOM     24  C   UNL     1      48.846   5.059  17.513  0.00  0.00    +0.000 A 
ATOM     25  N   UNL     1      48.742   4.152  18.518  0.00  0.00    +0.000 NA
ATOM     26  C   UNL     1      47.961   3.153  18.257  0.00  0.00    +0.000 A 
ATOM     27  N   UNL     1      47.265   2.995  17.087  0.00  0.00    +0.000 N 
ATOM     28  C   UNL     1      47.306   3.910  16.061  0.00  0.00    +0.000 A 
ATOM     29  O   UNL     1      46.617   3.779  15.055  0.00  0.00    +0.000 OA
ATOM     30  C   UNL     1      48.193   5.029  16.294  0.00  0.00    +0.000 A 
ATOM     31  H   UNL     1      46.657   2.199  16.954  0.00  0.00    +0.000 HD
ENDBRANCH  18  21
ENDBRANCH   2  17
TORSDOF 5
ENDMDL
MODEL 2
REMARK VINA RESULT:    -7.820      1.330      2.342
REMARK INTER + INTRA:         -10.471
REMARK INTER:                  -9.829
REMARK INTRA:                  -0.642
REMARK UNBOUND:                -0.366
REMARK  Name = 
REMARK  7 active torsions:
REMARK  status: ('A' for Active; 'I' for Inactive)
REMARK    1  A    between atoms: C_1  and  C_2
REMARK    2  A    between atoms: C_2  and  C_3
REMARK    3  A    between atoms: C_2  and  N_4
REMARK    4  A    between atoms: C_2  and  C_17
REMARK    5  A    between atoms: C_5  and  C_7
REMARK    6  A    between atoms: C_20  and  O_21
REMARK    7  A    between atoms: O_21  and  C_22
REMARK                            x       y       z     vdW  Elec       q    Type
REMARK                         _______ _______ _______ _____ _____    ______ ____
ROOT
ATOM      1  C   UNL     1      45.529   8.658  12.900  0.00  0.00    +0.000 C 
ATOM      2  C   UNL     1      46.608   7.561  12.717  0.00  0.00    +0.000 C 
ATOM      3  C   UNL     1      47.927   8.169  12.189  0.00  0.00    +0.000 C 
ENDROOT
BRANCH   2   4
ATOM      4  C   UNL     1      46.059   6.577  11.647  0.00  0.00    +0.000 A 
ATOM      5  C   UNL     1      44.947   5.770  11.973  0.00  0.00    +0.000 A 
ATOM      6  C   UNL     1      44.427   4.825  11.088  0.00  0.00    +0.000 A 
ATOM      7  C   UNL     1      44.947   4.716   9.802  0.00  0.00    +0.000 A 
ATOM      8  C   UNL     1      46.059   5.481   9.456  0.00  0.00    +0.000 A 
ATOM      9  C   UNL     1      46.618   6.391  10.370  0.00  0.00    +0.000 A 
BRANCH   7  10
ATOM     10  O   UNL     1      44.465   3.852   8.842  0.00  0.00    +0.000 OA
BRANCH  10  11
ATOM     11  C   UNL     1      45.345   3.062   8.131  0.00  0.00    +0.000 A 
ATOM     12  C   UNL     1      46.012   3.478   6.974  0.00  0.00    +0.000 A 
ATOM     13  C   UNL     1      46.849   2.595   6.290  0.00  0.00    +0.000 A 
ATOM     14  C   UNL     1      47.076   1.318   6.797  0.00  0.00    +0.000 A 
ATOM     15  C   UNL     1      46.472   0.924   7.990  0.00  0.00    +0.000 A 
ATOM     16  C   UNL     1      45.604   1.794   8.655  0.00  0.00    +0.000 A 
ENDBRANCH  10  11
ENDBRANCH   7  10
ENDBRANCH   2   4
BRANCH   2  17
ATOM     17  N   UNL     1      46.878   6.909  14.015  0.00  0.00    +0.000 N 
ATOM     18  C   UNL     1      47.652   5.776  14.150  0.00  0.00    +0.000 C 
ATOM     19  O   UNL     1      48.208   5.226  13.205  0.00  0.00    +0.000 OA
ATOM     20  H   UNL     1      46.209   7.078  14.755  0.00  0.00    +0.000 HD
BRANCH  18  21
ATOM     21  C   UNL     1      47.846   5.255  15.509  0.00  0.00    +0.000 A 
ATOM     22  C   UNL     1      47.342   3.999  15.826  0.00  0.00    +0.000 A 
ATOM     23  S   UNL     1      47.643   3.527  17.435  0.00  0.00    +0.000 S 
ATOM     24  C   UNL     1      48.412   5.006  17.778  0.00  0.00    +0.000 A 
ATOM     25  N   UNL     1      48.881   5.274  19.025  0.00  0.00    +0.000 NA
ATOM     26  C   UNL     1      49.403   6.451  19.156  0.00  0.00    +0.000 A 
ATOM     27  N   UNL     1      49.511   7.372  18.147  0.00  0.00    +0.000 N 
ATOM     28  C   UNL     1      49.091   7.127  16.860  0.00  0.00    +0.000 A 
ATOM     29  O   UNL     1      49.266   7.942  15.961  0.00  0.00    +0.000 OA
ATOM     30  C   UNL     1      48.469   5.834  16.671  0.00  0.00    +0.000 A 
ATOM     31  H   UNL     1      49.947   8.268  18.314  0.00  0.00    +0.000 HD
ENDBRANCH  18  21
ENDBRANCH   2  17
TORSDOF 5
ENDMDL
MODEL 3
REMARK VINA RESULT:    -7.541      2.005      2.606
REMARK INTER + INTRA:         -10.111
REMARK INTER:                  -9.288
REMARK INTRA:                  -0.823
REMARK UNBOUND:                -0.366
REMARK  Name = 
REMARK  7 active torsions:
REMARK  status: ('A' for Active; 'I' for Inactive)
REMARK    1  A    between atoms: C_1  and  C_2
REMARK    2  A    between atoms: C_2  and  C_3
REMARK    3  A    between atoms: C_2  and  N_4
REMARK    4  A    between atoms: C_2  and  C_17
REMARK    5  A    between atoms: C_5  and  C_7
REMARK    6  A    between atoms: C_20  and  O_21
REMARK    7  A    between atoms: O_21  and  C_22
REMARK                            x       y       z     vdW  Elec       q    Type
REMARK                         _______ _______ _______ _____ _____    ______ ____
ROOT
ATOM      1  C   UNL     1      47.874   9.147  13.881  0.00  0.00    +0.000 C 
ATOM      2  C   UNL     1      48.192   7.647  14.107  0.00  0.00    +0.000 C 
ATOM      3  C   UNL     1      49.637   7.318  13.668  0.00  0.00    +0.000 C 
ENDROOT
BRANCH   2   4
ATOM      4  C   UNL     1      47.211   6.849  13.204  0.00  0.00    +0.000 A 
ATOM      5  C   UNL     1      46.496   7.539  12.201  0.00  0.00    +0.000 A 
ATOM      6  C   UNL     1      45.559   6.905  11.385  0.00  0.00    +0.000 A 
ATOM      7  C   UNL     1      45.369   5.530  11.480  0.00  0.00    +0.000 A 
ATOM      8  C   UNL     1      46.041   4.823  12.476  0.00  0.00    +0.000 A 
ATOM      9  C   UNL     1      46.942   5.474  13.336  0.00  0.00    +0.000 A 
BRANCH   7  10
ATOM     10  O   UNL     1      44.506   4.810  10.683  0.00  0.00    +0.000 OA
BRANCH  10  11
ATOM     11  C   UNL     1      45.013   3.956   9.725  0.00  0.00    +0.000 A 
ATOM     12  C   UNL     1      44.828   2.569   9.734  0.00  0.00    +0.000 A 
ATOM     13  C   UNL     1      45.418   1.776   8.749  0.00  0.00    +0.000 A 
ATOM     14  C   UNL     1      46.135   2.370   7.714  0.00  0.00    +0.000 A 
ATOM     15  C   UNL     1      46.259   3.759   7.659  0.00  0.00    +0.000 A 
ATOM     16  C   UNL     1      45.701   4.550   8.665  0.00  0.00    +0.000 A 
ENDBRANCH  10  11
ENDBRANCH   7  10
ENDBRANCH   2   4
BRANCH   2  17
ATOM     17  N   UNL     1      48.050   7.321  15.541  0.00  0.00    +0.000 N 
ATOM     18  C   UNL     1      48.762   7.954  16.539  0.00  0.00    +0.000 C 
ATOM     19  O   UNL     1      49.556   8.864  16.322  0.00  0.00    +0.000 OA
ATOM     20  H   UNL     1      47.703   6.396  15.764  0.00  0.00    +0.000 HD
BRANCH  18  21
ATOM     21  C   UNL     1      48.498   7.533  17.920  0.00  0.00    +0.000 A 
ATOM     22  C   UNL     1      48.061   8.479  18.839  0.00  0.00    +0.000 A 
ATOM     23  S   UNL     1      47.793   7.846  20.398  0.00  0.00    +0.000 S 
ATOM     24  C   UNL     1      48.301   6.296  19.911  0.00  0.00    +0.000 A 
ATOM     25  N   UNL     1      48.355   5.271  20.800  0.00  0.00    +0.000 NA
ATOM     26  C   UNL     1      48.800   4.160  20.305  0.00  0.00    +0.000 A 
ATOM     27  N   UNL     1      49.177   3.985  19.000  0.00  0.00    +0.000 N 
ATOM     28  C   UNL     1      49.097   4.983  18.056  0.00  0.00    +0.000 A 
ATOM     29  O   UNL     1      49.374   4.778  16.880  0.00  0.00    +0.000 OA
ATOM     30  C   UNL     1      48.636   6.255  18.570  0.00  0.00    +0.000 A 
ATOM     31  H   UNL     1      49.499   3.084  18.674  0.00  0.00    +0.000 HD
ENDBRANCH  18  21
ENDBRANCH   2  17
TORSDOF 5
ENDMDL
MODEL 4
REMARK VINA RESULT:    -7.287      3.675      7.828
REMARK INTER + INTRA:          -9.783
REMARK INTER:                  -9.070
REMARK INTRA:                  -0.713
REMARK UNBOUND:                -0.366
REMARK  Name = 
REMARK  7 active torsions:
REMARK  status: ('A' for Active; 'I' for Inactive)
REMARK    1  A    between atoms: C_1  and  C_2
REMARK    2  A    between atoms: C_2  and  C_3
REMARK    3  A    between atoms: C_2  and  N_4
REMARK    4  A    between atoms: C_2  and  C_17
REMARK    5  A    between atoms: C_5  and  C_7
REMARK    6  A    between atoms: C_20  and  O_21
REMARK    7  A    between atoms: O_21  and  C_22
REMARK                            x       y       z     vdW  Elec       q    Type
REMARK                         _______ _______ _______ _____ _____    ______ ____
ROOT
ATOM      1  C   UNL     1      50.085   8.626  13.973  0.00  0.00    +0.000 C 
ATOM      2  C   UNL     1      48.927   8.354  14.967  0.00  0.00    +0.000 C 
ATOM      3  C   UNL     1      48.526   9.648  15.711  0.00  0.00    +0.000 C 
ENDROOT
BRANCH   2   4
ATOM      4  C   UNL     1      49.470   7.338  16.009  0.00  0.00    +0.000 A 
ATOM      5  C   UNL     1      50.832   6.969  15.953  0.00  0.00    +0.000 A 
ATOM      6  C   UNL     1      51.384   6.023  16.818  0.00  0.00    +0.000 A 
ATOM      7  C   UNL     1      50.612   5.479  17.838  0.00  0.00    +0.000 A 
ATOM      8  C   UNL     1      49.258   5.804  17.908  0.00  0.00    +0.000 A 
ATOM      9  C   UNL     1      48.690   6.713  16.998  0.00  0.00    +0.000 A 
BRANCH   7  10
ATOM     10  O   UNL     1      51.083   4.581  18.772  0.00  0.00    +0.000 OA
BRANCH  10  11
ATOM     11  C   UNL     1      51.642   3.391  18.354  0.00  0.00    +0.000 A 
ATOM     12  C   UNL     1      52.969   3.020  18.596  0.00  0.00    +0.000 A 
ATOM     13  C   UNL     1      53.465   1.816  18.094  0.00  0.00    +0.000 A 
ATOM     14  C   UNL     1      52.619   0.946  17.410  0.00  0.00    +0.000 A 
ATOM     15  C   UNL     1      51.275   1.277  17.232  0.00  0.00    +0.000 A 
ATOM     16  C   UNL     1      50.788   2.499  17.700  0.00  0.00    +0.000 A 
ENDBRANCH  10  11
ENDBRANCH   7  10
ENDBRANCH   2   4
BRANCH   2  17
ATOM     17  N   UNL     1      47.750   7.851  14.231  0.00  0.00    +0.000 N 
ATOM     18  C   UNL     1      47.803   6.799  13.340  0.00  0.00    +0.000 C 
ATOM     19  O   UNL     1      48.830   6.171  13.104  0.00  0.00    +0.000 OA
ATOM     20  H   UNL     1      46.982   8.498  14.105  0.00  0.00    +0.000 HD
BRANCH  18  21
ATOM     21  C   UNL     1      46.544   6.399  12.700  0.00  0.00    +0.000 A 
ATOM     22  C   UNL     1      45.750   7.376  12.110  0.00  0.00    +0.000 A 
ATOM     23  S   UNL     1      44.324   6.765  11.406  0.00  0.00    +0.000 S 
ATOM     24  C   UNL     1      44.693   5.182  11.909  0.00  0.00    +0.000 A 
ATOM     25  N   UNL     1      43.840   4.155  11.658  0.00  0.00    +0.000 NA
ATOM     26  C   UNL     1      44.225   3.015  12.135  0.00  0.00    +0.000 A 
ATOM     27  N   UNL     1      45.392   2.811  12.822  0.00  0.00    +0.000 N 
ATOM     28  C   UNL     1      46.306   3.812  13.060  0.00  0.00    +0.000 A 
ATOM     29  O   UNL     1      47.376   3.587  13.614  0.00  0.00    +0.000 OA
ATOM     30  C   UNL     1      45.904   5.115  12.574  0.00  0.00    +0.000 A 
ATOM     31  H   UNL     1      45.641   1.889  13.151  0.00  0.00    +0.000 HD
ENDBRANCH  18  21
ENDBRANCH   2  17
TORSDOF 5
ENDMDL
MODEL 5
REMARK VINA RESULT:    -7.237      3.485      8.013
REMARK INTER + INTRA:          -9.718
REMARK INTER:                  -9.198
REMARK INTRA:                  -0.520
REMARK UNBOUND:                -0.366
REMARK  Name = 
REMARK  7 active torsions:
REMARK  status: ('A' for Active; 'I' for Inactive)
REMARK    1  A    between atoms: C_1  and  C_2
REMARK    2  A    between atoms: C_2  and  C_3
REMARK    3  A    between atoms: C_2  and  N_4
REMARK    4  A    between atoms: C_2  and  C_17
REMARK    5  A    between atoms: C_5  and  C_7
REMARK    6  A    between atoms: C_20  and  O_21
REMARK    7  A    between atoms: O_21  and  C_22
REMARK                            x       y       z     vdW  Elec       q    Type
REMARK                         _______ _______ _______ _____ _____    ______ ____
ROOT
ATOM      1  C   UNL     1      49.376   7.835  12.647  0.00  0.00    +0.000 C 
ATOM      2  C   UNL     1      48.173   7.317  13.477  0.00  0.00    +0.000 C 
ATOM      3  C   UNL     1      47.238   8.480  13.877  0.00  0.00    +0.000 C 
ENDROOT
BRANCH   2   4
ATOM      4  C   UNL     1      48.766   6.697  14.772  0.00  0.00    +0.000 A 
ATOM      5  C   UNL     1      50.064   7.080  15.177  0.00  0.00    +0.000 A 
ATOM      6  C   UNL     1      50.688   6.530  16.297  0.00  0.00    +0.000 A 
ATOM      7  C   UNL     1      49.996   5.640  17.112  0.00  0.00    +0.000 A 
ATOM      8  C   UNL     1      48.723   5.223  16.729  0.00  0.00    +0.000 A 
ATOM      9  C   UNL     1      48.119   5.734  15.567  0.00  0.00    +0.000 A 
BRANCH   7  10
ATOM     10  O   UNL     1      50.509   5.087  18.266  0.00  0.00    +0.000 OA
BRANCH  10  11
ATOM     11  C   UNL     1      51.275   3.942  18.194  0.00  0.00    +0.000 A 
ATOM     12  C   UNL     1      50.921   2.806  17.457  0.00  0.00    +0.000 A 
ATOM     13  C   UNL     1      51.735   1.673  17.479  0.00  0.00    +0.000 A 
ATOM     14  C   UNL     1      52.938   1.694  18.180  0.00  0.00    +0.000 A 
ATOM     15  C   UNL     1      53.333   2.850  18.854  0.00  0.00    +0.000 A 
ATOM     16  C   UNL     1      52.500   3.971  18.864  0.00  0.00    +0.000 A 
ENDBRANCH  10  11
ENDBRANCH   7  10
ENDBRANCH   2   4
BRANCH   2  17
ATOM     17  N   UNL     1      47.400   6.346  12.676  0.00  0.00    +0.000 N 
ATOM     18  C   UNL     1      46.421   6.713  11.776  0.00  0.00    +0.000 C 
ATOM     19  O   UNL     1      46.127   7.881  11.542  0.00  0.00    +0.000 OA
ATOM     20  H   UNL     1      47.333   5.405  13.043  0.00  0.00    +0.000 HD
BRANCH  18  21
ATOM     21  C   UNL     1      45.752   5.634  11.038  0.00  0.00    +0.000 A 
ATOM     22  C   UNL     1      45.808   5.634   9.649  0.00  0.00    +0.000 A 
ATOM     23  S   UNL     1      44.990   4.323   8.931  0.00  0.00    +0.000 S 
ATOM     24  C   UNL     1      44.491   3.738  10.450  0.00  0.00    +0.000 A 
ATOM     25  N   UNL     1      43.703   2.636  10.546  0.00  0.00    +0.000 NA
ATOM     26  C   UNL     1      43.362   2.328  11.756  0.00  0.00    +0.000 A 
ATOM     27  N   UNL     1      43.756   3.016  12.874  0.00  0.00    +0.000 N 
ATOM     28  C   UNL     1      44.589   4.109  12.828  0.00  0.00    +0.000 A 
ATOM     29  O   UNL     1      44.983   4.661  13.849  0.00  0.00    +0.000 OA
ATOM     30  C   UNL     1      44.970   4.512  11.491  0.00  0.00    +0.000 A 
ATOM     31  H   UNL     1      43.468   2.710  13.793  0.00  0.00    +0.000 HD
ENDBRANCH  18  21
ENDBRANCH   2  17
TORSDOF 5
ENDMDL
MODEL 6
REMARK VINA RESULT:    -7.149      4.052      9.352
REMARK INTER + INTRA:          -9.605
REMARK INTER:                  -9.179
REMARK INTRA:                  -0.426
REMARK UNBOUND:                -0.366
REMARK  Name = 
REMARK  7 active torsions:
REMARK  status: ('A' for Active; 'I' for Inactive)
REMARK    1  A    between atoms: C_1  and  C_2
REMARK    2  A    between atoms: C_2  and  C_3
REMARK    3  A    between atoms: C_2  and  N_4
REMARK    4  A    between atoms: C_2  and  C_17
REMARK    5  A    between atoms: C_5  and  C_7
REMARK    6  A    between atoms: C_20  and  O_21
REMARK    7  A    between atoms: O_21  and  C_22
REMARK                            x       y       z     vdW  Elec       q    Type
REMARK                         _______ _______ _______ _____ _____    ______ ____
ROOT
ATOM      1  C   UNL     1      47.354   5.270  18.547  0.00  0.00    +0.000 C 
ATOM      2  C   UNL     1      47.711   4.369  17.337  0.00  0.00    +0.000 C 
ATOM      3  C   UNL     1      46.932   3.036  17.395  0.00  0.00    +0.000 C 
ENDROOT
BRANCH   2   4
ATOM      4  C   UNL     1      49.229   4.056  17.454  0.00  0.00    +0.000 A 
ATOM      5  C   UNL     1      50.138   5.131  17.564  0.00  0.00    +0.000 A 
ATOM      6  C   UNL     1      51.518   4.936  17.620  0.00  0.00    +0.000 A 
ATOM      7  C   UNL     1      52.038   3.647  17.661  0.00  0.00    +0.000 A 
ATOM      8  C   UNL     1      51.171   2.564  17.531  0.00  0.00    +0.000 A 
ATOM      9  C   UNL     1      49.784   2.764  17.416  0.00  0.00    +0.000 A 
BRANCH   7  10
ATOM     10  O   UNL     1      53.381   3.356  17.770  0.00  0.00    +0.000 OA
BRANCH  10  11
ATOM     11  C   UNL     1      53.897   2.951  18.984  0.00  0.00    +0.000 A 
ATOM     12  C   UNL     1      53.662   3.611  20.195  0.00  0.00    +0.000 A 
ATOM     13  C   UNL     1      54.265   3.157  21.370  0.00  0.00    +0.000 A 
ATOM     14  C   UNL     1      55.047   2.005  21.351  0.00  0.00    +0.000 A 
ATOM     15  C   UNL     1      55.223   1.301  20.159  0.00  0.00    +0.000 A 
ATOM     16  C   UNL     1      54.651   1.776  18.976  0.00  0.00    +0.000 A 
ENDBRANCH  10  11
ENDBRANCH   7  10
ENDBRANCH   2   4
BRANCH   2  17
ATOM     17  N   UNL     1      47.362   5.064  16.081  0.00  0.00    +0.000 N 
ATOM     18  C   UNL     1      47.379   4.454  14.844  0.00  0.00    +0.000 C 
ATOM     19  O   UNL     1      47.661   3.271  14.684  0.00  0.00    +0.000 OA
ATOM     20  H   UNL     1      47.457   6.072  16.078  0.00  0.00    +0.000 HD
BRANCH  18  21
ATOM     21  C   UNL     1      46.987   5.270  13.689  0.00  0.00    +0.000 A 
ATOM     22  C   UNL     1      47.479   6.566  13.583  0.00  0.00    +0.000 A 
ATOM     23  S   UNL     1      46.941   7.391  12.193  0.00  0.00    +0.000 S 
ATOM     24  C   UNL     1      45.992   6.063  11.710  0.00  0.00    +0.000 A 
ATOM     25  N   UNL     1      45.222   6.126  10.593  0.00  0.00    +0.000 NA
ATOM     26  C   UNL     1      44.520   5.063  10.369  0.00  0.00    +0.000 A 
ATOM     27  N   UNL     1      44.534   3.940  11.154  0.00  0.00    +0.000 N 
ATOM     28  C   UNL     1      45.330   3.815  12.269  0.00  0.00    +0.000 A 
ATOM     29  O   UNL     1      45.377   2.772  12.912  0.00  0.00    +0.000 OA
ATOM     30  C   UNL     1      46.111   4.993  12.580  0.00  0.00    +0.000 A 
ATOM     31  H   UNL     1      43.973   3.136  10.911  0.00  0.00    +0.000 HD
ENDBRANCH  18  21
ENDBRANCH   2  17
TORSDOF 5
ENDMDL
MODEL 7
REMARK VINA RESULT:    -7.133      2.637      3.408
REMARK INTER + INTRA:          -9.584
REMARK INTER:                  -9.039
REMARK INTRA:                  -0.545
REMARK UNBOUND:                -0.366
REMARK  Name = 
REMARK  7 active torsions:
REMARK  status: ('A' for Active; 'I' for Inactive)
REMARK    1  A    between atoms: C_1  and  C_2
REMARK    2  A    between atoms: C_2  and  C_3
REMARK    3  A    between atoms: C_2  and  N_4
REMARK    4  A    between atoms: C_2  and  C_17
REMARK    5  A    between atoms: C_5  and  C_7
REMARK    6  A    between atoms: C_20  and  O_21
REMARK    7  A    between atoms: O_21  and  C_22
REMARK                            x       y       z     vdW  Elec       q    Type
REMARK                         _______ _______ _______ _____ _____    ______ ____
ROOT
ATOM      1  C   UNL     1      47.710   8.872  14.426  0.00  0.00    +0.000 C 
ATOM      2  C   UNL     1      48.167   7.392  14.359  0.00  0.00    +0.000 C 
ATOM      3  C   UNL     1      49.606   7.285  13.808  0.00  0.00    +0.000 C 
ENDROOT
BRANCH   2   4
ATOM      4  C   UNL     1      47.207   6.680  13.367  0.00  0.00    +0.000 A 
ATOM      5  C   UNL     1      46.757   7.387  12.230  0.00  0.00    +0.000 A 
ATOM      6  C   UNL     1      45.854   6.836  11.320  0.00  0.00    +0.000 A 
ATOM      7  C   UNL     1      45.437   5.517  11.464  0.00  0.00    +0.000 A 
ATOM      8  C   UNL     1      45.843   4.799  12.587  0.00  0.00    +0.000 A 
ATOM      9  C   UNL     1      46.708   5.375  13.534  0.00  0.00    +0.000 A 
BRANCH   7  10
ATOM     10  O   UNL     1      44.590   4.872  10.588  0.00  0.00    +0.000 OA
BRANCH  10  11
ATOM     11  C   UNL     1      45.115   4.077   9.591  0.00  0.00    +0.000 A 
ATOM     12  C   UNL     1      45.818   4.567   8.485  0.00  0.00    +0.000 A 
ATOM     13  C   UNL     1      46.273   3.691   7.498  0.00  0.00    +0.000 A 
ATOM     14  C   UNL     1      46.089   2.319   7.646  0.00  0.00    +0.000 A 
ATOM     15  C   UNL     1      45.455   1.819   8.784  0.00  0.00    +0.000 A 
ATOM     16  C   UNL     1      44.966   2.698   9.754  0.00  0.00    +0.000 A 
ENDBRANCH  10  11
ENDBRANCH   7  10
ENDBRANCH   2   4
BRANCH   2  17
ATOM     17  N   UNL     1      48.136   6.803  15.714  0.00  0.00    +0.000 N 
ATOM     18  C   UNL     1      49.007   7.165  16.720  0.00  0.00    +0.000 C 
ATOM     19  O   UNL     1      49.866   8.031  16.585  0.00  0.00    +0.000 OA
ATOM     20  H   UNL     1      47.719   5.885  15.800  0.00  0.00    +0.000 HD
BRANCH  18  21
ATOM     21  C   UNL     1      48.840   6.504  18.020  0.00  0.00    +0.000 A 
ATOM     22  C   UNL     1      49.189   5.164  18.143  0.00  0.00    +0.000 A 
ATOM     23  S   UNL     1      48.943   4.533  19.706  0.00  0.00    +0.000 S 
ATOM     24  C   UNL     1      48.316   6.015  20.260  0.00  0.00    +0.000 A 
ATOM     25  N   UNL     1      47.866   6.147  21.535  0.00  0.00    +0.000 NA
ATOM     26  C   UNL     1      47.375   7.313  21.809  0.00  0.00    +0.000 A 
ATOM     27  N   UNL     1      47.313   8.359  20.925  0.00  0.00    +0.000 N 
ATOM     28  C   UNL     1      47.797   8.284  19.640  0.00  0.00    +0.000 A 
ATOM     29  O   UNL     1      47.793   9.257  18.894  0.00  0.00    +0.000 OA
ATOM     30  C   UNL     1      48.326   6.987  19.276  0.00  0.00    +0.000 A 
ATOM     31  H   UNL     1      46.933   9.251  21.210  0.00  0.00    +0.000 HD
ENDBRANCH  18  21
ENDBRANCH   2  17
TORSDOF 5
ENDMDL
MODEL 8
REMARK VINA RESULT:    -7.123      2.402      3.446
REMARK INTER + INTRA:          -9.571
REMARK INTER:                  -9.042
REMARK INTRA:                  -0.530
REMARK UNBOUND:                -0.366
REMARK  Name = 
REMARK  7 active torsions:
REMARK  status: ('A' for Active; 'I' for Inactive)
REMARK    1  A    between atoms: C_1  and  C_2
REMARK    2  A    between atoms: C_2  and  C_3
REMARK    3  A    between atoms: C_2  and  N_4
REMARK    4  A    between atoms: C_2  and  C_17
REMARK    5  A    between atoms: C_5  and  C_7
REMARK    6  A    between atoms: C_20  and  O_21
REMARK    7  A    between atoms: O_21  and  C_22
REMARK                            x       y       z     vdW  Elec       q    Type
REMARK                         _______ _______ _______ _____ _____    ______ ____
ROOT
ATOM      1  C   UNL     1      48.410   8.724  15.747  0.00  0.00    +0.000 C 
ATOM      2  C   UNL     1      49.044   7.754  14.717  0.00  0.00    +0.000 C 
ATOM      3  C   UNL     1      49.833   8.533  13.641  0.00  0.00    +0.000 C 
ENDROOT
BRANCH   2   4
ATOM      4  C   UNL     1      47.866   7.016  14.024  0.00  0.00    +0.000 A 
ATOM      5  C   UNL     1      46.909   7.777  13.318  0.00  0.00    +0.000 A 
ATOM      6  C   UNL     1      45.794   7.196  12.713  0.00  0.00    +0.000 A 
ATOM      7  C   UNL     1      45.644   5.813  12.712  0.00  0.00    +0.000 A 
ATOM      8  C   UNL     1      46.558   5.034  13.420  0.00  0.00    +0.000 A 
ATOM      9  C   UNL     1      47.649   5.627  14.079  0.00  0.00    +0.000 A 
BRANCH   7  10
ATOM     10  O   UNL     1      44.607   5.146  12.097  0.00  0.00    +0.000 OA
BRANCH  10  11
ATOM     11  C   UNL     1      44.816   4.530  10.880  0.00  0.00    +0.000 A 
ATOM     12  C   UNL     1      45.455   5.138   9.793  0.00  0.00    +0.000 A 
ATOM     13  C   UNL     1      45.581   4.455   8.582  0.00  0.00    +0.000 A 
ATOM     14  C   UNL     1      45.133   3.141   8.474  0.00  0.00    +0.000 A 
ATOM     15  C   UNL     1      44.563   2.505   9.577  0.00  0.00    +0.000 A 
ATOM     16  C   UNL     1      44.402   3.201  10.778  0.00  0.00    +0.000 A 
ENDBRANCH  10  11
ENDBRANCH   7  10
ENDBRANCH   2   4
BRANCH   2  17
ATOM     17  N   UNL     1      49.972   6.836  15.408  0.00  0.00    +0.000 N 
ATOM     18  C   UNL     1      49.709   6.274  16.640  0.00  0.00    +0.000 C 
ATOM     19  O   UNL     1      48.666   6.467  17.257  0.00  0.00    +0.000 OA
ATOM     20  H   UNL     1      50.949   6.899  15.151  0.00  0.00    +0.000 HD
BRANCH  18  21
ATOM     21  C   UNL     1      50.720   5.364  17.191  0.00  0.00    +0.000 A 
ATOM     22  C   UNL     1      51.891   5.897  17.716  0.00  0.00    +0.000 A 
ATOM     23  S   UNL     1      52.969   4.724  18.319  0.00  0.00    +0.000 S 
ATOM     24  C   UNL     1      51.930   3.458  17.854  0.00  0.00    +0.000 A 
ATOM     25  N   UNL     1      52.282   2.161  18.049  0.00  0.00    +0.000 NA
ATOM     26  C   UNL     1      51.420   1.303  17.609  0.00  0.00    +0.000 A 
ATOM     27  N   UNL     1      50.232   1.629  17.009  0.00  0.00    +0.000 N 
ATOM     28  C   UNL     1      49.814   2.928  16.831  0.00  0.00    +0.000 A 
ATOM     29  O   UNL     1      48.715   3.191  16.357  0.00  0.00    +0.000 OA
ATOM     30  C   UNL     1      50.762   3.926  17.278  0.00  0.00    +0.000 A 
ATOM     31  H   UNL     1      49.594   0.907  16.704  0.00  0.00    +0.000 HD
ENDBRANCH  18  21
ENDBRANCH   2  17
TORSDOF 5
ENDMDL
MODEL 9
REMARK VINA RESULT:    -7.008      3.252      8.573
REMARK INTER + INTRA:          -9.423
REMARK INTER:                  -8.601
REMARK INTRA:                  -0.821
REMARK UNBOUND:                -0.366
REMARK  Name = 
REMARK  7 active torsions:
REMARK  status: ('A' for Active; 'I' for Inactive)
REMARK    1  A    between atoms: C_1  and  C_2
REMARK    2  A    between atoms: C_2  and  C_3
REMARK    3  A    between atoms: C_2  and  N_4
REMARK    4  A    between atoms: C_2  and  C_17
REMARK    5  A    between atoms: C_5  and  C_7
REMARK    6  A    between atoms: C_20  and  O_21
REMARK    7  A    between atoms: O_21  and  C_22
REMARK                            x       y       z     vdW  Elec       q    Type
REMARK                         _______ _______ _______ _____ _____    ______ ____
ROOT
ATOM      1  C   UNL     1      49.305   7.672  11.587  0.00  0.00    +0.000 C 
ATOM      2  C   UNL     1      47.948   7.784  12.329  0.00  0.00    +0.000 C 
ATOM      3  C   UNL     1      47.172   9.039  11.870  0.00  0.00    +0.000 C 
ENDROOT
BRANCH   2   4
ATOM      4  C   UNL     1      48.283   7.938  13.838  0.00  0.00    +0.000 A 
ATOM      5  C   UNL     1      48.761   6.815  14.547  0.00  0.00    +0.000 A 
ATOM      6  C   UNL     1      49.033   6.858  15.915  0.00  0.00    +0.000 A 
ATOM      7  C   UNL     1      48.926   8.058  16.609  0.00  0.00    +0.000 A 
ATOM      8  C   UNL     1      48.434   9.180  15.944  0.00  0.00    +0.000 A 
ATOM      9  C   UNL     1      48.104   9.120  14.579  0.00  0.00    +0.000 A 
BRANCH   7  10
ATOM     10  O   UNL     1      49.224   8.210  17.946  0.00  0.00    +0.000 OA
BRANCH  10  11
ATOM     11  C   UNL     1      48.868   7.223  18.842  0.00  0.00    +0.000 A 
ATOM     12  C   UNL     1      47.547   6.863  19.128  0.00  0.00    +0.000 A 
ATOM     13  C   UNL     1      47.277   5.884  20.085  0.00  0.00    +0.000 A 
ATOM     14  C   UNL     1      48.326   5.214  20.710  0.00  0.00    +0.000 A 
ATOM     15  C   UNL     1      49.646   5.517  20.374  0.00  0.00    +0.000 A 
ATOM     16  C   UNL     1      49.916   6.523  19.443  0.00  0.00    +0.000 A 
ENDBRANCH  10  11
ENDBRANCH   7  10
ENDBRANCH   2   4
BRANCH   2  17
ATOM     17  N   UNL     1      47.126   6.591  12.040  0.00  0.00    +0.000 N 
ATOM     18  C   UNL     1      45.783   6.502  12.342  0.00  0.00    +0.000 C 
ATOM     19  O   UNL     1      45.148   7.419  12.852  0.00  0.00    +0.000 OA
ATOM     20  H   UNL     1      47.618   5.711  11.951  0.00  0.00    +0.000 HD
BRANCH  18  21
ATOM     21  C   UNL     1      45.096   5.258  11.976  0.00  0.00    +0.000 A 
ATOM     22  C   UNL     1      44.408   4.555  12.959  0.00  0.00    +0.000 A 
ATOM     23  S   UNL     1      43.659   3.135  12.388  0.00  0.00    +0.000 S 
ATOM     24  C   UNL     1      44.270   3.383  10.819  0.00  0.00    +0.000 A 
ATOM     25  N   UNL     1      44.030   2.486   9.828  0.00  0.00    +0.000 NA
ATOM     26  C   UNL     1      44.590   2.777   8.698  0.00  0.00    +0.000 A 
ATOM     27  N   UNL     1      45.353   3.892   8.471  0.00  0.00    +0.000 N 
ATOM     28  C   UNL     1      45.586   4.849   9.432  0.00  0.00    +0.000 A 
ATOM     29  O   UNL     1      46.212   5.872   9.181  0.00  0.00    +0.000 OA
ATOM     30  C   UNL     1      45.006   4.551  10.724  0.00  0.00    +0.000 A 
ATOM     31  H   UNL     1      45.747   4.068   7.558  0.00  0.00    +0.000 HD
ENDBRANCH  18  21
ENDBRANCH   2  17
TORSDOF 5
ENDMDL
