MODEL 1
REMARK VINA RESULT:    -8.018      0.000      0.000
REMARK INTER + INTRA:         -12.761
REMARK INTER:                 -11.300
REMARK INTRA:                  -1.462
REMARK UNBOUND:                -1.462
REMARK  Name = 
REMARK  7 active torsions:
REMARK  status: ('A' for Active; 'I' for Inactive)
REMARK    1  A    between atoms: C_2  and  C_4
REMARK    2  A    between atoms: C_4  and  N_5
REMARK    3  A    between atoms: C_4  and  C_28
REMARK    4  A    between atoms: C_6  and  C_8
REMARK    5  A    between atoms: C_11  and  C_12
REMARK    6  A    between atoms: C_12  and  N_13
REMARK    7  A    between atoms: C_14  and  C_16
REMARK                            x       y       z     vdW  Elec       q    Type
REMARK                         _______ _______ _______ _____ _____    ______ ____
ROOT
ATOM      1  C   UNL     1      45.854   7.031  12.173  0.00  0.00    +0.000 A 
ATOM      2  C   UNL     1      47.203   6.659  12.131  0.00  0.00    +0.000 A 
ATOM      3  C   UNL     1      48.169   7.442  12.772  0.00  0.00    +0.000 A 
ATOM      4  C   UNL     1      47.797   8.605  13.460  0.00  0.00    +0.000 A 
ATOM      5  C   UNL     1      46.449   8.989  13.469  0.00  0.00    +0.000 A 
ATOM      6  C   UNL     1      45.482   8.209  12.832  0.00  0.00    +0.000 A 
ENDROOT
BRANCH   1   8
ATOM      7  N   UNL     1      45.328   4.980  10.980  0.00  0.00    +0.000 N 
ATOM      8  C   UNL     1      44.854   6.164  11.490  0.00  0.00    +0.000 C 
ATOM      9  O   UNL     1      43.689   6.527  11.373  0.00  0.00    +0.000 OA
ATOM     10  H   UNL     1      46.288   4.704  11.117  0.00  0.00    +0.000 HD
BRANCH   7  11
ATOM     11  C   UNL     1      44.441   3.992  10.388  0.00  0.00    +0.000 C 
BRANCH  11  12
ATOM     12  C   UNL     1      45.155   3.339   9.214  0.00  0.00    +0.000 A 
ATOM     13  C   UNL     1      45.719   4.157   8.221  0.00  0.00    +0.000 A 
ATOM     14  C   UNL     1      46.456   3.602   7.172  0.00  0.00    +0.000 A 
ATOM     15  C   UNL     1      46.639   2.224   7.101  0.00  0.00    +0.000 A 
ATOM     16  C   UNL     1      46.089   1.398   8.080  0.00  0.00    +0.000 A 
ATOM     17  C   UNL     1      45.358   1.951   9.132  0.00  0.00    +0.000 A 
ENDBRANCH  11  12
BRANCH  11  19
ATOM     18  N   UNL     1      44.889   2.751  12.482  0.00  0.00    +0.000 N 
ATOM     19  C   UNL     1      43.995   2.974  11.466  0.00  0.00    +0.000 C 
ATOM     20  O   UNL     1      42.890   2.432  11.493  0.00  0.00    +0.000 OA
ATOM     21  H   UNL     1      44.639   2.060  13.177  0.00  0.00    +0.000 HD
ATOM     22  H   UNL     1      45.851   3.053  12.428  0.00  0.00    +0.000 HD
ENDBRANCH  11  19
ENDBRANCH   7  11
ENDBRANCH   1   8
BRANCH   4  23
ATOM     23  C   UNL     1      48.829   9.466  14.140  0.00  0.00    +0.000 C 
BRANCH  23  24
ATOM     24  N   UNL     1      49.366   8.817  15.308  0.00  0.00    +0.000 N 
ATOM     25  C   UNL     1      48.803   8.946  16.552  0.00  0.00    +0.000 C 
ATOM     26  O   UNL     1      47.796   9.622  16.748  0.00  0.00    +0.000 OA
ATOM     27  H   UNL     1      50.298   8.426  15.221  0.00  0.00    +0.000 HD
BRANCH  25  28
ATOM     28  C   UNL     1      49.422   8.167  17.634  0.00  0.00    +0.000 A 
ATOM     29  C   UNL     1      49.906   8.825  18.757  0.00  0.00    +0.000 A 
ATOM     30  S   UNL     1      50.539   7.780  19.945  0.00  0.00    +0.000 S 
ATOM     31  C   UNL     1      50.237   6.412  18.980  0.00  0.00    +0.000 A 
ATOM     32  N   UNL     1      50.574   5.167  19.411  0.00  0.00    +0.000 NA
ATOM     33  C   UNL     1      50.331   4.225  18.562  0.00  0.00    +0.000 A 
ATOM     34  N   UNL     1      49.769   4.414  17.326  0.00  0.00    +0.000 N 
ATOM     35  C   UNL     1      49.350   5.644  16.877  0.00  0.00    +0.000 A 
ATOM     36  O   UNL     1      48.749   5.760  15.813  0.00  0.00    +0.000 OA
ATOM     37  C   UNL     1      49.640   6.746  17.776  0.00  0.00    +0.000 A 
ATOM     38  H   UNL     1      49.584   3.630  16.718  0.00  0.00    +0.000 HD
ENDBRANCH  25  28
ENDBRANCH  23  24
ENDBRANCH   4  23
TORSDOF 7
ENDMDL
MODEL 2
REMARK VINA RESULT:    -7.699      1.762      2.117
REMARK INTER + INTRA:         -12.312
REMARK INTER:                 -11.070
REMARK INTRA:                  -1.242
REMARK UNBOUND:                -1.462
REMARK  Name = 
REMARK  7 active torsions:
REMARK  status: ('A' for Active; 'I' for Inactive)
REMARK    1  A    between atoms: C_2  and  C_4
REMARK    2  A    between atoms: C_4  and  N_5
REMARK    3  A    between atoms: C_4  and  C_28
REMARK    4  A    between atoms: C_6  and  C_8
REMARK    5  A    between atoms: C_11  and  C_12
REMARK    6  A    between atoms: C_12  and  N_13
REMARK    7  A    between atoms: C_14  and  C_16
REMARK                            x       y       z     vdW  Elec       q    Type
REMARK                         _______ _______ _______ _____ _____    ______ ____
ROOT
ATOM      1  C   UNL     1      46.526   6.789  12.591  0.00  0.00    +0.000 A 
ATOM      2  C   UNL     1      47.274   5.907  13.380  0.00  0.00    +0.000 A 
ATOM      3  C   UNL     1      48.270   6.396  14.232  0.00  0.00    +0.000 A 
ATOM      4  C   UNL     1      48.529   7.771  14.302  0.00  0.00    +0.000 A 
ATOM      5  C   UNL     1      47.800   8.646  13.486  0.00  0.00    +0.000 A 
ATOM      6  C   UNL     1      46.804   8.161  12.635  0.00  0.00    +0.000 A 
ENDROOT
BRANCH   1   8
ATOM      7  N   UNL     1      45.640   4.932  11.298  0.00  0.00    +0.000 N 
ATOM      8  C   UNL     1      45.465   6.231  11.708  0.00  0.00    +0.000 C 
ATOM      9  O   UNL     1      44.519   6.925  11.354  0.00  0.00    +0.000 OA
ATOM     10  H   UNL     1      46.420   4.385  11.630  0.00  0.00    +0.000 HD
BRANCH   7  11
ATOM     11  C   UNL     1      44.628   4.229  10.525  0.00  0.00    +0.000 C 
BRANCH  11  12
ATOM     12  C   UNL     1      45.291   3.614   9.302  0.00  0.00    +0.000 A 
ATOM     13  C   UNL     1      45.875   4.462   8.346  0.00  0.00    +0.000 A 
ATOM     14  C   UNL     1      46.567   3.935   7.253  0.00  0.00    +0.000 A 
ATOM     15  C   UNL     1      46.684   2.556   7.100  0.00  0.00    +0.000 A 
ATOM     16  C   UNL     1      46.113   1.701   8.040  0.00  0.00    +0.000 A 
ATOM     17  C   UNL     1      45.427   2.225   9.137  0.00  0.00    +0.000 A 
ENDBRANCH  11  12
BRANCH  11  19
ATOM     18  N   UNL     1      44.624   2.759  12.516  0.00  0.00    +0.000 N 
ATOM     19  C   UNL     1      43.919   3.183  11.420  0.00  0.00    +0.000 C 
ATOM     20  O   UNL     1      42.767   2.785  11.240  0.00  0.00    +0.000 OA
ATOM     21  H   UNL     1      44.200   2.045  13.094  0.00  0.00    +0.000 HD
ATOM     22  H   UNL     1      45.612   2.941  12.624  0.00  0.00    +0.000 HD
ENDBRANCH  11  19
ENDBRANCH   7  11
ENDBRANCH   1   8
BRANCH   4  23
ATOM     23  C   UNL     1      49.611   8.311  15.203  0.00  0.00    +0.000 C 
BRANCH  23  24
ATOM     24  N   UNL     1      50.471   7.258  15.677  0.00  0.00    +0.000 N 
ATOM     25  C   UNL     1      50.491   6.851  16.986  0.00  0.00    +0.000 C 
ATOM     26  O   UNL     1      49.767   7.357  17.841  0.00  0.00    +0.000 OA
ATOM     27  H   UNL     1      51.215   6.964  15.053  0.00  0.00    +0.000 HD
BRANCH  25  28
ATOM     28  C   UNL     1      51.370   5.717  17.306  0.00  0.00    +0.000 A 
ATOM     29  C   UNL     1      52.698   5.956  17.635  0.00  0.00    +0.000 A 
ATOM     30  S   UNL     1      53.570   4.547  18.036  0.00  0.00    +0.000 S 
ATOM     31  C   UNL     1      52.217   3.559  17.735  0.00  0.00    +0.000 A 
ATOM     32  N   UNL     1      52.297   2.208  17.871  0.00  0.00    +0.000 NA
ATOM     33  C   UNL     1      51.213   1.578  17.568  0.00  0.00    +0.000 A 
ATOM     34  N   UNL     1      50.051   2.176  17.153  0.00  0.00    +0.000 N 
ATOM     35  C   UNL     1      49.905   3.540  17.066  0.00  0.00    +0.000 A 
ATOM     36  O   UNL     1      48.818   4.046  16.800  0.00  0.00    +0.000 OA
ATOM     37  C   UNL     1      51.109   4.297  17.355  0.00  0.00    +0.000 A 
ATOM     38  H   UNL     1      49.230   1.625  16.953  0.00  0.00    +0.000 HD
ENDBRANCH  25  28
ENDBRANCH  23  24
ENDBRANCH   4  23
TORSDOF 7
ENDMDL
MODEL 3
REMARK VINA RESULT:    -6.728      6.064      8.006
REMARK INTER + INTRA:         -10.942
REMARK INTER:                  -9.527
REMARK INTRA:                  -1.416
REMARK UNBOUND:                -1.462
REMARK  Name = 
REMARK  7 active torsions:
REMARK  status: ('A' for Active; 'I' for Inactive)
REMARK    1  A    between atoms: C_2  and  C_4
REMARK    2  A    between atoms: C_4  and  N_5
REMARK    3  A    between atoms: C_4  and  C_28
REMARK    4  A    between atoms: C_6  and  C_8
REMARK    5  A    between atoms: C_11  and  C_12
REMARK    6  A    between atoms: C_12  and  N_13
REMARK    7  A    between atoms: C_14  and  C_16
REMARK                            x       y       z     vdW  Elec       q    Type
REMARK                         _______ _______ _______ _____ _____    ______ ____
ROOT
ATOM      1  C   UNL     1      49.583   7.468  13.204  0.00  0.00    +0.000 A 
ATOM      2  C   UNL     1      49.623   7.372  11.807  0.00  0.00    +0.000 A 
ATOM      3  C   UNL     1      50.716   7.882  11.099  0.00  0.00    +0.000 A 
ATOM      4  C   UNL     1      51.778   8.494  11.778  0.00  0.00    +0.000 A 
ATOM      5  C   UNL     1      51.716   8.615  13.172  0.00  0.00    +0.000 A 
ATOM      6  C   UNL     1      50.627   8.107  13.883  0.00  0.00    +0.000 A 
ENDROOT
BRANCH   1   8
ATOM      7  N   UNL     1      47.531   6.166  13.165  0.00  0.00    +0.000 N 
ATOM      8  C   UNL     1      48.408   6.901  13.923  0.00  0.00    +0.000 C 
ATOM      9  O   UNL     1      48.242   7.123  15.117  0.00  0.00    +0.000 OA
ATOM     10  H   UNL     1      47.715   5.985  12.190  0.00  0.00    +0.000 HD
BRANCH   7  11
ATOM     11  C   UNL     1      46.404   5.465  13.760  0.00  0.00    +0.000 C 
BRANCH  11  12
ATOM     12  C   UNL     1      45.411   5.121  12.661  0.00  0.00    +0.000 A 
ATOM     13  C   UNL     1      45.743   5.414  11.327  0.00  0.00    +0.000 A 
ATOM     14  C   UNL     1      44.897   5.037  10.282  0.00  0.00    +0.000 A 
ATOM     15  C   UNL     1      43.709   4.364  10.553  0.00  0.00    +0.000 A 
ATOM     16  C   UNL     1      43.365   4.063  11.870  0.00  0.00    +0.000 A 
ATOM     17  C   UNL     1      44.213   4.433  12.916  0.00  0.00    +0.000 A 
ENDBRANCH  11  12
BRANCH  11  19
ATOM     18  N   UNL     1      46.838   4.296  15.898  0.00  0.00    +0.000 N 
ATOM     19  C   UNL     1      46.909   4.220  14.531  0.00  0.00    +0.000 C 
ATOM     20  O   UNL     1      47.287   3.179  13.994  0.00  0.00    +0.000 OA
ATOM     21  H   UNL     1      47.200   3.513  16.426  0.00  0.00    +0.000 HD
ATOM     22  H   UNL     1      46.676   5.169  16.381  0.00  0.00    +0.000 HD
ENDBRANCH  11  19
ENDBRANCH   7  11
ENDBRANCH   1   8
BRANCH   4  23
ATOM     23  C   UNL     1      52.954   9.062  11.025  0.00  0.00    +0.000 C 
BRANCH  23  24
ATOM     24  N   UNL     1      53.095   8.447   9.731  0.00  0.00    +0.000 N 
ATOM     25  C   UNL     1      54.185   8.657   8.926  0.00  0.00    +0.000 C 
ATOM     26  O   UNL     1      55.117   9.384   9.263  0.00  0.00    +0.000 OA
ATOM     27  H   UNL     1      52.265   8.013   9.342  0.00  0.00    +0.000 HD
BRANCH  25  28
ATOM     28  C   UNL     1      54.221   7.905   7.664  0.00  0.00    +0.000 A 
ATOM     29  C   UNL     1      54.409   8.588   6.469  0.00  0.00    +0.000 A 
ATOM     30  S   UNL     1      54.486   7.570   5.103  0.00  0.00    +0.000 S 
ATOM     31  C   UNL     1      54.220   6.184   6.053  0.00  0.00    +0.000 A 
ATOM     32  N   UNL     1      54.147   4.952   5.482  0.00  0.00    +0.000 NA
ATOM     33  C   UNL     1      53.897   3.995   6.311  0.00  0.00    +0.000 A 
ATOM     34  N   UNL     1      53.725   4.156   7.662  0.00  0.00    +0.000 N 
ATOM     35  C   UNL     1      53.857   5.371   8.290  0.00  0.00    +0.000 A 
ATOM     36  O   UNL     1      53.809   5.462   9.514  0.00  0.00    +0.000 OA
ATOM     37  C   UNL     1      54.096   6.490   7.397  0.00  0.00    +0.000 A 
ATOM     38  H   UNL     1      53.554   3.361   8.259  0.00  0.00    +0.000 HD
ENDBRANCH  25  28
ENDBRANCH  23  24
ENDBRANCH   4  23
TORSDOF 7
ENDMDL
MODEL 4
REMARK VINA RESULT:    -6.542      3.325      9.400
REMARK INTER + INTRA:         -10.681
REMARK INTER:                  -9.524
REMARK INTRA:                  -1.157
REMARK UNBOUND:                -1.462
REMARK  Name = 
REMARK  7 active torsions:
REMARK  status: ('A' for Active; 'I' for Inactive)
REMARK    1  A    between atoms: C_2  and  C_4
REMARK    2  A    between atoms: C_4  and  N_5
REMARK    3  A    between atoms: C_4  and  C_28
REMARK    4  A    between atoms: C_6  and  C_8
REMARK    5  A    between atoms: C_11  and  C_12
REMARK    6  A    between atoms: C_12  and  N_13
REMARK    7  A    between atoms: C_14  and  C_16
REMARK                            x       y       z     vdW  Elec       q    Type
REMARK                         _______ _______ _______ _____ _____    ______ ____
ROOT
ATOM      1  C   UNL     1      50.419   6.983  15.757  0.00  0.00    +0.000 A 
ATOM      2  C   UNL     1      49.113   6.532  15.530  0.00  0.00    +0.000 A 
ATOM      3  C   UNL     1      48.445   6.876  14.350  0.00  0.00    +0.000 A 
ATOM      4  C   UNL     1      49.075   7.673  13.385  0.00  0.00    +0.000 A 
ATOM      5  C   UNL     1      50.370   8.148  13.633  0.00  0.00    +0.000 A 
ATOM      6  C   UNL     1      51.040   7.806  14.810  0.00  0.00    +0.000 A 
ENDROOT
BRANCH   1   8
ATOM      7  N   UNL     1      50.935   5.279  17.411  0.00  0.00    +0.000 N 
ATOM      8  C   UNL     1      51.101   6.585  17.019  0.00  0.00    +0.000 C 
ATOM      9  O   UNL     1      51.738   7.405  17.670  0.00  0.00    +0.000 OA
ATOM     10  H   UNL     1      50.423   4.627  16.836  0.00  0.00    +0.000 HD
BRANCH   7  11
ATOM     11  C   UNL     1      51.633   4.729  18.561  0.00  0.00    +0.000 C 
BRANCH  11  12
ATOM     12  C   UNL     1      50.762   4.914  19.794  0.00  0.00    +0.000 A 
ATOM     13  C   UNL     1      49.384   4.653  19.697  0.00  0.00    +0.000 A 
ATOM     14  C   UNL     1      48.563   4.728  20.825  0.00  0.00    +0.000 A 
ATOM     15  C   UNL     1      49.105   5.065  22.062  0.00  0.00    +0.000 A 
ATOM     16  C   UNL     1      50.470   5.324  22.176  0.00  0.00    +0.000 A 
ATOM     17  C   UNL     1      51.294   5.242  21.052  0.00  0.00    +0.000 A 
ENDBRANCH  11  12
BRANCH  11  19
ATOM     18  N   UNL     1      52.947   2.708  19.125  0.00  0.00    +0.000 N 
ATOM     19  C   UNL     1      51.998   3.248  18.295  0.00  0.00    +0.000 C 
ATOM     20  O   UNL     1      51.445   2.539  17.454  0.00  0.00    +0.000 OA
ATOM     21  H   UNL     1      53.233   1.755  18.945  0.00  0.00    +0.000 HD
ATOM     22  H   UNL     1      53.527   3.280  19.723  0.00  0.00    +0.000 HD
ENDBRANCH  11  19
ENDBRANCH   7  11
ENDBRANCH   1   8
BRANCH   4  23
ATOM     23  C   UNL     1      48.362   8.064  12.117  0.00  0.00    +0.000 C 
BRANCH  23  24
ATOM     24  N   UNL     1      47.623   6.957  11.568  0.00  0.00    +0.000 N 
ATOM     25  C   UNL     1      46.253   6.939  11.506  0.00  0.00    +0.000 C 
ATOM     26  O   UNL     1      45.567   7.874  11.912  0.00  0.00    +0.000 OA
ATOM     27  H   UNL     1      48.140   6.098  11.416  0.00  0.00    +0.000 HD
BRANCH  25  28
ATOM     28  C   UNL     1      45.643   5.771  10.854  0.00  0.00    +0.000 A 
ATOM     29  C   UNL     1      45.818   5.584   9.489  0.00  0.00    +0.000 A 
ATOM     30  S   UNL     1      45.100   4.156   8.896  0.00  0.00    +0.000 S 
ATOM     31  C   UNL     1      44.487   3.761  10.433  0.00  0.00    +0.000 A 
ATOM     32  N   UNL     1      43.738   2.640  10.617  0.00  0.00    +0.000 NA
ATOM     33  C   UNL     1      43.299   2.486  11.821  0.00  0.00    +0.000 A 
ATOM     34  N   UNL     1      43.550   3.343  12.860  0.00  0.00    +0.000 N 
ATOM     35  C   UNL     1      44.357   4.450  12.736  0.00  0.00    +0.000 A 
ATOM     36  O   UNL     1      44.653   5.132  13.712  0.00  0.00    +0.000 OA
ATOM     37  C   UNL     1      44.842   4.695  11.390  0.00  0.00    +0.000 A 
ATOM     38  H   UNL     1      43.195   3.151  13.785  0.00  0.00    +0.000 HD
ENDBRANCH  25  28
ENDBRANCH  23  24
ENDBRANCH   4  23
TORSDOF 7
ENDMDL
MODEL 5
REMARK VINA RESULT:    -6.407      2.242      2.719
REMARK INTER + INTRA:         -10.491
REMARK INTER:                 -10.786
REMARK INTRA:                   0.295
REMARK UNBOUND:                -1.462
REMARK  Name = 
REMARK  7 active torsions:
REMARK  status: ('A' for Active; 'I' for Inactive)
REMARK    1  A    between atoms: C_2  and  C_4
REMARK    2  A    between atoms: C_4  and  N_5
REMARK    3  A    between atoms: C_4  and  C_28
REMARK    4  A    between atoms: C_6  and  C_8
REMARK    5  A    between atoms: C_11  and  C_12
REMARK    6  A    between atoms: C_12  and  N_13
REMARK    7  A    between atoms: C_14  and  C_16
REMARK                            x       y       z     vdW  Elec       q    Type
REMARK                         _______ _______ _______ _____ _____    ______ ____
ROOT
ATOM      1  C   UNL     1      46.216   6.836  11.897  0.00  0.00    +0.000 A 
ATOM      2  C   UNL     1      47.587   6.894  11.617  0.00  0.00    +0.000 A 
ATOM      3  C   UNL     1      48.319   8.046  11.922  0.00  0.00    +0.000 A 
ATOM      4  C   UNL     1      47.689   9.152  12.509  0.00  0.00    +0.000 A 
ATOM      5  C   UNL     1      46.311   9.099  12.757  0.00  0.00    +0.000 A 
ATOM      6  C   UNL     1      45.577   7.950  12.454  0.00  0.00    +0.000 A 
ENDROOT
BRANCH   1   8
ATOM      7  N   UNL     1      44.439   5.713  10.677  0.00  0.00    +0.000 N 
ATOM      8  C   UNL     1      45.474   5.587  11.571  0.00  0.00    +0.000 C 
ATOM      9  O   UNL     1      45.769   4.527  12.111  0.00  0.00    +0.000 OA
ATOM     10  H   UNL     1      44.241   6.599  10.235  0.00  0.00    +0.000 HD
BRANCH   7  11
ATOM     11  C   UNL     1      43.703   4.559  10.187  0.00  0.00    +0.000 C 
BRANCH  11  12
ATOM     12  C   UNL     1      44.616   3.749   9.280  0.00  0.00    +0.000 A 
ATOM     13  C   UNL     1      45.414   4.424   8.340  0.00  0.00    +0.000 A 
ATOM     14  C   UNL     1      46.327   3.727   7.547  0.00  0.00    +0.000 A 
ATOM     15  C   UNL     1      46.457   2.347   7.681  0.00  0.00    +0.000 A 
ATOM     16  C   UNL     1      45.675   1.662   8.609  0.00  0.00    +0.000 A 
ATOM     17  C   UNL     1      44.766   2.358   9.408  0.00  0.00    +0.000 A 
ENDBRANCH  11  12
BRANCH  11  19
ATOM     18  N   UNL     1      42.673   4.472  12.436  0.00  0.00    +0.000 N 
ATOM     19  C   UNL     1      43.157   3.740  11.383  0.00  0.00    +0.000 C 
ATOM     20  O   UNL     1      43.073   2.512  11.400  0.00  0.00    +0.000 OA
ATOM     21  H   UNL     1      42.349   3.961  13.247  0.00  0.00    +0.000 HD
ATOM     22  H   UNL     1      42.852   5.462  12.531  0.00  0.00    +0.000 HD
ENDBRANCH  11  19
ENDBRANCH   7  11
ENDBRANCH   1   8
BRANCH   4  23
ATOM     23  C   UNL     1      48.462  10.405  12.828  0.00  0.00    +0.000 C 
BRANCH  23  24
ATOM     24  N   UNL     1      48.362  10.743  14.224  0.00  0.00    +0.000 N 
ATOM     25  C   UNL     1      49.266  10.306  15.158  0.00  0.00    +0.000 C 
ATOM     26  O   UNL     1      50.226   9.599  14.860  0.00  0.00    +0.000 OA
ATOM     27  H   UNL     1      47.484  11.146  14.531  0.00  0.00    +0.000 HD
BRANCH  25  28
ATOM     28  C   UNL     1      49.072  10.791  16.532  0.00  0.00    +0.000 A 
ATOM     29  C   UNL     1      49.235  12.143  16.807  0.00  0.00    +0.000 A 
ATOM     30  S   UNL     1      48.920  12.555  18.430  0.00  0.00    +0.000 S 
ATOM     31  C   UNL     1      48.602  10.933  18.838  0.00  0.00    +0.000 A 
ATOM     32  N   UNL     1      48.284  10.585  20.113  0.00  0.00    +0.000 NA
ATOM     33  C   UNL     1      48.113   9.318  20.292  0.00  0.00    +0.000 A 
ATOM     34  N   UNL     1      48.219   8.369  19.309  0.00  0.00    +0.000 N 
ATOM     35  C   UNL     1      48.471   8.682  17.994  0.00  0.00    +0.000 A 
ATOM     36  O   UNL     1      48.447   7.821  17.120  0.00  0.00    +0.000 OA
ATOM     37  C   UNL     1      48.715  10.091  17.745  0.00  0.00    +0.000 A 
ATOM     38  H   UNL     1      48.050   7.395  19.511  0.00  0.00    +0.000 HD
ENDBRANCH  25  28
ENDBRANCH  23  24
ENDBRANCH   4  23
TORSDOF 7
ENDMDL
MODEL 6
REMARK VINA RESULT:    -6.404      3.733      8.716
REMARK INTER + INTRA:         -10.487
REMARK INTER:                  -9.371
REMARK INTRA:                  -1.115
REMARK UNBOUND:                -1.462
REMARK  Name = 
REMARK  7 active torsions:
REMARK  status: ('A' for Active; 'I' for Inactive)
REMARK    1  A    between atoms: C_2  and  C_4
REMARK    2  A    between atoms: C_4  and  N_5
REMARK    3  A    between atoms: C_4  and  C_28
REMARK    4  A    between atoms: C_6  and  C_8
REMARK    5  A    between atoms: C_11  and  C_12
REMARK    6  A    between atoms: C_12  and  N_13
REMARK    7  A    between atoms: C_14  and  C_16
REMARK                            x       y       z     vdW  Elec       q    Type
REMARK                         _______ _______ _______ _____ _____    ______ ____
ROOT
ATOM      1  C   UNL     1      46.938   4.723  14.657  0.00  0.00    +0.000 A 
ATOM      2  C   UNL     1      45.883   4.053  14.025  0.00  0.00    +0.000 A 
ATOM      3  C   UNL     1      45.476   4.434  12.742  0.00  0.00    +0.000 A 
ATOM      4  C   UNL     1      46.118   5.488  12.078  0.00  0.00    +0.000 A 
ATOM      5  C   UNL     1      47.152   6.174  12.729  0.00  0.00    +0.000 A 
ATOM      6  C   UNL     1      47.561   5.796  14.009  0.00  0.00    +0.000 A 
ENDROOT
BRANCH   1   8
ATOM      7  N   UNL     1      48.553   4.764  16.473  0.00  0.00    +0.000 N 
ATOM      8  C   UNL     1      47.352   4.279  16.017  0.00  0.00    +0.000 C 
ATOM      9  O   UNL     1      46.657   3.497  16.656  0.00  0.00    +0.000 OA
ATOM     10  H   UNL     1      49.085   5.425  15.928  0.00  0.00    +0.000 HD
BRANCH   7  11
ATOM     11  C   UNL     1      49.023   4.500  17.823  0.00  0.00    +0.000 C 
BRANCH  11  12
ATOM     12  C   UNL     1      50.252   3.608  17.744  0.00  0.00    +0.000 A 
ATOM     13  C   UNL     1      51.485   4.107  18.198  0.00  0.00    +0.000 A 
ATOM     14  C   UNL     1      52.620   3.293  18.223  0.00  0.00    +0.000 A 
ATOM     15  C   UNL     1      52.539   1.971  17.794  0.00  0.00    +0.000 A 
ATOM     16  C   UNL     1      51.324   1.459  17.343  0.00  0.00    +0.000 A 
ATOM     17  C   UNL     1      50.187   2.269  17.324  0.00  0.00    +0.000 A 
ENDBRANCH  11  12
BRANCH  11  19
ATOM     18  N   UNL     1      49.548   6.918  17.750  0.00  0.00    +0.000 N 
ATOM     19  C   UNL     1      49.293   5.838  18.555  0.00  0.00    +0.000 C 
ATOM     20  O   UNL     1      49.219   5.987  19.775  0.00  0.00    +0.000 OA
ATOM     21  H   UNL     1      49.768   7.794  18.204  0.00  0.00    +0.000 HD
ATOM     22  H   UNL     1      49.761   6.818  16.767  0.00  0.00    +0.000 HD
ENDBRANCH  11  19
ENDBRANCH   7  11
ENDBRANCH   1   8
BRANCH   4  23
ATOM     23  C   UNL     1      45.679   5.919  10.703  0.00  0.00    +0.000 C 
BRANCH  23  24
ATOM     24  N   UNL     1      45.260   7.297  10.693  0.00  0.00    +0.000 N 
ATOM     25  C   UNL     1      43.994   7.688  11.045  0.00  0.00    +0.000 C 
ATOM     26  O   UNL     1      43.134   6.884  11.396  0.00  0.00    +0.000 OA
ATOM     27  H   UNL     1      45.871   7.953  10.220  0.00  0.00    +0.000 HD
BRANCH  25  28
ATOM     28  C   UNL     1      43.736   9.135  11.055  0.00  0.00    +0.000 A 
ATOM     29  C   UNL     1      42.507   9.611  10.617  0.00  0.00    +0.000 A 
ATOM     30  S   UNL     1      42.342  11.303  10.746  0.00  0.00    +0.000 S 
ATOM     31  C   UNL     1      43.927  11.467  11.343  0.00  0.00    +0.000 A 
ATOM     32  N   UNL     1      44.435  12.693  11.642  0.00  0.00    +0.000 NA
ATOM     33  C   UNL     1      45.662  12.676  12.042  0.00  0.00    +0.000 A 
ATOM     34  N   UNL     1      46.424  11.545  12.183  0.00  0.00    +0.000 N 
ATOM     35  C   UNL     1      45.930  10.282  11.959  0.00  0.00    +0.000 A 
ATOM     36  O   UNL     1      46.603   9.285  12.203  0.00  0.00    +0.000 OA
ATOM     37  C   UNL     1      44.566  10.245  11.464  0.00  0.00    +0.000 A 
ATOM     38  H   UNL     1      47.372  11.600  12.524  0.00  0.00    +0.000 HD
ENDBRANCH  25  28
ENDBRANCH  23  24
ENDBRANCH   4  23
TORSDOF 7
ENDMDL
MODEL 7
REMARK VINA RESULT:    -6.392      2.224      2.790
REMARK INTER + INTRA:         -10.469
REMARK INTER:                  -9.457
REMARK INTRA:                  -1.012
REMARK UNBOUND:                -1.462
REMARK  Name = 
REMARK  7 active torsions:
REMARK  status: ('A' for Active; 'I' for Inactive)
REMARK    1  A    between atoms: C_2  and  C_4
REMARK    2  A    between atoms: C_4  and  N_5
REMARK    3  A    between atoms: C_4  and  C_28
REMARK    4  A    between atoms: C_6  and  C_8
REMARK    5  A    between atoms: C_11  and  C_12
REMARK    6  A    between atoms: C_12  and  N_13
REMARK    7  A    between atoms: C_14  and  C_16
REMARK                            x       y       z     vdW  Elec       q    Type
REMARK                         _______ _______ _______ _____ _____    ______ ____
ROOT
ATOM      1  C   UNL     1      47.425   7.056  12.421  0.00  0.00    +0.000 A 
ATOM      2  C   UNL     1      47.607   6.667  13.754  0.00  0.00    +0.000 A 
ATOM      3  C   UNL     1      48.803   6.964  14.416  0.00  0.00    +0.000 A 
ATOM      4  C   UNL     1      49.828   7.652  13.754  0.00  0.00    +0.000 A 
ATOM      5  C   UNL     1      49.651   8.010  12.410  0.00  0.00    +0.000 A 
ATOM      6  C   UNL     1      48.459   7.716  11.746  0.00  0.00    +0.000 A 
ENDROOT
BRANCH   1   8
ATOM      7  N   UNL     1      46.024   5.473  11.222  0.00  0.00    +0.000 N 
ATOM      8  C   UNL     1      46.132   6.734  11.755  0.00  0.00    +0.000 C 
ATOM      9  O   UNL     1      45.246   7.577  11.671  0.00  0.00    +0.000 OA
ATOM     10  H   UNL     1      46.766   4.798  11.332  0.00  0.00    +0.000 HD
BRANCH   7  11
ATOM     11  C   UNL     1      44.781   4.990  10.642  0.00  0.00    +0.000 C 
BRANCH  11  12
ATOM     12  C   UNL     1      45.112   3.962   9.571  0.00  0.00    +0.000 A 
ATOM     13  C   UNL     1      45.771   4.384   8.404  0.00  0.00    +0.000 A 
ATOM     14  C   UNL     1      46.169   3.460   7.435  0.00  0.00    +0.000 A 
ATOM     15  C   UNL     1      45.912   2.103   7.617  0.00  0.00    +0.000 A 
ATOM     16  C   UNL     1      45.260   1.668   8.770  0.00  0.00    +0.000 A 
ATOM     17  C   UNL     1      44.869   2.589   9.743  0.00  0.00    +0.000 A 
ENDBRANCH  11  12
BRANCH  11  19
ATOM     18  N   UNL     1      42.527   4.693  11.619  0.00  0.00    +0.000 N 
ATOM     19  C   UNL     1      43.865   4.429  11.757  0.00  0.00    +0.000 C 
ATOM     20  O   UNL     1      44.258   3.722  12.686  0.00  0.00    +0.000 OA
ATOM     21  H   UNL     1      41.912   4.373  12.356  0.00  0.00    +0.000 HD
ATOM     22  H   UNL     1      42.178   5.381  10.966  0.00  0.00    +0.000 HD
ENDBRANCH  11  19
ENDBRANCH   7  11
ENDBRANCH   1   8
BRANCH   4  23
ATOM     23  C   UNL     1      51.127   7.964  14.450  0.00  0.00    +0.000 C 
BRANCH  23  24
ATOM     24  N   UNL     1      51.342   7.092  15.575  0.00  0.00    +0.000 N 
ATOM     25  C   UNL     1      52.584   6.868  16.112  0.00  0.00    +0.000 C 
ATOM     26  O   UNL     1      53.596   7.405  15.668  0.00  0.00    +0.000 OA
ATOM     27  H   UNL     1      50.572   6.485  15.831  0.00  0.00    +0.000 HD
BRANCH  25  28
ATOM     28  C   UNL     1      52.636   6.008  17.303  0.00  0.00    +0.000 A 
ATOM     29  C   UNL     1      53.634   5.048  17.408  0.00  0.00    +0.000 A 
ATOM     30  S   UNL     1      53.594   4.174  18.871  0.00  0.00    +0.000 S 
ATOM     31  C   UNL     1      52.210   5.013  19.397  0.00  0.00    +0.000 A 
ATOM     32  N   UNL     1      51.634   4.723  20.595  0.00  0.00    +0.000 NA
ATOM     33  C   UNL     1      50.566   5.402  20.850  0.00  0.00    +0.000 A 
ATOM     34  N   UNL     1      50.029   6.354  20.022  0.00  0.00    +0.000 N 
ATOM     35  C   UNL     1      50.615   6.726  18.835  0.00  0.00    +0.000 A 
ATOM     36  O   UNL     1      50.170   7.660  18.173  0.00  0.00    +0.000 OA
ATOM     37  C   UNL     1      51.797   5.962  18.479  0.00  0.00    +0.000 A 
ATOM     38  H   UNL     1      49.202   6.866  20.292  0.00  0.00    +0.000 HD
ENDBRANCH  25  28
ENDBRANCH  23  24
ENDBRANCH   4  23
TORSDOF 7
ENDMDL
MODEL 8
REMARK VINA RESULT:    -6.351      3.491      9.929
REMARK INTER + INTRA:         -10.412
REMARK INTER:                  -9.176
REMARK INTRA:                  -1.236
REMARK UNBOUND:                -1.462
REMARK  Name = 
REMARK  7 active torsions:
REMARK  status: ('A' for Active; 'I' for Inactive)
REMARK    1  A    between atoms: C_2  and  C_4
REMARK    2  A    between atoms: C_4  and  N_5
REMARK    3  A    between atoms: C_4  and  C_28
REMARK    4  A    between atoms: C_6  and  C_8
REMARK    5  A    between atoms: C_11  and  C_12
REMARK    6  A    between atoms: C_12  and  N_13
REMARK    7  A    between atoms: C_14  and  C_16
REMARK                            x       y       z     vdW  Elec       q    Type
REMARK                         _______ _______ _______ _____ _____    ______ ____
ROOT
ATOM      1  C   UNL     1      48.787   8.370  16.013  0.00  0.00    +0.000 A 
ATOM      2  C   UNL     1      48.879   7.074  15.492  0.00  0.00    +0.000 A 
ATOM      3  C   UNL     1      48.576   6.833  14.148  0.00  0.00    +0.000 A 
ATOM      4  C   UNL     1      48.178   7.884  13.312  0.00  0.00    +0.000 A 
ATOM      5  C   UNL     1      48.056   9.173  13.848  0.00  0.00    +0.000 A 
ATOM      6  C   UNL     1      48.359   9.417  15.189  0.00  0.00    +0.000 A 
ENDROOT
BRANCH   1   8
ATOM      7  N   UNL     1      48.078   8.598  18.327  0.00  0.00    +0.000 N 
ATOM      8  C   UNL     1      49.131   8.589  17.446  0.00  0.00    +0.000 C 
ATOM      9  O   UNL     1      50.293   8.781  17.786  0.00  0.00    +0.000 OA
ATOM     10  H   UNL     1      47.137   8.412  18.012  0.00  0.00    +0.000 HD
BRANCH   7  11
ATOM     11  C   UNL     1      48.281   8.691  19.763  0.00  0.00    +0.000 C 
BRANCH  11  12
ATOM     12  C   UNL     1      47.177   9.554  20.356  0.00  0.00    +0.000 A 
ATOM     13  C   UNL     1      46.754   9.306  21.673  0.00  0.00    +0.000 A 
ATOM     14  C   UNL     1      45.804  10.129  22.284  0.00  0.00    +0.000 A 
ATOM     15  C   UNL     1      45.265  11.208  21.588  0.00  0.00    +0.000 A 
ATOM     16  C   UNL     1      45.675  11.469  20.283  0.00  0.00    +0.000 A 
ATOM     17  C   UNL     1      46.629  10.652  19.673  0.00  0.00    +0.000 A 
ENDBRANCH  11  12
BRANCH  11  19
ATOM     18  N   UNL     1      47.506   6.341  19.804  0.00  0.00    +0.000 N 
ATOM     19  C   UNL     1      48.334   7.271  20.379  0.00  0.00    +0.000 C 
ATOM     20  O   UNL     1      49.107   6.933  21.275  0.00  0.00    +0.000 OA
ATOM     21  H   UNL     1      47.491   5.416  20.215  0.00  0.00    +0.000 HD
ATOM     22  H   UNL     1      46.759   6.600  19.176  0.00  0.00    +0.000 HD
ENDBRANCH  11  19
ENDBRANCH   7  11
ENDBRANCH   1   8
BRANCH   4  23
ATOM     23  C   UNL     1      47.833   7.636  11.866  0.00  0.00    +0.000 C 
BRANCH  23  24
ATOM     24  N   UNL     1      47.058   6.431  11.711  0.00  0.00    +0.000 N 
ATOM     25  C   UNL     1      45.688   6.420  11.765  0.00  0.00    +0.000 C 
ATOM     26  O   UNL     1      45.031   7.442  11.945  0.00  0.00    +0.000 OA
ATOM     27  H   UNL     1      47.567   5.556  11.765  0.00  0.00    +0.000 HD
BRANCH  25  28
ATOM     28  C   UNL     1      45.035   5.126  11.518  0.00  0.00    +0.000 A 
ATOM     29  C   UNL     1      44.305   4.526  12.536  0.00  0.00    +0.000 A 
ATOM     30  S   UNL     1      43.562   3.063  12.076  0.00  0.00    +0.000 S 
ATOM     31  C   UNL     1      44.230   3.152  10.513  0.00  0.00    +0.000 A 
ATOM     32  N   UNL     1      43.997   2.172   9.599  0.00  0.00    +0.000 NA
ATOM     33  C   UNL     1      44.600   2.342   8.471  0.00  0.00    +0.000 A 
ATOM     34  N   UNL     1      45.406   3.410   8.168  0.00  0.00    +0.000 N 
ATOM     35  C   UNL     1      45.614   4.456   9.036  0.00  0.00    +0.000 A 
ATOM     36  O   UNL     1      46.248   5.449   8.692  0.00  0.00    +0.000 OA
ATOM     37  C   UNL     1      44.992   4.294  10.338  0.00  0.00    +0.000 A 
ATOM     38  H   UNL     1      45.830   3.494   7.257  0.00  0.00    +0.000 HD
ENDBRANCH  25  28
ENDBRANCH  23  24
ENDBRANCH   4  23
TORSDOF 7
ENDMDL
MODEL 9
REMARK VINA RESULT:    -6.295      2.758      4.151
REMARK INTER + INTRA:         -10.333
REMARK INTER:                  -9.459
REMARK INTRA:                  -0.874
REMARK UNBOUND:                -1.462
REMARK  Name = 
REMARK  7 active torsions:
REMARK  status: ('A' for Active; 'I' for Inactive)
REMARK    1  A    between atoms: C_2  and  C_4
REMARK    2  A    between atoms: C_4  and  N_5
REMARK    3  A    between atoms: C_4  and  C_28
REMARK    4  A    between atoms: C_6  and  C_8
REMARK    5  A    between atoms: C_11  and  C_12
REMARK    6  A    between atoms: C_12  and  N_13
REMARK    7  A    between atoms: C_14  and  C_16
REMARK                            x       y       z     vdW  Elec       q    Type
REMARK                         _______ _______ _______ _____ _____    ______ ____
ROOT
ATOM      1  C   UNL     1      48.166   7.788  13.932  0.00  0.00    +0.000 A 
ATOM      2  C   UNL     1      49.126   6.840  14.306  0.00  0.00    +0.000 A 
ATOM      3  C   UNL     1      49.769   6.941  15.544  0.00  0.00    +0.000 A 
ATOM      4  C   UNL     1      49.459   7.990  16.420  0.00  0.00    +0.000 A 
ATOM      5  C   UNL     1      48.520   8.953  16.025  0.00  0.00    +0.000 A 
ATOM      6  C   UNL     1      47.877   8.855  14.790  0.00  0.00    +0.000 A 
ENDROOT
BRANCH   1   8
ATOM      7  N   UNL     1      46.311   6.941  12.609  0.00  0.00    +0.000 N 
ATOM      8  C   UNL     1      47.494   7.638  12.611  0.00  0.00    +0.000 C 
ATOM      9  O   UNL     1      48.008   8.091  11.594  0.00  0.00    +0.000 OA
ATOM     10  H   UNL     1      45.907   6.603  13.470  0.00  0.00    +0.000 HD
BRANCH   7  11
ATOM     11  C   UNL     1      45.497   6.814  11.411  0.00  0.00    +0.000 C 
BRANCH  11  12
ATOM     12  C   UNL     1      44.865   5.431  11.395  0.00  0.00    +0.000 A 
ATOM     13  C   UNL     1      44.300   4.929  12.580  0.00  0.00    +0.000 A 
ATOM     14  C   UNL     1      43.635   3.701  12.588  0.00  0.00    +0.000 A 
ATOM     15  C   UNL     1      43.526   2.958  11.416  0.00  0.00    +0.000 A 
ATOM     16  C   UNL     1      44.078   3.443  10.232  0.00  0.00    +0.000 A 
ATOM     17  C   UNL     1      44.737   4.673  10.219  0.00  0.00    +0.000 A 
ENDBRANCH  11  12
BRANCH  11  19
ATOM     18  N   UNL     1      43.184   7.591  10.995  0.00  0.00    +0.000 N 
ATOM     19  C   UNL     1      44.453   7.957  11.363  0.00  0.00    +0.000 C 
ATOM     20  O   UNL     1      44.683   9.119  11.698  0.00  0.00    +0.000 OA
ATOM     21  H   UNL     1      42.493   8.326  10.916  0.00  0.00    +0.000 HD
ATOM     22  H   UNL     1      42.983   6.694  10.576  0.00  0.00    +0.000 HD
ENDBRANCH  11  19
ENDBRANCH   7  11
ENDBRANCH   1   8
BRANCH   4  23
ATOM     23  C   UNL     1      50.155   8.119  17.751  0.00  0.00    +0.000 C 
BRANCH  23  24
ATOM     24  N   UNL     1      51.027   7.000  17.998  0.00  0.00    +0.000 N 
ATOM     25  C   UNL     1      50.649   5.920  18.752  0.00  0.00    +0.000 C 
ATOM     26  O   UNL     1      49.535   5.835  19.263  0.00  0.00    +0.000 OA
ATOM     27  H   UNL     1      52.006   7.129  17.767  0.00  0.00    +0.000 HD
BRANCH  25  28
ATOM     28  C   UNL     1      51.622   4.823  18.856  0.00  0.00    +0.000 A 
ATOM     29  C   UNL     1      52.773   5.002  19.614  0.00  0.00    +0.000 A 
ATOM     30  S   UNL     1      53.769   3.621  19.684  0.00  0.00    +0.000 S 
ATOM     31  C   UNL     1      52.725   2.748  18.664  0.00  0.00    +0.000 A 
ATOM     32  N   UNL     1      53.014   1.470  18.299  0.00  0.00    +0.000 NA
ATOM     33  C   UNL     1      52.161   0.942  17.487  0.00  0.00    +0.000 A 
ATOM     34  N   UNL     1      51.038   1.571  17.016  0.00  0.00    +0.000 N 
ATOM     35  C   UNL     1      50.670   2.836  17.411  0.00  0.00    +0.000 A 
ATOM     36  O   UNL     1      49.601   3.325  17.059  0.00  0.00    +0.000 OA
ATOM     37  C   UNL     1      51.619   3.493  18.291  0.00  0.00    +0.000 A 
ATOM     38  H   UNL     1      50.399   1.092  16.399  0.00  0.00    +0.000 HD
ENDBRANCH  25  28
ENDBRANCH  23  24
ENDBRANCH   4  23
TORSDOF 7
ENDMDL
