MODEL 1
REMARK VINA RESULT:    -7.944      0.000      0.000
REMARK INTER + INTRA:         -12.287
REMARK INTER:                 -11.426
REMARK INTRA:                  -0.861
REMARK UNBOUND:                -0.861
REMARK  Name = 
REMARK  8 active torsions:
REMARK  status: ('A' for Active; 'I' for Inactive)
REMARK    1  A    between atoms: N_1  and  C_2
REMARK    2  A    between atoms: C_2  and  C_3
REMARK    3  A    between atoms: C_2  and  C_24
REMARK    4  A    between atoms: C_3  and  O_4
REMARK    5  A    between atoms: O_4  and  C_5
REMARK    6  A    between atoms: C_8  and  C_9
REMARK    7  A    between atoms: C_9  and  N_10
REMARK    8  A    between atoms: C_11  and  C_13
REMARK                            x       y       z     vdW  Elec       q    Type
REMARK                         _______ _______ _______ _____ _____    ______ ____
ROOT
ATOM      1  C   UNL     1      44.549   5.793  11.453  0.00  0.00    +0.000 A 
ATOM      2  C   UNL     1      44.398   7.180  11.421  0.00  0.00    +0.000 A 
ATOM      3  C   UNL     1      45.290   8.002  12.109  0.00  0.00    +0.000 A 
ATOM      4  C   UNL     1      46.342   7.458  12.853  0.00  0.00    +0.000 A 
ATOM      5  C   UNL     1      46.493   6.067  12.887  0.00  0.00    +0.000 A 
ATOM      6  C   UNL     1      45.603   5.243  12.184  0.00  0.00    +0.000 A 
ENDROOT
BRANCH   1   7
ATOM      7  O   UNL     1      43.726   4.894  10.818  0.00  0.00    +0.000 OA
BRANCH   7   8
ATOM      8  C   UNL     1      44.137   4.527   9.494  0.00  0.00    +0.000 C 
BRANCH   8   9
ATOM      9  C   UNL     1      44.334   2.997   9.383  0.00  0.00    +0.000 C 
BRANCH   9  10
ATOM     10  C   UNL     1      45.478   2.695   8.428  0.00  0.00    +0.000 A 
ATOM     11  C   UNL     1      45.989   1.392   8.331  0.00  0.00    +0.000 A 
ATOM     12  C   UNL     1      46.988   1.086   7.401  0.00  0.00    +0.000 A 
ATOM     13  C   UNL     1      47.490   2.077   6.561  0.00  0.00    +0.000 A 
ATOM     14  C   UNL     1      47.006   3.378   6.655  0.00  0.00    +0.000 A 
ATOM     15  C   UNL     1      46.011   3.686   7.584  0.00  0.00    +0.000 A 
ENDBRANCH   9  10
BRANCH   9  16
ATOM     16  N   UNL     1      44.549   2.368  10.695  0.00  0.00    +0.000 NA
ATOM     17  H   UNL     1      44.802   3.111  11.351  0.00  0.00    +0.000 HD
ATOM     18  H   UNL     1      45.365   1.763  10.649  0.00  0.00    +0.000 HD
ENDBRANCH   9  16
ENDBRANCH   8   9
ENDBRANCH   7   8
ENDBRANCH   1   7
BRANCH   4  19
ATOM     19  C   UNL     1      47.249   8.379  13.624  0.00  0.00    +0.000 C 
BRANCH  19  20
ATOM     20  N   UNL     1      47.763   7.775  14.831  0.00  0.00    +0.000 N 
ATOM     21  C   UNL     1      48.965   7.099  14.878  0.00  0.00    +0.000 C 
ATOM     22  O   UNL     1      49.719   6.972  13.922  0.00  0.00    +0.000 OA
ATOM     23  H   UNL     1      47.268   7.952  15.692  0.00  0.00    +0.000 HD
BRANCH  21  24
ATOM     24  C   UNL     1      49.277   6.528  16.188  0.00  0.00    +0.000 A 
ATOM     25  C   UNL     1      50.150   7.123  17.085  0.00  0.00    +0.000 A 
ATOM     26  S   UNL     1      50.290   6.261  18.551  0.00  0.00    +0.000 S 
ATOM     27  C   UNL     1      49.187   5.078  18.024  0.00  0.00    +0.000 A 
ATOM     28  N   UNL     1      48.874   4.038  18.828  0.00  0.00    +0.000 NA
ATOM     29  C   UNL     1      47.996   3.172  18.287  0.00  0.00    +0.000 A 
ATOM     30  C   UNL     1      47.433   3.282  17.029  0.00  0.00    +0.000 A 
ATOM     31  C   UNL     1      47.782   4.375  16.235  0.00  0.00    +0.000 A 
ATOM     32  C   UNL     1      48.701   5.322  16.743  0.00  0.00    +0.000 A 
ENDBRANCH  21  24
ENDBRANCH  19  20
ENDBRANCH   4  19
TORSDOF 8
ENDMDL
MODEL 2
REMARK VINA RESULT:    -7.760      1.843      2.534
REMARK INTER + INTRA:         -12.023
REMARK INTER:                 -11.145
REMARK INTRA:                  -0.879
REMARK UNBOUND:                -0.861
REMARK  Name = 
REMARK  8 active torsions:
REMARK  status: ('A' for Active; 'I' for Inactive)
REMARK    1  A    between atoms: N_1  and  C_2
REMARK    2  A    between atoms: C_2  and  C_3
REMARK    3  A    between atoms: C_2  and  C_24
REMARK    4  A    between atoms: C_3  and  O_4
REMARK    5  A    between atoms: O_4  and  C_5
REMARK    6  A    between atoms: C_8  and  C_9
REMARK    7  A    between atoms: C_9  and  N_10
REMARK    8  A    between atoms: C_11  and  C_13
REMARK                            x       y       z     vdW  Elec       q    Type
REMARK                         _______ _______ _______ _____ _____    ______ ____
ROOT
ATOM      1  C   UNL     1      45.046   4.908  11.659  0.00  0.00    +0.000 A 
ATOM      2  C   UNL     1      45.458   4.409  12.895  0.00  0.00    +0.000 A 
ATOM      3  C   UNL     1      46.470   5.048  13.610  0.00  0.00    +0.000 A 
ATOM      4  C   UNL     1      47.100   6.190  13.103  0.00  0.00    +0.000 A 
ATOM      5  C   UNL     1      46.687   6.689  11.862  0.00  0.00    +0.000 A 
ATOM      6  C   UNL     1      45.661   6.052  11.151  0.00  0.00    +0.000 A 
ENDROOT
BRANCH   1   7
ATOM      7  O   UNL     1      44.066   4.353  10.871  0.00  0.00    +0.000 OA
BRANCH   7   8
ATOM      8  C   UNL     1      44.356   4.334   9.466  0.00  0.00    +0.000 C 
BRANCH   8   9
ATOM      9  C   UNL     1      44.329   2.889   8.918  0.00  0.00    +0.000 C 
BRANCH   9  10
ATOM     10  C   UNL     1      45.614   2.603   8.157  0.00  0.00    +0.000 A 
ATOM     11  C   UNL     1      46.146   1.305   8.135  0.00  0.00    +0.000 A 
ATOM     12  C   UNL     1      47.284   1.015   7.376  0.00  0.00    +0.000 A 
ATOM     13  C   UNL     1      47.906   2.016   6.634  0.00  0.00    +0.000 A 
ATOM     14  C   UNL     1      47.401   3.313   6.658  0.00  0.00    +0.000 A 
ATOM     15  C   UNL     1      46.267   3.606   7.417  0.00  0.00    +0.000 A 
ENDBRANCH   9  10
BRANCH   9  16
ATOM     16  N   UNL     1      44.101   1.896   9.980  0.00  0.00    +0.000 NA
ATOM     17  H   UNL     1      43.091   1.819  10.113  0.00  0.00    +0.000 HD
ATOM     18  H   UNL     1      44.460   2.257  10.861  0.00  0.00    +0.000 HD
ENDBRANCH   9  16
ENDBRANCH   8   9
ENDBRANCH   7   8
ENDBRANCH   1   7
BRANCH   4  19
ATOM     19  C   UNL     1      48.224   6.817  13.883  0.00  0.00    +0.000 C 
BRANCH  19  20
ATOM     20  N   UNL     1      48.103   6.603  15.306  0.00  0.00    +0.000 N 
ATOM     21  C   UNL     1      49.194   6.450  16.136  0.00  0.00    +0.000 C 
ATOM     22  O   UNL     1      50.357   6.511  15.760  0.00  0.00    +0.000 OA
ATOM     23  H   UNL     1      47.184   6.676  15.716  0.00  0.00    +0.000 HD
BRANCH  21  24
ATOM     24  C   UNL     1      48.848   6.201  17.536  0.00  0.00    +0.000 A 
ATOM     25  C   UNL     1      48.997   4.966  18.145  0.00  0.00    +0.000 A 
ATOM     26  S   UNL     1      48.558   4.978  19.794  0.00  0.00    +0.000 S 
ATOM     27  C   UNL     1      48.164   6.632  19.733  0.00  0.00    +0.000 A 
ATOM     28  N   UNL     1      47.708   7.260  20.838  0.00  0.00    +0.000 NA
ATOM     29  C   UNL     1      47.427   8.564  20.651  0.00  0.00    +0.000 A 
ATOM     30  C   UNL     1      47.570   9.252  19.461  0.00  0.00    +0.000 A 
ATOM     31  C   UNL     1      48.049   8.564  18.346  0.00  0.00    +0.000 A 
ATOM     32  C   UNL     1      48.362   7.190  18.474  0.00  0.00    +0.000 A 
ENDBRANCH  21  24
ENDBRANCH  19  20
ENDBRANCH   4  19
TORSDOF 8
ENDMDL
MODEL 3
REMARK VINA RESULT:    -7.618      2.523      3.933
REMARK INTER + INTRA:         -11.819
REMARK INTER:                 -11.135
REMARK INTRA:                  -0.683
REMARK UNBOUND:                -0.861
REMARK  Name = 
REMARK  8 active torsions:
REMARK  status: ('A' for Active; 'I' for Inactive)
REMARK    1  A    between atoms: N_1  and  C_2
REMARK    2  A    between atoms: C_2  and  C_3
REMARK    3  A    between atoms: C_2  and  C_24
REMARK    4  A    between atoms: C_3  and  O_4
REMARK    5  A    between atoms: O_4  and  C_5
REMARK    6  A    between atoms: C_8  and  C_9
REMARK    7  A    between atoms: C_9  and  N_10
REMARK    8  A    between atoms: C_11  and  C_13
REMARK                            x       y       z     vdW  Elec       q    Type
REMARK                         _______ _______ _______ _____ _____    ______ ____
ROOT
ATOM      1  C   UNL     1      44.979   3.374   8.517  0.00  0.00    +0.000 A 
ATOM      2  C   UNL     1      44.347   2.468   9.369  0.00  0.00    +0.000 A 
ATOM      3  C   UNL     1      44.009   2.842  10.669  0.00  0.00    +0.000 A 
ATOM      4  C   UNL     1      44.305   4.122  11.151  0.00  0.00    +0.000 A 
ATOM      5  C   UNL     1      44.940   5.030  10.296  0.00  0.00    +0.000 A 
ATOM      6  C   UNL     1      45.268   4.656   8.986  0.00  0.00    +0.000 A 
ENDROOT
BRANCH   1   7
ATOM      7  O   UNL     1      45.361   3.108   7.224  0.00  0.00    +0.000 OA
BRANCH   7   8
ATOM      8  C   UNL     1      46.693   3.520   6.889  0.00  0.00    +0.000 C 
BRANCH   8   9
ATOM      9  C   UNL     1      47.620   2.295   6.713  0.00  0.00    +0.000 C 
BRANCH   9  10
ATOM     10  C   UNL     1      47.144   1.454   5.539  0.00  0.00    +0.000 A 
ATOM     11  C   UNL     1      46.639   2.075   4.386  0.00  0.00    +0.000 A 
ATOM     12  C   UNL     1      46.271   1.315   3.272  0.00  0.00    +0.000 A 
ATOM     13  C   UNL     1      46.398  -0.072   3.295  0.00  0.00    +0.000 A 
ATOM     14  C   UNL     1      46.881  -0.705   4.436  0.00  0.00    +0.000 A 
ATOM     15  C   UNL     1      47.247   0.051   5.551  0.00  0.00    +0.000 A 
ENDBRANCH   9  10
BRANCH   9  16
ATOM     16  N   UNL     1      49.030   2.684   6.557  0.00  0.00    +0.000 NA
ATOM     17  H   UNL     1      49.559   2.216   7.297  0.00  0.00    +0.000 HD
ATOM     18  H   UNL     1      49.128   3.679   6.747  0.00  0.00    +0.000 HD
ENDBRANCH   9  16
ENDBRANCH   8   9
ENDBRANCH   7   8
ENDBRANCH   1   7
BRANCH   4  19
ATOM     19  C   UNL     1      43.970   4.465  12.577  0.00  0.00    +0.000 C 
BRANCH  19  20
ATOM     20  N   UNL     1      45.084   5.049  13.287  0.00  0.00    +0.000 N 
ATOM     21  C   UNL     1      46.198   4.325  13.660  0.00  0.00    +0.000 C 
ATOM     22  O   UNL     1      46.364   3.140  13.402  0.00  0.00    +0.000 OA
ATOM     23  H   UNL     1      45.085   6.049  13.418  0.00  0.00    +0.000 HD
BRANCH  21  24
ATOM     24  C   UNL     1      47.189   5.099  14.407  0.00  0.00    +0.000 A 
ATOM     25  C   UNL     1      47.780   6.250  13.913  0.00  0.00    +0.000 A 
ATOM     26  S   UNL     1      48.865   6.969  15.018  0.00  0.00    +0.000 S 
ATOM     27  C   UNL     1      48.567   5.763  16.180  0.00  0.00    +0.000 A 
ATOM     28  N   UNL     1      49.204   5.798  17.370  0.00  0.00    +0.000 NA
ATOM     29  C   UNL     1      48.882   4.782  18.194  0.00  0.00    +0.000 A 
ATOM     30  C   UNL     1      47.991   3.766  17.904  0.00  0.00    +0.000 A 
ATOM     31  C   UNL     1      47.353   3.772  16.663  0.00  0.00    +0.000 A 
ATOM     32  C   UNL     1      47.647   4.812  15.750  0.00  0.00    +0.000 A 
ENDBRANCH  21  24
ENDBRANCH  19  20
ENDBRANCH   4  19
TORSDOF 8
ENDMDL
MODEL 4
REMARK VINA RESULT:    -7.472      2.263      2.792
REMARK INTER + INTRA:         -11.609
REMARK INTER:                 -10.698
REMARK INTRA:                  -0.911
REMARK UNBOUND:                -0.861
REMARK  Name = 
REMARK  8 active torsions:
REMARK  status: ('A' for Active; 'I' for Inactive)
REMARK    1  A    between atoms: N_1  and  C_2
REMARK    2  A    between atoms: C_2  and  C_3
REMARK    3  A    between atoms: C_2  and  C_24
REMARK    4  A    between atoms: C_3  and  O_4
REMARK    5  A    between atoms: O_4  and  C_5
REMARK    6  A    between atoms: C_8  and  C_9
REMARK    7  A    between atoms: C_9  and  N_10
REMARK    8  A    between atoms: C_11  and  C_13
REMARK                            x       y       z     vdW  Elec       q    Type
REMARK                         _______ _______ _______ _____ _____    ______ ____
ROOT
ATOM      1  C   UNL     1      45.855   5.464  12.343  0.00  0.00    +0.000 A 
ATOM      2  C   UNL     1      46.967   5.369  13.181  0.00  0.00    +0.000 A 
ATOM      3  C   UNL     1      47.542   6.520  13.719  0.00  0.00    +0.000 A 
ATOM      4  C   UNL     1      47.030   7.788  13.424  0.00  0.00    +0.000 A 
ATOM      5  C   UNL     1      45.915   7.882  12.582  0.00  0.00    +0.000 A 
ATOM      6  C   UNL     1      45.331   6.724  12.052  0.00  0.00    +0.000 A 
ENDROOT
BRANCH   1   7
ATOM      7  O   UNL     1      45.216   4.398  11.756  0.00  0.00    +0.000 OA
BRANCH   7   8
ATOM      8  C   UNL     1      44.466   4.717  10.576  0.00  0.00    +0.000 C 
BRANCH   8   9
ATOM      9  C   UNL     1      44.023   3.431   9.840  0.00  0.00    +0.000 C 
BRANCH   9  10
ATOM     10  C   UNL     1      45.084   3.025   8.830  0.00  0.00    +0.000 A 
ATOM     11  C   UNL     1      45.668   3.988   7.994  0.00  0.00    +0.000 A 
ATOM     12  C   UNL     1      46.698   3.639   7.117  0.00  0.00    +0.000 A 
ATOM     13  C   UNL     1      47.156   2.325   7.059  0.00  0.00    +0.000 A 
ATOM     14  C   UNL     1      46.577   1.353   7.870  0.00  0.00    +0.000 A 
ATOM     15  C   UNL     1      45.546   1.698   8.745  0.00  0.00    +0.000 A 
ENDBRANCH   9  10
BRANCH   9  16
ATOM     16  N   UNL     1      43.722   2.334  10.774  0.00  0.00    +0.000 NA
ATOM     17  H   UNL     1      44.175   2.557  11.662  0.00  0.00    +0.000 HD
ATOM     18  H   UNL     1      44.175   1.482  10.449  0.00  0.00    +0.000 HD
ENDBRANCH   9  16
ENDBRANCH   8   9
ENDBRANCH   7   8
ENDBRANCH   1   7
BRANCH   4  19
ATOM     19  C   UNL     1      47.715   9.005  13.983  0.00  0.00    +0.000 C 
BRANCH  19  20
ATOM     20  N   UNL     1      47.528   9.146  15.408  0.00  0.00    +0.000 N 
ATOM     21  C   UNL     1      48.533   8.910  16.323  0.00  0.00    +0.000 C 
ATOM     22  O   UNL     1      49.676   8.594  16.020  0.00  0.00    +0.000 OA
ATOM     23  H   UNL     1      46.655   9.535  15.731  0.00  0.00    +0.000 HD
BRANCH  21  24
ATOM     24  C   UNL     1      48.120   9.069  17.717  0.00  0.00    +0.000 A 
ATOM     25  C   UNL     1      47.787  10.294  18.274  0.00  0.00    +0.000 A 
ATOM     26  S   UNL     1      47.300  10.174  19.905  0.00  0.00    +0.000 S 
ATOM     27  C   UNL     1      47.518   8.488  19.904  0.00  0.00    +0.000 A 
ATOM     28  N   UNL     1      47.274   7.772  21.023  0.00  0.00    +0.000 NA
ATOM     29  C   UNL     1      47.493   6.450  20.888  0.00  0.00    +0.000 A 
ATOM     30  C   UNL     1      47.930   5.824  19.736  0.00  0.00    +0.000 A 
ATOM     31  C   UNL     1      48.166   6.601  18.602  0.00  0.00    +0.000 A 
ATOM     32  C   UNL     1      47.956   7.998  18.676  0.00  0.00    +0.000 A 
ENDBRANCH  21  24
ENDBRANCH  19  20
ENDBRANCH   4  19
TORSDOF 8
ENDMDL
MODEL 5
REMARK VINA RESULT:    -7.441      2.671      4.507
REMARK INTER + INTRA:         -11.564
REMARK INTER:                 -10.606
REMARK INTRA:                  -0.959
REMARK UNBOUND:                -0.861
REMARK  Name = 
REMARK  8 active torsions:
REMARK  status: ('A' for Active; 'I' for Inactive)
REMARK    1  A    between atoms: N_1  and  C_2
REMARK    2  A    between atoms: C_2  and  C_3
REMARK    3  A    between atoms: C_2  and  C_24
REMARK    4  A    between atoms: C_3  and  O_4
REMARK    5  A    between atoms: O_4  and  C_5
REMARK    6  A    between atoms: C_8  and  C_9
REMARK    7  A    between atoms: C_9  and  N_10
REMARK    8  A    between atoms: C_11  and  C_13
REMARK                            x       y       z     vdW  Elec       q    Type
REMARK                         _______ _______ _______ _____ _____    ______ ____
ROOT
ATOM      1  C   UNL     1      45.013   3.315   8.679  0.00  0.00    +0.000 A 
ATOM      2  C   UNL     1      44.355   2.585   9.670  0.00  0.00    +0.000 A 
ATOM      3  C   UNL     1      44.141   3.144  10.930  0.00  0.00    +0.000 A 
ATOM      4  C   UNL     1      44.588   4.435  11.231  0.00  0.00    +0.000 A 
ATOM      5  C   UNL     1      45.249   5.166  10.237  0.00  0.00    +0.000 A 
ATOM      6  C   UNL     1      45.452   4.607   8.968  0.00  0.00    +0.000 A 
ENDROOT
BRANCH   1   7
ATOM      7  O   UNL     1      45.280   2.859   7.410  0.00  0.00    +0.000 OA
BRANCH   7   8
ATOM      8  C   UNL     1      46.480   3.379   6.821  0.00  0.00    +0.000 C 
BRANCH   8   9
ATOM      9  C   UNL     1      47.516   2.254   6.597  0.00  0.00    +0.000 C 
BRANCH   9  10
ATOM     10  C   UNL     1      47.129   1.433   5.377  0.00  0.00    +0.000 A 
ATOM     11  C   UNL     1      47.286   0.039   5.385  0.00  0.00    +0.000 A 
ATOM     12  C   UNL     1      46.861  -0.731   4.299  0.00  0.00    +0.000 A 
ATOM     13  C   UNL     1      46.279  -0.121   3.191  0.00  0.00    +0.000 A 
ATOM     14  C   UNL     1      46.131   1.262   3.159  0.00  0.00    +0.000 A 
ATOM     15  C   UNL     1      46.556   2.034   4.241  0.00  0.00    +0.000 A 
ENDBRANCH   9  10
BRANCH   9  16
ATOM     16  N   UNL     1      48.887   2.777   6.479  0.00  0.00    +0.000 NA
ATOM     17  H   UNL     1      48.905   3.405   5.673  0.00  0.00    +0.000 HD
ATOM     18  H   UNL     1      49.519   2.016   6.241  0.00  0.00    +0.000 HD
ENDBRANCH   9  16
ENDBRANCH   8   9
ENDBRANCH   7   8
ENDBRANCH   1   7
BRANCH   4  19
ATOM     19  C   UNL     1      44.383   4.978  12.620  0.00  0.00    +0.000 C 
BRANCH  19  20
ATOM     20  N   UNL     1      45.562   5.626  13.146  0.00  0.00    +0.000 N 
ATOM     21  C   UNL     1      46.606   4.931  13.722  0.00  0.00    +0.000 C 
ATOM     22  O   UNL     1      46.650   3.710  13.814  0.00  0.00    +0.000 OA
ATOM     23  H   UNL     1      45.665   6.616  12.986  0.00  0.00    +0.000 HD
BRANCH  21  24
ATOM     24  C   UNL     1      47.682   5.782  14.228  0.00  0.00    +0.000 A 
ATOM     25  C   UNL     1      48.101   5.767  15.548  0.00  0.00    +0.000 A 
ATOM     26  S   UNL     1      49.404   6.829  15.846  0.00  0.00    +0.000 S 
ATOM     27  C   UNL     1      49.439   7.329  14.220  0.00  0.00    +0.000 A 
ATOM     28  N   UNL     1      50.340   8.250  13.815  0.00  0.00    +0.000 NA
ATOM     29  C   UNL     1      50.255   8.561  12.507  0.00  0.00    +0.000 A 
ATOM     30  C   UNL     1      49.350   8.022  11.611  0.00  0.00    +0.000 A 
ATOM     31  C   UNL     1      48.441   7.070  12.074  0.00  0.00    +0.000 A 
ATOM     32  C   UNL     1      48.475   6.699  13.438  0.00  0.00    +0.000 A 
ENDBRANCH  21  24
ENDBRANCH  19  20
ENDBRANCH   4  19
TORSDOF 8
ENDMDL
MODEL 6
REMARK VINA RESULT:    -7.254      1.900      2.550
REMARK INTER + INTRA:         -11.295
REMARK INTER:                 -10.102
REMARK INTRA:                  -1.193
REMARK UNBOUND:                -0.861
REMARK  Name = 
REMARK  8 active torsions:
REMARK  status: ('A' for Active; 'I' for Inactive)
REMARK    1  A    between atoms: N_1  and  C_2
REMARK    2  A    between atoms: C_2  and  C_3
REMARK    3  A    between atoms: C_2  and  C_24
REMARK    4  A    between atoms: C_3  and  O_4
REMARK    5  A    between atoms: O_4  and  C_5
REMARK    6  A    between atoms: C_8  and  C_9
REMARK    7  A    between atoms: C_9  and  N_10
REMARK    8  A    between atoms: C_11  and  C_13
REMARK                            x       y       z     vdW  Elec       q    Type
REMARK                         _______ _______ _______ _____ _____    ______ ____
ROOT
ATOM      1  C   UNL     1      45.326   5.885  12.761  0.00  0.00    +0.000 A 
ATOM      2  C   UNL     1      45.390   7.252  12.487  0.00  0.00    +0.000 A 
ATOM      3  C   UNL     1      46.615   7.918  12.509  0.00  0.00    +0.000 A 
ATOM      4  C   UNL     1      47.798   7.238  12.817  0.00  0.00    +0.000 A 
ATOM      5  C   UNL     1      47.734   5.867  13.092  0.00  0.00    +0.000 A 
ATOM      6  C   UNL     1      46.503   5.198  13.057  0.00  0.00    +0.000 A 
ENDROOT
BRANCH   1   7
ATOM      7  O   UNL     1      44.174   5.136  12.772  0.00  0.00    +0.000 OA
BRANCH   7   8
ATOM      8  C   UNL     1      44.356   3.741  12.493  0.00  0.00    +0.000 C 
BRANCH   8   9
ATOM      9  C   UNL     1      43.533   3.315  11.255  0.00  0.00    +0.000 C 
BRANCH   9  10
ATOM     10  C   UNL     1      44.420   3.321  10.021  0.00  0.00    +0.000 A 
ATOM     11  C   UNL     1      44.901   4.533   9.503  0.00  0.00    +0.000 A 
ATOM     12  C   UNL     1      45.779   4.544   8.416  0.00  0.00    +0.000 A 
ATOM     13  C   UNL     1      46.185   3.348   7.829  0.00  0.00    +0.000 A 
ATOM     14  C   UNL     1      45.705   2.137   8.319  0.00  0.00    +0.000 A 
ATOM     15  C   UNL     1      44.826   2.123   9.403  0.00  0.00    +0.000 A 
ENDBRANCH   9  10
BRANCH   9  16
ATOM     16  N   UNL     1      42.884   2.008  11.444  0.00  0.00    +0.000 NA
ATOM     17  H   UNL     1      42.549   1.971  12.409  0.00  0.00    +0.000 HD
ATOM     18  H   UNL     1      43.583   1.271  11.375  0.00  0.00    +0.000 HD
ENDBRANCH   9  16
ENDBRANCH   8   9
ENDBRANCH   7   8
ENDBRANCH   1   7
BRANCH   4  19
ATOM     19  C   UNL     1      49.091   8.007  12.882  0.00  0.00    +0.000 C 
BRANCH  19  20
ATOM     20  N   UNL     1      50.051   7.409  13.779  0.00  0.00    +0.000 N 
ATOM     21  C   UNL     1      50.320   7.915  15.034  0.00  0.00    +0.000 C 
ATOM     22  O   UNL     1      49.757   8.888  15.518  0.00  0.00    +0.000 OA
ATOM     23  H   UNL     1      50.459   6.526  13.511  0.00  0.00    +0.000 HD
BRANCH  21  24
ATOM     24  C   UNL     1      51.357   7.184  15.763  0.00  0.00    +0.000 A 
ATOM     25  C   UNL     1      52.702   7.512  15.700  0.00  0.00    +0.000 A 
ATOM     26  S   UNL     1      53.677   6.518  16.686  0.00  0.00    +0.000 S 
ATOM     27  C   UNL     1      52.329   5.631  17.221  0.00  0.00    +0.000 A 
ATOM     28  N   UNL     1      52.491   4.611  18.091  0.00  0.00    +0.000 NA
ATOM     29  C   UNL     1      51.345   3.989  18.427  0.00  0.00    +0.000 A 
ATOM     30  C   UNL     1      50.087   4.316  17.956  0.00  0.00    +0.000 A 
ATOM     31  C   UNL     1      49.966   5.380  17.061  0.00  0.00    +0.000 A 
ATOM     32  C   UNL     1      51.132   6.076  16.666  0.00  0.00    +0.000 A 
ENDBRANCH  21  24
ENDBRANCH  19  20
ENDBRANCH   4  19
TORSDOF 8
ENDMDL
MODEL 7
REMARK VINA RESULT:    -7.226      1.761      2.514
REMARK INTER + INTRA:         -11.255
REMARK INTER:                 -10.511
REMARK INTRA:                  -0.743
REMARK UNBOUND:                -0.861
REMARK  Name = 
REMARK  8 active torsions:
REMARK  status: ('A' for Active; 'I' for Inactive)
REMARK    1  A    between atoms: N_1  and  C_2
REMARK    2  A    between atoms: C_2  and  C_3
REMARK    3  A    between atoms: C_2  and  C_24
REMARK    4  A    between atoms: C_3  and  O_4
REMARK    5  A    between atoms: O_4  and  C_5
REMARK    6  A    between atoms: C_8  and  C_9
REMARK    7  A    between atoms: C_9  and  N_10
REMARK    8  A    between atoms: C_11  and  C_13
REMARK                            x       y       z     vdW  Elec       q    Type
REMARK                         _______ _______ _______ _____ _____    ______ ____
ROOT
ATOM      1  C   UNL     1      44.965   4.405  12.210  0.00  0.00    +0.000 A 
ATOM      2  C   UNL     1      45.983   3.809  12.955  0.00  0.00    +0.000 A 
ATOM      3  C   UNL     1      46.971   4.593  13.550  0.00  0.00    +0.000 A 
ATOM      4  C   UNL     1      46.971   5.985  13.404  0.00  0.00    +0.000 A 
ATOM      5  C   UNL     1      45.949   6.582  12.656  0.00  0.00    +0.000 A 
ATOM      6  C   UNL     1      44.951   5.793  12.070  0.00  0.00    +0.000 A 
ENDROOT
BRANCH   1   7
ATOM      7  O   UNL     1      43.949   3.727  11.579  0.00  0.00    +0.000 OA
BRANCH   7   8
ATOM      8  C   UNL     1      44.359   2.922  10.465  0.00  0.00    +0.000 C 
BRANCH   8   9
ATOM      9  C   UNL     1      44.843   3.808   9.294  0.00  0.00    +0.000 C 
BRANCH   9  10
ATOM     10  C   UNL     1      45.658   2.972   8.320  0.00  0.00    +0.000 A 
ATOM     11  C   UNL     1      46.256   3.574   7.203  0.00  0.00    +0.000 A 
ATOM     12  C   UNL     1      47.071   2.830   6.344  0.00  0.00    +0.000 A 
ATOM     13  C   UNL     1      47.296   1.477   6.587  0.00  0.00    +0.000 A 
ATOM     14  C   UNL     1      46.697   0.860   7.681  0.00  0.00    +0.000 A 
ATOM     15  C   UNL     1      45.881   1.600   8.539  0.00  0.00    +0.000 A 
ENDBRANCH   9  10
BRANCH   9  16
ATOM     16  N   UNL     1      43.729   4.489   8.616  0.00  0.00    +0.000 NA
ATOM     17  H   UNL     1      43.232   3.785   8.065  0.00  0.00    +0.000 HD
ATOM     18  H   UNL     1      44.101   5.148   7.935  0.00  0.00    +0.000 HD
ENDBRANCH   9  16
ENDBRANCH   8   9
ENDBRANCH   7   8
ENDBRANCH   1   7
BRANCH   4  19
ATOM     19  C   UNL     1      48.086   6.788  14.018  0.00  0.00    +0.000 C 
BRANCH  19  20
ATOM     20  N   UNL     1      48.367   6.403  15.381  0.00  0.00    +0.000 N 
ATOM     21  C   UNL     1      48.754   7.305  16.351  0.00  0.00    +0.000 C 
ATOM     22  O   UNL     1      48.865   8.510  16.162  0.00  0.00    +0.000 OA
ATOM     23  H   UNL     1      48.167   5.452  15.651  0.00  0.00    +0.000 HD
BRANCH  21  24
ATOM     24  C   UNL     1      49.029   6.700  17.653  0.00  0.00    +0.000 A 
ATOM     25  C   UNL     1      48.162   6.792  18.730  0.00  0.00    +0.000 A 
ATOM     26  S   UNL     1      48.719   5.952  20.108  0.00  0.00    +0.000 S 
ATOM     27  C   UNL     1      50.126   5.446  19.298  0.00  0.00    +0.000 A 
ATOM     28  N   UNL     1      51.041   4.687  19.940  0.00  0.00    +0.000 NA
ATOM     29  C   UNL     1      52.109   4.361  19.187  0.00  0.00    +0.000 A 
ATOM     30  C   UNL     1      52.309   4.741  17.873  0.00  0.00    +0.000 A 
ATOM     31  C   UNL     1      51.336   5.521  17.248  0.00  0.00    +0.000 A 
ATOM     32  C   UNL     1      50.189   5.899  17.983  0.00  0.00    +0.000 A 
ENDBRANCH  21  24
ENDBRANCH  19  20
ENDBRANCH   4  19
TORSDOF 8
ENDMDL
MODEL 8
REMARK VINA RESULT:    -7.097      3.986      5.251
REMARK INTER + INTRA:         -11.069
REMARK INTER:                  -9.893
REMARK INTRA:                  -1.176
REMARK UNBOUND:                -0.861
REMARK  Name = 
REMARK  8 active torsions:
REMARK  status: ('A' for Active; 'I' for Inactive)
REMARK    1  A    between atoms: N_1  and  C_2
REMARK    2  A    between atoms: C_2  and  C_3
REMARK    3  A    between atoms: C_2  and  C_24
REMARK    4  A    between atoms: C_3  and  O_4
REMARK    5  A    between atoms: O_4  and  C_5
REMARK    6  A    between atoms: C_8  and  C_9
REMARK    7  A    between atoms: C_9  and  N_10
REMARK    8  A    between atoms: C_11  and  C_13
REMARK                            x       y       z     vdW  Elec       q    Type
REMARK                         _______ _______ _______ _____ _____    ______ ____
ROOT
ATOM      1  C   UNL     1      45.643   5.391  13.157  0.00  0.00    +0.000 A 
ATOM      2  C   UNL     1      45.158   6.575  12.598  0.00  0.00    +0.000 A 
ATOM      3  C   UNL     1      46.017   7.649  12.370  0.00  0.00    +0.000 A 
ATOM      4  C   UNL     1      47.373   7.571  12.705  0.00  0.00    +0.000 A 
ATOM      5  C   UNL     1      47.859   6.384  13.266  0.00  0.00    +0.000 A 
ATOM      6  C   UNL     1      46.996   5.302  13.483  0.00  0.00    +0.000 A 
ENDROOT
BRANCH   1   7
ATOM      7  O   UNL     1      44.884   4.278  13.428  0.00  0.00    +0.000 OA
BRANCH   7   8
ATOM      8  C   UNL     1      45.086   3.175  12.534  0.00  0.00    +0.000 C 
BRANCH   8   9
ATOM      9  C   UNL     1      44.030   3.182  11.405  0.00  0.00    +0.000 C 
BRANCH   9  10
ATOM     10  C   UNL     1      44.723   3.264  10.054  0.00  0.00    +0.000 A 
ATOM     11  C   UNL     1      45.101   4.510   9.530  0.00  0.00    +0.000 A 
ATOM     12  C   UNL     1      45.807   4.591   8.327  0.00  0.00    +0.000 A 
ATOM     13  C   UNL     1      46.141   3.433   7.629  0.00  0.00    +0.000 A 
ATOM     14  C   UNL     1      45.759   2.190   8.126  0.00  0.00    +0.000 A 
ATOM     15  C   UNL     1      45.052   2.106   9.326  0.00  0.00    +0.000 A 
ENDBRANCH   9  10
BRANCH   9  16
ATOM     16  N   UNL     1      43.133   2.018  11.478  0.00  0.00    +0.000 NA
ATOM     17  H   UNL     1      42.395   2.244  12.147  0.00  0.00    +0.000 HD
ATOM     18  H   UNL     1      43.633   1.231  11.886  0.00  0.00    +0.000 HD
ENDBRANCH   9  16
ENDBRANCH   8   9
ENDBRANCH   7   8
ENDBRANCH   1   7
BRANCH   4  19
ATOM     19  C   UNL     1      48.253   8.773  12.491  0.00  0.00    +0.000 C 
BRANCH  19  20
ATOM     20  N   UNL     1      49.657   8.440  12.467  0.00  0.00    +0.000 N 
ATOM     21  C   UNL     1      50.576   9.120  11.695  0.00  0.00    +0.000 C 
ATOM     22  O   UNL     1      50.301  10.080  10.986  0.00  0.00    +0.000 OA
ATOM     23  H   UNL     1      49.988   7.750  13.125  0.00  0.00    +0.000 HD
BRANCH  21  24
ATOM     24  C   UNL     1      51.938   8.594  11.785  0.00  0.00    +0.000 A 
ATOM     25  C   UNL     1      52.758   8.800  12.883  0.00  0.00    +0.000 A 
ATOM     26  S   UNL     1      54.276   8.033  12.735  0.00  0.00    +0.000 S 
ATOM     27  C   UNL     1      53.871   7.406  11.207  0.00  0.00    +0.000 A 
ATOM     28  N   UNL     1      54.761   6.651  10.527  0.00  0.00    +0.000 NA
ATOM     29  C   UNL     1      54.317   6.224   9.329  0.00  0.00    +0.000 A 
ATOM     30  C   UNL     1      53.075   6.502   8.789  0.00  0.00    +0.000 A 
ATOM     31  C   UNL     1      52.186   7.282   9.528  0.00  0.00    +0.000 A 
ATOM     32  C   UNL     1      52.590   7.764  10.795  0.00  0.00    +0.000 A 
ENDBRANCH  21  24
ENDBRANCH  19  20
ENDBRANCH   4  19
TORSDOF 8
ENDMDL
MODEL 9
REMARK VINA RESULT:    -7.071      2.625      8.390
REMARK INTER + INTRA:         -11.032
REMARK INTER:                  -9.583
REMARK INTRA:                  -1.449
REMARK UNBOUND:                -0.861
REMARK  Name = 
REMARK  8 active torsions:
REMARK  status: ('A' for Active; 'I' for Inactive)
REMARK    1  A    between atoms: N_1  and  C_2
REMARK    2  A    between atoms: C_2  and  C_3
REMARK    3  A    between atoms: C_2  and  C_24
REMARK    4  A    between atoms: C_3  and  O_4
REMARK    5  A    between atoms: O_4  and  C_5
REMARK    6  A    between atoms: C_8  and  C_9
REMARK    7  A    between atoms: C_9  and  N_10
REMARK    8  A    between atoms: C_11  and  C_13
REMARK                            x       y       z     vdW  Elec       q    Type
REMARK                         _______ _______ _______ _____ _____    ______ ____
ROOT
ATOM      1  C   UNL     1      48.910   8.040  16.344  0.00  0.00    +0.000 A 
ATOM      2  C   UNL     1      49.246   6.915  15.591  0.00  0.00    +0.000 A 
ATOM      3  C   UNL     1      48.914   6.849  14.238  0.00  0.00    +0.000 A 
ATOM      4  C   UNL     1      48.230   7.896  13.612  0.00  0.00    +0.000 A 
ATOM      5  C   UNL     1      47.892   9.024  14.368  0.00  0.00    +0.000 A 
ATOM      6  C   UNL     1      48.237   9.094  15.724  0.00  0.00    +0.000 A 
ENDROOT
BRANCH   1   7
ATOM      7  O   UNL     1      49.183   8.206  17.681  0.00  0.00    +0.000 OA
BRANCH   7   8
ATOM      8  C   UNL     1      48.247   7.584  18.571  0.00  0.00    +0.000 C 
BRANCH   8   9
ATOM      9  C   UNL     1      48.900   6.395  19.314  0.00  0.00    +0.000 C 
BRANCH   9  10
ATOM     10  C   UNL     1      48.661   5.110  18.538  0.00  0.00    +0.000 A 
ATOM     11  C   UNL     1      47.383   4.812  18.042  0.00  0.00    +0.000 A 
ATOM     12  C   UNL     1      47.170   3.673  17.261  0.00  0.00    +0.000 A 
ATOM     13  C   UNL     1      48.227   2.815  16.968  0.00  0.00    +0.000 A 
ATOM     14  C   UNL     1      49.498   3.086  17.466  0.00  0.00    +0.000 A 
ATOM     15  C   UNL     1      49.713   4.222  18.248  0.00  0.00    +0.000 A 
ENDBRANCH   9  10
BRANCH   9  16
ATOM     16  N   UNL     1      50.333   6.615  19.561  0.00  0.00    +0.000 NA
ATOM     17  H   UNL     1      50.815   5.736  19.363  0.00  0.00    +0.000 HD
ATOM     18  H   UNL     1      50.482   6.784  20.553  0.00  0.00    +0.000 HD
ENDBRANCH   9  16
ENDBRANCH   8   9
ENDBRANCH   7   8
ENDBRANCH   1   7
BRANCH   4  19
ATOM     19  C   UNL     1      47.844   7.760  12.163  0.00  0.00    +0.000 C 
BRANCH  19  20
ATOM     20  N   UNL     1      47.025   6.597  11.911  0.00  0.00    +0.000 N 
ATOM     21  C   UNL     1      45.662   6.581  12.120  0.00  0.00    +0.000 C 
ATOM     22  O   UNL     1      45.015   7.547  12.505  0.00  0.00    +0.000 OA
ATOM     23  H   UNL     1      47.460   5.804  11.464  0.00  0.00    +0.000 HD
BRANCH  21  24
ATOM     24  C   UNL     1      45.031   5.291  11.842  0.00  0.00    +0.000 A 
ATOM     25  C   UNL     1      44.314   4.579  12.789  0.00  0.00    +0.000 A 
ATOM     26  S   UNL     1      43.652   3.131  12.174  0.00  0.00    +0.000 S 
ATOM     27  C   UNL     1      44.303   3.424  10.631  0.00  0.00    +0.000 A 
ATOM     28  N   UNL     1      44.100   2.538   9.631  0.00  0.00    +0.000 NA
ATOM     29  C   UNL     1      44.675   2.888   8.464  0.00  0.00    +0.000 A 
ATOM     30  C   UNL     1      45.417   4.034   8.248  0.00  0.00    +0.000 A 
ATOM     31  C   UNL     1      45.597   4.923   9.308  0.00  0.00    +0.000 A 
ATOM     32  C   UNL     1      45.020   4.615  10.562  0.00  0.00    +0.000 A 
ENDBRANCH  21  24
ENDBRANCH  19  20
ENDBRANCH   4  19
TORSDOF 8
ENDMDL
