MODEL 1
REMARK VINA RESULT:    -8.033      0.000      0.000
REMARK INTER + INTRA:          -9.540
REMARK INTER:                  -8.972
REMARK INTRA:                  -0.568
REMARK UNBOUND:                -0.568
REMARK  Name = 
REMARK  2 active torsions:
REMARK  status: ('A' for Active; 'I' for Inactive)
REMARK    1  A    between atoms: N_6  and  C_7
REMARK    2  A    between atoms: C_7  and  C_8
REMARK                            x       y       z     vdW  Elec       q    Type
REMARK                         _______ _______ _______ _____ _____    ______ ____
ROOT
ATOM      1  C   UNL     1      45.398   4.397  12.065  0.00  0.00    +0.000 A 
ATOM      2  C   UNL     1      45.889   3.500  13.011  0.00  0.00    +0.000 A 
ATOM      3  C   UNL     1      47.009   3.855  13.740  0.00  0.00    +0.000 A 
ATOM      4  N   UNL     1      47.671   5.023  13.587  0.00  0.00    +0.000 NA
ATOM      5  C   UNL     1      47.181   5.932  12.722  0.00  0.00    +0.000 A 
ATOM      6  N   UNL     1      47.855   7.119  12.558  0.00  0.00    +0.000 N 
ATOM      7  C   UNL     1      49.310   7.152  12.710  0.00  0.00    +0.000 C 
ATOM      8  C   UNL     1      49.728   8.331  13.613  0.00  0.00    +0.000 C 
ATOM      9  N   UNL     1      49.173   9.635  13.178  0.00  0.00    +0.000 NA
ATOM     10  C   UNL     1      47.702   9.519  13.113  0.00  0.00    +0.000 C 
ATOM     11  C   UNL     1      47.201   8.375  12.199  0.00  0.00    +0.000 C 
ATOM     12  C   UNL     1      46.036   5.647  11.986  0.00  0.00    +0.000 A 
ATOM     13  H   UNL     1      49.516   9.817  12.235  0.00  0.00    +0.000 HD
ENDROOT
BRANCH   1  14
ATOM     14  C   UNL     1      44.272   4.040  11.103  0.00  0.00    +0.000 C 
ATOM     15  C   UNL     1      42.852   4.149  11.670  0.00  0.00    +0.000 C 
ATOM     16  C   UNL     1      43.325   5.144  10.666  0.00  0.00    +0.000 C 
BRANCH  14  22
ATOM     17 CL   UNL     1      47.697   2.166   5.387  0.00  0.00    +0.000 Cl
ATOM     18  C   UNL     1      46.821   2.447   6.834  0.00  0.00    +0.000 A 
ATOM     19  C   UNL     1      46.363   3.716   7.154  0.00  0.00    +0.000 A 
ATOM     20  C   UNL     1      45.627   3.899   8.328  0.00  0.00    +0.000 A 
ATOM     21  C   UNL     1      45.359   2.808   9.147  0.00  0.00    +0.000 A 
ATOM     22  N   UNL     1      44.535   2.864  10.274  0.00  0.00    +0.000 N 
ATOM     23  N   UNL     1      45.816   1.573   8.849  0.00  0.00    +0.000 NA
ATOM     24  C   UNL     1      46.536   1.417   7.710  0.00  0.00    +0.000 A 
ATOM     25  H   UNL     1      44.595   1.958  10.734  0.00  0.00    +0.000 HD
ENDBRANCH  14  22
ENDBRANCH   1  14
TORSDOF 2
ENDMDL
MODEL 2
REMARK VINA RESULT:    -7.796      2.102      3.372
REMARK INTER + INTRA:          -9.276
REMARK INTER:                  -8.984
REMARK INTRA:                  -0.292
REMARK UNBOUND:                -0.568
REMARK  Name = 
REMARK  2 active torsions:
REMARK  status: ('A' for Active; 'I' for Inactive)
REMARK    1  A    between atoms: N_6  and  C_7
REMARK    2  A    between atoms: C_7  and  C_8
REMARK                            x       y       z     vdW  Elec       q    Type
REMARK                         _______ _______ _______ _____ _____    ______ ____
ROOT
ATOM      1  C   UNL     1      45.746   5.259  12.554  0.00  0.00    +0.000 A 
ATOM      2  C   UNL     1      46.610   6.158  11.933  0.00  0.00    +0.000 A 
ATOM      3  C   UNL     1      47.758   6.540  12.601  0.00  0.00    +0.000 A 
ATOM      4  N   UNL     1      48.098   6.101  13.833  0.00  0.00    +0.000 NA
ATOM      5  C   UNL     1      47.310   5.184  14.429  0.00  0.00    +0.000 A 
ATOM      6  N   UNL     1      47.647   4.740  15.685  0.00  0.00    +0.000 N 
ATOM      7  C   UNL     1      48.336   5.640  16.611  0.00  0.00    +0.000 C 
ATOM      8  C   UNL     1      49.543   4.927  17.255  0.00  0.00    +0.000 C 
ATOM      9  N   UNL     1      49.199   3.626  17.878  0.00  0.00    +0.000 NA
ATOM     10  C   UNL     1      48.568   2.770  16.853  0.00  0.00    +0.000 C 
ATOM     11  C   UNL     1      47.326   3.403  16.181  0.00  0.00    +0.000 C 
ATOM     12  C   UNL     1      46.160   4.734  13.790  0.00  0.00    +0.000 A 
ATOM     13  H   UNL     1      48.508   3.806  18.606  0.00  0.00    +0.000 HD
ENDROOT
BRANCH   1  14
ATOM     14  C   UNL     1      44.383   4.898  11.976  0.00  0.00    +0.000 C 
ATOM     15  C   UNL     1      43.192   5.067  12.924  0.00  0.00    +0.000 C 
ATOM     16  C   UNL     1      43.367   6.010  11.785  0.00  0.00    +0.000 C 
BRANCH  14  22
ATOM     17 CL   UNL     1      46.765   2.489   5.939  0.00  0.00    +0.000 Cl
ATOM     18  C   UNL     1      46.127   2.908   7.475  0.00  0.00    +0.000 A 
ATOM     19  C   UNL     1      45.891   4.232   7.810  0.00  0.00    +0.000 A 
ATOM     20  C   UNL     1      45.342   4.532   9.060  0.00  0.00    +0.000 A 
ATOM     21  C   UNL     1      45.035   3.500   9.939  0.00  0.00    +0.000 A 
ATOM     22  N   UNL     1      44.376   3.685  11.158  0.00  0.00    +0.000 N 
ATOM     23  N   UNL     1      45.277   2.210   9.625  0.00  0.00    +0.000 NA
ATOM     24  C   UNL     1      45.819   1.940   8.411  0.00  0.00    +0.000 A 
ATOM     25  H   UNL     1      44.371   2.786  11.635  0.00  0.00    +0.000 HD
ENDBRANCH  14  22
ENDBRANCH   1  14
TORSDOF 2
ENDMDL
MODEL 3
REMARK VINA RESULT:    -6.389      2.673      4.577
REMARK INTER + INTRA:          -7.705
REMARK INTER:                  -7.139
REMARK INTRA:                  -0.566
REMARK UNBOUND:                -0.568
REMARK  Name = 
REMARK  2 active torsions:
REMARK  status: ('A' for Active; 'I' for Inactive)
REMARK    1  A    between atoms: N_6  and  C_7
REMARK    2  A    between atoms: C_7  and  C_8
REMARK                            x       y       z     vdW  Elec       q    Type
REMARK                         _______ _______ _______ _____ _____    ______ ____
ROOT
ATOM      1  C   UNL     1      46.981   7.280  12.996  0.00  0.00    +0.000 A 
ATOM      2  C   UNL     1      48.194   7.776  12.524  0.00  0.00    +0.000 A 
ATOM      3  C   UNL     1      49.349   7.463  13.215  0.00  0.00    +0.000 A 
ATOM      4  N   UNL     1      49.379   6.707  14.334  0.00  0.00    +0.000 NA
ATOM      5  C   UNL     1      48.227   6.166  14.777  0.00  0.00    +0.000 A 
ATOM      6  N   UNL     1      48.251   5.402  15.919  0.00  0.00    +0.000 N 
ATOM      7  C   UNL     1      49.220   5.706  16.973  0.00  0.00    +0.000 C 
ATOM      8  C   UNL     1      49.929   4.418  17.438  0.00  0.00    +0.000 C 
ATOM      9  N   UNL     1      48.993   3.333  17.822  0.00  0.00    +0.000 NA
ATOM     10  C   UNL     1      48.101   3.058  16.679  0.00  0.00    +0.000 C 
ATOM     11  C   UNL     1      47.327   4.299  16.172  0.00  0.00    +0.000 C 
ATOM     12  C   UNL     1      47.037   6.415  14.102  0.00  0.00    +0.000 A 
ATOM     13  H   UNL     1      48.421   3.679  18.593  0.00  0.00    +0.000 HD
ENDROOT
BRANCH   1  14
ATOM     14  C   UNL     1      45.639   7.694  12.404  0.00  0.00    +0.000 C 
ATOM     15  C   UNL     1      45.106   9.059  12.851  0.00  0.00    +0.000 C 
ATOM     16  C   UNL     1      45.608   8.882  11.459  0.00  0.00    +0.000 C 
BRANCH  14  22
ATOM     17 CL   UNL     1      44.362   1.786   9.030  0.00  0.00    +0.000 Cl
ATOM     18  C   UNL     1      44.537   3.202   9.981  0.00  0.00    +0.000 A 
ATOM     19  C   UNL     1      45.310   4.265   9.540  0.00  0.00    +0.000 A 
ATOM     20  C   UNL     1      45.404   5.414  10.329  0.00  0.00    +0.000 A 
ATOM     21  C   UNL     1      44.717   5.475  11.536  0.00  0.00    +0.000 A 
ATOM     22  N   UNL     1      44.650   6.618  12.338  0.00  0.00    +0.000 N 
ATOM     23  N   UNL     1      43.976   4.437  11.979  0.00  0.00    +0.000 NA
ATOM     24  C   UNL     1      43.904   3.328  11.203  0.00  0.00    +0.000 A 
ATOM     25  H   UNL     1      44.172   6.354  13.196  0.00  0.00    +0.000 HD
ENDBRANCH  14  22
ENDBRANCH   1  14
TORSDOF 2
ENDMDL
MODEL 4
REMARK VINA RESULT:    -6.249      4.159      7.981
REMARK INTER + INTRA:          -7.548
REMARK INTER:                  -7.021
REMARK INTRA:                  -0.527
REMARK UNBOUND:                -0.568
REMARK  Name = 
REMARK  2 active torsions:
REMARK  status: ('A' for Active; 'I' for Inactive)
REMARK    1  A    between atoms: N_6  and  C_7
REMARK    2  A    between atoms: C_7  and  C_8
REMARK                            x       y       z     vdW  Elec       q    Type
REMARK                         _______ _______ _______ _____ _____    ______ ____
ROOT
ATOM      1  C   UNL     1      47.603   7.799  12.739  0.00  0.00    +0.000 A 
ATOM      2  C   UNL     1      46.829   8.951  12.850  0.00  0.00    +0.000 A 
ATOM      3  C   UNL     1      45.476   8.868  12.576  0.00  0.00    +0.000 A 
ATOM      4  N   UNL     1      44.851   7.732  12.195  0.00  0.00    +0.000 NA
ATOM      5  C   UNL     1      45.566   6.591  12.138  0.00  0.00    +0.000 A 
ATOM      6  N   UNL     1      44.937   5.435  11.745  0.00  0.00    +0.000 N 
ATOM      7  C   UNL     1      43.830   5.503  10.789  0.00  0.00    +0.000 C 
ATOM      8  C   UNL     1      42.640   4.657  11.286  0.00  0.00    +0.000 C 
ATOM      9  N   UNL     1      43.008   3.262  11.630  0.00  0.00    +0.000 NA
ATOM     10  C   UNL     1      44.084   3.299  12.641  0.00  0.00    +0.000 C 
ATOM     11  C   UNL     1      45.331   4.105  12.203  0.00  0.00    +0.000 C 
ATOM     12  C   UNL     1      46.924   6.606  12.439  0.00  0.00    +0.000 A 
ATOM     13  H   UNL     1      43.382   2.825  10.788  0.00  0.00    +0.000 HD
ENDROOT
BRANCH   1  14
ATOM     14  C   UNL     1      49.122   7.816  12.863  0.00  0.00    +0.000 C 
ATOM     15  C   UNL     1      49.899   7.759  11.544  0.00  0.00    +0.000 C 
ATOM     16  C   UNL     1      49.872   9.024  12.331  0.00  0.00    +0.000 C 
BRANCH  14  22
ATOM     17 CL   UNL     1      48.689   7.047  19.729  0.00  0.00    +0.000 Cl
ATOM     18  C   UNL     1      48.890   7.074  18.026  0.00  0.00    +0.000 A 
ATOM     19  C   UNL     1      48.639   8.227  17.298  0.00  0.00    +0.000 A 
ATOM     20  C   UNL     1      48.842   8.218  15.916  0.00  0.00    +0.000 A 
ATOM     21  C   UNL     1      49.301   7.061  15.297  0.00  0.00    +0.000 A 
ATOM     22  N   UNL     1      49.648   6.985  13.946  0.00  0.00    +0.000 N 
ATOM     23  N   UNL     1      49.532   5.930  15.999  0.00  0.00    +0.000 NA
ATOM     24  C   UNL     1      49.320   5.956  17.338  0.00  0.00    +0.000 A 
ATOM     25  H   UNL     1      49.853   6.009  13.744  0.00  0.00    +0.000 HD
ENDBRANCH  14  22
ENDBRANCH   1  14
TORSDOF 2
ENDMDL
MODEL 5
REMARK VINA RESULT:    -5.955      3.293      5.945
REMARK INTER + INTRA:          -7.220
REMARK INTER:                  -6.998
REMARK INTRA:                  -0.221
REMARK UNBOUND:                -0.568
REMARK  Name = 
REMARK  2 active torsions:
REMARK  status: ('A' for Active; 'I' for Inactive)
REMARK    1  A    between atoms: N_6  and  C_7
REMARK    2  A    between atoms: C_7  and  C_8
REMARK                            x       y       z     vdW  Elec       q    Type
REMARK                         _______ _______ _______ _____ _____    ______ ____
ROOT
ATOM      1  C   UNL     1      48.669   7.590  14.161  0.00  0.00    +0.000 A 
ATOM      2  C   UNL     1      50.033   7.870  14.156  0.00  0.00    +0.000 A 
ATOM      3  C   UNL     1      50.823   7.326  15.152  0.00  0.00    +0.000 A 
ATOM      4  N   UNL     1      50.352   6.540  16.144  0.00  0.00    +0.000 NA
ATOM      5  C   UNL     1      49.046   6.205  16.137  0.00  0.00    +0.000 A 
ATOM      6  N   UNL     1      48.561   5.411  17.148  0.00  0.00    +0.000 N 
ATOM      7  C   UNL     1      49.155   5.495  18.483  0.00  0.00    +0.000 C 
ATOM      8  C   UNL     1      49.448   4.083  19.030  0.00  0.00    +0.000 C 
ATOM      9  N   UNL     1      48.275   3.176  18.986  0.00  0.00    +0.000 NA
ATOM     10  C   UNL     1      47.787   3.110  17.594  0.00  0.00    +0.000 C 
ATOM     11  C   UNL     1      47.440   4.489  16.983  0.00  0.00    +0.000 C 
ATOM     12  C   UNL     1      48.209   6.692  15.139  0.00  0.00    +0.000 A 
ATOM     13  H   UNL     1      47.541   3.595  19.558  0.00  0.00    +0.000 HD
ENDROOT
BRANCH   1  14
ATOM     14  C   UNL     1      47.690   8.264  13.207  0.00  0.00    +0.000 C 
ATOM     15  C   UNL     1      47.848   9.780  13.051  0.00  0.00    +0.000 C 
ATOM     16  C   UNL     1      48.239   8.879  11.931  0.00  0.00    +0.000 C 
BRANCH  14  22
ATOM     17 CL   UNL     1      43.540   3.346  10.656  0.00  0.00    +0.000 Cl
ATOM     18  C   UNL     1      44.431   4.600  11.412  0.00  0.00    +0.000 A 
ATOM     19  C   UNL     1      45.566   5.127  10.815  0.00  0.00    +0.000 A 
ATOM     20  C   UNL     1      46.249   6.169  11.449  0.00  0.00    +0.000 A 
ATOM     21  C   UNL     1      45.775   6.664  12.658  0.00  0.00    +0.000 A 
ATOM     22  N   UNL     1      46.314   7.777  13.309  0.00  0.00    +0.000 N 
ATOM     23  N   UNL     1      44.680   6.144  13.253  0.00  0.00    +0.000 NA
ATOM     24  C   UNL     1      44.037   5.128  12.627  0.00  0.00    +0.000 A 
ATOM     25  H   UNL     1      45.845   7.854  14.208  0.00  0.00    +0.000 HD
ENDBRANCH  14  22
ENDBRANCH   1  14
TORSDOF 2
ENDMDL
MODEL 6
REMARK VINA RESULT:    -5.871      3.232      6.964
REMARK INTER + INTRA:          -7.126
REMARK INTER:                  -7.348
REMARK INTRA:                   0.222
REMARK UNBOUND:                -0.568
REMARK  Name = 
REMARK  2 active torsions:
REMARK  status: ('A' for Active; 'I' for Inactive)
REMARK    1  A    between atoms: N_6  and  C_7
REMARK    2  A    between atoms: C_7  and  C_8
REMARK                            x       y       z     vdW  Elec       q    Type
REMARK                         _______ _______ _______ _____ _____    ______ ____
ROOT
ATOM      1  C   UNL     1      44.686   3.227  10.397  0.00  0.00    +0.000 A 
ATOM      2  C   UNL     1      44.126   4.380   9.851  0.00  0.00    +0.000 A 
ATOM      3  C   UNL     1      44.495   4.752   8.572  0.00  0.00    +0.000 A 
ATOM      4  N   UNL     1      45.379   4.070   7.812  0.00  0.00    +0.000 NA
ATOM      5  C   UNL     1      45.889   2.919   8.293  0.00  0.00    +0.000 A 
ATOM      6  N   UNL     1      46.794   2.225   7.526  0.00  0.00    +0.000 N 
ATOM      7  C   UNL     1      47.689   2.953   6.626  0.00  0.00    +0.000 C 
ATOM      8  C   UNL     1      47.697   2.298   5.230  0.00  0.00    +0.000 C 
ATOM      9  N   UNL     1      47.982   0.842   5.261  0.00  0.00    +0.000 NA
ATOM     10  C   UNL     1      46.993   0.191   6.142  0.00  0.00    +0.000 C 
ATOM     11  C   UNL     1      46.947   0.773   7.575  0.00  0.00    +0.000 C 
ATOM     12  C   UNL     1      45.527   2.474   9.560  0.00  0.00    +0.000 A 
ATOM     13  H   UNL     1      48.905   0.719   5.677  0.00  0.00    +0.000 HD
ENDROOT
BRANCH   1  14
ATOM     14  C   UNL     1      44.470   2.818  11.848  0.00  0.00    +0.000 C 
ATOM     15  C   UNL     1      43.212   3.380  12.519  0.00  0.00    +0.000 C 
ATOM     16  C   UNL     1      43.280   1.932  12.174  0.00  0.00    +0.000 C 
BRANCH  14  22
ATOM     17 CL   UNL     1      48.666   7.212  15.165  0.00  0.00    +0.000 Cl
ATOM     18  C   UNL     1      47.719   5.986  14.431  0.00  0.00    +0.000 A 
ATOM     19  C   UNL     1      46.894   6.271  13.354  0.00  0.00    +0.000 A 
ATOM     20  C   UNL     1      46.161   5.239  12.764  0.00  0.00    +0.000 A 
ATOM     21  C   UNL     1      46.278   3.945  13.258  0.00  0.00    +0.000 A 
ATOM     22  N   UNL     1      45.683   2.828  12.666  0.00  0.00    +0.000 N 
ATOM     23  N   UNL     1      47.068   3.663  14.317  0.00  0.00    +0.000 NA
ATOM     24  C   UNL     1      47.764   4.680  14.882  0.00  0.00    +0.000 A 
ATOM     25  H   UNL     1      45.850   2.037  13.284  0.00  0.00    +0.000 HD
ENDBRANCH  14  22
ENDBRANCH   1  14
TORSDOF 2
ENDMDL
MODEL 7
REMARK VINA RESULT:    -5.470      2.949      7.126
REMARK INTER + INTRA:          -6.677
REMARK INTER:                  -6.061
REMARK INTRA:                  -0.616
REMARK UNBOUND:                -0.568
REMARK  Name = 
REMARK  2 active torsions:
REMARK  status: ('A' for Active; 'I' for Inactive)
REMARK    1  A    between atoms: N_6  and  C_7
REMARK    2  A    between atoms: C_7  and  C_8
REMARK                            x       y       z     vdW  Elec       q    Type
REMARK                         _______ _______ _______ _____ _____    ______ ____
ROOT
ATOM      1  C   UNL     1      47.032   8.258  13.230  0.00  0.00    +0.000 A 
ATOM      2  C   UNL     1      46.211   9.243  12.687  0.00  0.00    +0.000 A 
ATOM      3  C   UNL     1      45.212   8.862  11.810  0.00  0.00    +0.000 A 
ATOM      4  N   UNL     1      44.984   7.585  11.434  0.00  0.00    +0.000 NA
ATOM      5  C   UNL     1      45.725   6.607  11.991  0.00  0.00    +0.000 A 
ATOM      6  N   UNL     1      45.502   5.307  11.607  0.00  0.00    +0.000 N 
ATOM      7  C   UNL     1      45.052   5.022  10.243  0.00  0.00    +0.000 C 
ATOM      8  C   UNL     1      43.861   4.042  10.264  0.00  0.00    +0.000 C 
ATOM      9  N   UNL     1      44.123   2.809  11.046  0.00  0.00    +0.000 NA
ATOM     10  C   UNL     1      44.508   3.198  12.417  0.00  0.00    +0.000 C 
ATOM     11  C   UNL     1      45.720   4.157  12.482  0.00  0.00    +0.000 C 
ATOM     12  C   UNL     1      46.721   6.926  12.908  0.00  0.00    +0.000 A 
ATOM     13  H   UNL     1      44.918   2.336  10.617  0.00  0.00    +0.000 HD
ENDROOT
BRANCH   1  14
ATOM     14  C   UNL     1      48.256   8.585  14.077  0.00  0.00    +0.000 C 
ATOM     15  C   UNL     1      47.993   8.799  15.571  0.00  0.00    +0.000 C 
ATOM     16  C   UNL     1      48.702   7.571  15.115  0.00  0.00    +0.000 C 
BRANCH  14  22
ATOM     17 CL   UNL     1      53.024   8.895   9.068  0.00  0.00    +0.000 Cl
ATOM     18  C   UNL     1      51.857   9.005  10.320  0.00  0.00    +0.000 A 
ATOM     19  C   UNL     1      51.441   7.876  11.007  0.00  0.00    +0.000 A 
ATOM     20  C   UNL     1      50.510   8.011  12.040  0.00  0.00    +0.000 A 
ATOM     21  C   UNL     1      50.025   9.272  12.366  0.00  0.00    +0.000 A 
ATOM     22  N   UNL     1      49.187   9.527  13.455  0.00  0.00    +0.000 N 
ATOM     23  N   UNL     1      50.414  10.374  11.690  0.00  0.00    +0.000 NA
ATOM     24  C   UNL     1      51.311  10.222  10.685  0.00  0.00    +0.000 A 
ATOM     25  H   UNL     1      48.912  10.505  13.399  0.00  0.00    +0.000 HD
ENDBRANCH  14  22
ENDBRANCH   1  14
TORSDOF 2
ENDMDL
