MODEL 1
REMARK VINA RESULT:    -7.549      0.000      0.000
REMARK INTER + INTRA:         -11.627
REMARK INTER:                 -10.638
REMARK INTRA:                  -0.988
REMARK UNBOUND:                -0.988
REMARK  Name = 
REMARK  8 active torsions:
REMARK  status: ('A' for Active; 'I' for Inactive)
REMARK    1  A    between atoms: C_1  and  O_2
REMARK    2  A    between atoms: O_2  and  C_3
REMARK    3  A    between atoms: C_7  and  C_8
REMARK    4  A    between atoms: N_10  and  C_11
REMARK    5  A    between atoms: C_11  and  C_12
REMARK    6  A    between atoms: C_15  and  C_16
REMARK    7  A    between atoms: C_16  and  N_17
REMARK    8  A    between atoms: C_18  and  C_20
REMARK                            x       y       z     vdW  Elec       q    Type
REMARK                         _______ _______ _______ _____ _____    ______ ____
ROOT
ATOM      1  C   UNL     1      45.202   5.443  11.535  0.00  0.00    +0.000 A 
ATOM      2  C   UNL     1      45.725   4.621  12.541  0.00  0.00    +0.000 A 
ATOM      3  C   UNL     1      46.760   5.075  13.370  0.00  0.00    +0.000 A 
ATOM      4  C   UNL     1      47.280   6.369  13.219  0.00  0.00    +0.000 A 
ATOM      5  C   UNL     1      46.751   7.189  12.214  0.00  0.00    +0.000 A 
ATOM      6  C   UNL     1      45.715   6.739  11.390  0.00  0.00    +0.000 A 
ENDROOT
BRANCH   1   7
ATOM      7  C   UNL     1      44.095   4.957  10.633  0.00  0.00    +0.000 C 
BRANCH   7  10
ATOM      8  C   UNL     1      45.367   4.085   8.726  0.00  0.00    +0.000 C 
ATOM      9  O   UNL     1      45.717   5.205   8.366  0.00  0.00    +0.000 OA
ATOM     10  N   UNL     1      44.531   3.860   9.802  0.00  0.00    +0.000 N 
ATOM     11  H   UNL     1      44.426   2.923  10.165  0.00  0.00    +0.000 HD
BRANCH   8  16
ATOM     12  C   UNL     1      47.001   1.901   6.112  0.00  0.00    +0.000 A 
ATOM     13  C   UNL     1      47.002   0.658   6.747  0.00  0.00    +0.000 A 
ATOM     14  C   UNL     1      46.435   0.515   8.018  0.00  0.00    +0.000 A 
ATOM     15  C   UNL     1      45.879   1.617   8.667  0.00  0.00    +0.000 A 
ATOM     16  C   UNL     1      45.891   2.871   8.046  0.00  0.00    +0.000 A 
ATOM     17  C   UNL     1      46.423   2.999   6.755  0.00  0.00    +0.000 A 
BRANCH  12  19
ATOM     18  C   UNL     1      47.213   1.288   3.821  0.00  0.00    +0.000 C 
ATOM     19  O   UNL     1      47.539   2.174   4.885  0.00  0.00    +0.000 OA
ENDBRANCH  12  19
ENDBRANCH   8  16
ENDBRANCH   7  10
ENDBRANCH   1   7
BRANCH   4  20
ATOM     20  C   UNL     1      48.412   6.864  14.084  0.00  0.00    +0.000 C 
BRANCH  20  21
ATOM     21  N   UNL     1      48.219   6.500  15.465  0.00  0.00    +0.000 N 
ATOM     22  C   UNL     1      49.286   6.228  16.286  0.00  0.00    +0.000 C 
ATOM     23  O   UNL     1      50.447   6.329  15.899  0.00  0.00    +0.000 OA
ATOM     24  H   UNL     1      47.294   6.176  15.730  0.00  0.00    +0.000 HD
BRANCH  22  25
ATOM     25  C   UNL     1      48.970   5.869  17.675  0.00  0.00    +0.000 A 
ATOM     26  C   UNL     1      49.198   4.574  18.122  0.00  0.00    +0.000 A 
ATOM     27  S   UNL     1      48.818   4.342  19.769  0.00  0.00    +0.000 S 
ATOM     28  C   UNL     1      48.289   5.951  19.930  0.00  0.00    +0.000 A 
ATOM     29  N   UNL     1      47.798   6.410  21.112  0.00  0.00    +0.000 NA
ATOM     30  C   UNL     1      47.405   7.640  21.084  0.00  0.00    +0.000 A 
ATOM     31  N   UNL     1      47.465   8.454  19.982  0.00  0.00    +0.000 N 
ATOM     32  C   UNL     1      47.979   8.042  18.777  0.00  0.00    +0.000 A 
ATOM     33  O   UNL     1      48.057   8.808  17.823  0.00  0.00    +0.000 OA
ATOM     34  C   UNL     1      48.420   6.661  18.751  0.00  0.00    +0.000 A 
ATOM     35  H   UNL     1      47.154   9.413  20.031  0.00  0.00    +0.000 HD
ENDBRANCH  22  25
ENDBRANCH  20  21
ENDBRANCH   4  20
TORSDOF 7
ENDMDL
MODEL 2
REMARK VINA RESULT:    -7.490      1.195      1.882
REMARK INTER + INTRA:         -11.544
REMARK INTER:                 -10.662
REMARK INTRA:                  -0.882
REMARK UNBOUND:                -0.988
REMARK  Name = 
REMARK  8 active torsions:
REMARK  status: ('A' for Active; 'I' for Inactive)
REMARK    1  A    between atoms: C_1  and  O_2
REMARK    2  A    between atoms: O_2  and  C_3
REMARK    3  A    between atoms: C_7  and  C_8
REMARK    4  A    between atoms: N_10  and  C_11
REMARK    5  A    between atoms: C_11  and  C_12
REMARK    6  A    between atoms: C_15  and  C_16
REMARK    7  A    between atoms: C_16  and  N_17
REMARK    8  A    between atoms: C_18  and  C_20
REMARK                            x       y       z     vdW  Elec       q    Type
REMARK                         _______ _______ _______ _____ _____    ______ ____
ROOT
ATOM      1  C   UNL     1      45.166   5.516  11.518  0.00  0.00    +0.000 A 
ATOM      2  C   UNL     1      45.755   4.722  12.511  0.00  0.00    +0.000 A 
ATOM      3  C   UNL     1      46.807   5.218  13.294  0.00  0.00    +0.000 A 
ATOM      4  C   UNL     1      47.279   6.525  13.109  0.00  0.00    +0.000 A 
ATOM      5  C   UNL     1      46.685   7.317  12.119  0.00  0.00    +0.000 A 
ATOM      6  C   UNL     1      45.632   6.826  11.340  0.00  0.00    +0.000 A 
ENDROOT
BRANCH   1   7
ATOM      7  C   UNL     1      44.041   4.985  10.665  0.00  0.00    +0.000 C 
BRANCH   7  10
ATOM      8  C   UNL     1      45.326   4.135   8.757  0.00  0.00    +0.000 C 
ATOM      9  O   UNL     1      45.681   5.259   8.414  0.00  0.00    +0.000 OA
ATOM     10  N   UNL     1      44.481   3.899   9.824  0.00  0.00    +0.000 N 
ATOM     11  H   UNL     1      44.371   2.956  10.174  0.00  0.00    +0.000 HD
BRANCH   8  16
ATOM     12  C   UNL     1      46.930   1.975   6.105  0.00  0.00    +0.000 A 
ATOM     13  C   UNL     1      46.965   0.733   6.740  0.00  0.00    +0.000 A 
ATOM     14  C   UNL     1      46.432   0.582   8.024  0.00  0.00    +0.000 A 
ATOM     15  C   UNL     1      45.875   1.676   8.687  0.00  0.00    +0.000 A 
ATOM     16  C   UNL     1      45.851   2.929   8.065  0.00  0.00    +0.000 A 
ATOM     17  C   UNL     1      46.350   3.064   6.762  0.00  0.00    +0.000 A 
BRANCH  12  19
ATOM     18  C   UNL     1      47.178   1.312   3.831  0.00  0.00    +0.000 C 
ATOM     19  O   UNL     1      47.434   2.256   4.865  0.00  0.00    +0.000 OA
ENDBRANCH  12  19
ENDBRANCH   8  16
ENDBRANCH   7  10
ENDBRANCH   1   7
BRANCH   4  20
ATOM     20  C   UNL     1      48.427   7.066  13.924  0.00  0.00    +0.000 C 
BRANCH  20  21
ATOM     21  N   UNL     1      48.196   6.899  15.337  0.00  0.00    +0.000 N 
ATOM     22  C   UNL     1      48.977   7.541  16.268  0.00  0.00    +0.000 C 
ATOM     23  O   UNL     1      49.872   8.317  15.942  0.00  0.00    +0.000 OA
ATOM     24  H   UNL     1      47.645   6.096  15.621  0.00  0.00    +0.000 HD
BRANCH  22  25
ATOM     25  C   UNL     1      48.649   7.298  17.679  0.00  0.00    +0.000 A 
ATOM     26  C   UNL     1      48.161   8.336  18.462  0.00  0.00    +0.000 A 
ATOM     27  S   UNL     1      47.791   7.870  20.061  0.00  0.00    +0.000 S 
ATOM     28  C   UNL     1      48.317   6.278  19.778  0.00  0.00    +0.000 A 
ATOM     29  N   UNL     1      48.294   5.347  20.768  0.00  0.00    +0.000 NA
ATOM     30  C   UNL     1      48.750   4.189  20.423  0.00  0.00    +0.000 A 
ATOM     31  N   UNL     1      49.220   3.877  19.173  0.00  0.00    +0.000 N 
ATOM     32  C   UNL     1      49.235   4.776  18.135  0.00  0.00    +0.000 A 
ATOM     33  O   UNL     1      49.624   4.451  17.018  0.00  0.00    +0.000 OA
ATOM     34  C   UNL     1      48.748   6.098  18.476  0.00  0.00    +0.000 A 
ATOM     35  H   UNL     1      49.549   2.946  18.964  0.00  0.00    +0.000 HD
ENDBRANCH  22  25
ENDBRANCH  20  21
ENDBRANCH   4  20
TORSDOF 7
ENDMDL
MODEL 3
REMARK VINA RESULT:    -7.306      1.620      2.527
REMARK INTER + INTRA:         -11.284
REMARK INTER:                 -10.175
REMARK INTRA:                  -1.108
REMARK UNBOUND:                -0.988
REMARK  Name = 
REMARK  8 active torsions:
REMARK  status: ('A' for Active; 'I' for Inactive)
REMARK    1  A    between atoms: C_1  and  O_2
REMARK    2  A    between atoms: O_2  and  C_3
REMARK    3  A    between atoms: C_7  and  C_8
REMARK    4  A    between atoms: N_10  and  C_11
REMARK    5  A    between atoms: C_11  and  C_12
REMARK    6  A    between atoms: C_15  and  C_16
REMARK    7  A    between atoms: C_16  and  N_17
REMARK    8  A    between atoms: C_18  and  C_20
REMARK                            x       y       z     vdW  Elec       q    Type
REMARK                         _______ _______ _______ _____ _____    ______ ____
ROOT
ATOM      1  C   UNL     1      45.388   4.677  12.030  0.00  0.00    +0.000 A 
ATOM      2  C   UNL     1      45.645   5.939  11.480  0.00  0.00    +0.000 A 
ATOM      3  C   UNL     1      46.529   6.827  12.110  0.00  0.00    +0.000 A 
ATOM      4  C   UNL     1      47.185   6.461  13.293  0.00  0.00    +0.000 A 
ATOM      5  C   UNL     1      46.929   5.196  13.837  0.00  0.00    +0.000 A 
ATOM      6  C   UNL     1      46.051   4.307  13.207  0.00  0.00    +0.000 A 
ENDROOT
BRANCH   1   7
ATOM      7  C   UNL     1      44.430   3.721  11.364  0.00  0.00    +0.000 C 
BRANCH   7  10
ATOM      8  C   UNL     1      45.007   3.391   9.003  0.00  0.00    +0.000 C 
ATOM      9  O   UNL     1      44.345   4.358   8.640  0.00  0.00    +0.000 OA
ATOM     10  N   UNL     1      45.076   2.967  10.316  0.00  0.00    +0.000 N 
ATOM     11  H   UNL     1      45.774   2.288  10.585  0.00  0.00    +0.000 HD
BRANCH   8  16
ATOM     12  C   UNL     1      46.835   0.521   7.360  0.00  0.00    +0.000 A 
ATOM     13  C   UNL     1      47.321   1.126   6.201  0.00  0.00    +0.000 A 
ATOM     14  C   UNL     1      47.088   2.485   5.963  0.00  0.00    +0.000 A 
ATOM     15  C   UNL     1      46.354   3.242   6.877  0.00  0.00    +0.000 A 
ATOM     16  C   UNL     1      45.847   2.639   8.034  0.00  0.00    +0.000 A 
ATOM     17  C   UNL     1      46.119   1.287   8.285  0.00  0.00    +0.000 A 
BRANCH  12  19
ATOM     18  C   UNL     1      46.607  -1.760   6.716  0.00  0.00    +0.000 C 
ATOM     19  O   UNL     1      46.977  -0.797   7.696  0.00  0.00    +0.000 OA
ENDBRANCH  12  19
ENDBRANCH   8  16
ENDBRANCH   7  10
ENDBRANCH   1   7
BRANCH   4  20
ATOM     20  C   UNL     1      48.119   7.413  13.998  0.00  0.00    +0.000 C 
BRANCH  20  21
ATOM     21  N   UNL     1      48.089   7.221  15.426  0.00  0.00    +0.000 N 
ATOM     22  C   UNL     1      49.143   7.604  16.219  0.00  0.00    +0.000 C 
ATOM     23  O   UNL     1      50.133   8.167  15.759  0.00  0.00    +0.000 OA
ATOM     24  H   UNL     1      47.415   6.554  15.786  0.00  0.00    +0.000 HD
BRANCH  22  25
ATOM     25  C   UNL     1      49.002   7.362  17.661  0.00  0.00    +0.000 A 
ATOM     26  C   UNL     1      48.921   8.436  18.537  0.00  0.00    +0.000 A 
ATOM     27  S   UNL     1      48.715   7.975  20.167  0.00  0.00    +0.000 S 
ATOM     28  C   UNL     1      48.778   6.324  19.766  0.00  0.00    +0.000 A 
ATOM     29  N   UNL     1      48.689   5.367  20.727  0.00  0.00    +0.000 NA
ATOM     30  C   UNL     1      48.781   4.156  20.285  0.00  0.00    +0.000 A 
ATOM     31  N   UNL     1      48.947   3.818  18.967  0.00  0.00    +0.000 N 
ATOM     32  C   UNL     1      49.014   4.749  17.960  0.00  0.00    +0.000 A 
ATOM     33  O   UNL     1      49.121   4.410  16.786  0.00  0.00    +0.000 OA
ATOM     34  C   UNL     1      48.931   6.126  18.405  0.00  0.00    +0.000 A 
ATOM     35  H   UNL     1      48.998   2.850  18.685  0.00  0.00    +0.000 HD
ENDBRANCH  22  25
ENDBRANCH  20  21
ENDBRANCH   4  20
TORSDOF 7
ENDMDL
MODEL 4
REMARK VINA RESULT:    -7.288      5.668     10.262
REMARK INTER + INTRA:         -11.260
REMARK INTER:                 -10.314
REMARK INTRA:                  -0.945
REMARK UNBOUND:                -0.988
REMARK  Name = 
REMARK  8 active torsions:
REMARK  status: ('A' for Active; 'I' for Inactive)
REMARK    1  A    between atoms: C_1  and  O_2
REMARK    2  A    between atoms: O_2  and  C_3
REMARK    3  A    between atoms: C_7  and  C_8
REMARK    4  A    between atoms: N_10  and  C_11
REMARK    5  A    between atoms: C_11  and  C_12
REMARK    6  A    between atoms: C_15  and  C_16
REMARK    7  A    between atoms: C_16  and  N_17
REMARK    8  A    between atoms: C_18  and  C_20
REMARK                            x       y       z     vdW  Elec       q    Type
REMARK                         _______ _______ _______ _____ _____    ______ ____
ROOT
ATOM      1  C   UNL     1      51.480   3.157  17.769  0.00  0.00    +0.000 A 
ATOM      2  C   UNL     1      50.764   2.069  17.252  0.00  0.00    +0.000 A 
ATOM      3  C   UNL     1      49.392   2.177  16.986  0.00  0.00    +0.000 A 
ATOM      4  C   UNL     1      48.714   3.382  17.214  0.00  0.00    +0.000 A 
ATOM      5  C   UNL     1      49.433   4.469  17.726  0.00  0.00    +0.000 A 
ATOM      6  C   UNL     1      50.804   4.364  17.988  0.00  0.00    +0.000 A 
ENDROOT
BRANCH   1   7
ATOM      7  C   UNL     1      52.954   3.045  18.068  0.00  0.00    +0.000 C 
BRANCH   7  10
ATOM      8  C   UNL     1      54.164   0.931  18.348  0.00  0.00    +0.000 C 
ATOM      9  O   UNL     1      54.374   1.135  19.540  0.00  0.00    +0.000 OA
ATOM     10  N   UNL     1      53.514   1.830  17.527  0.00  0.00    +0.000 N 
ATOM     11  H   UNL     1      53.206   1.536  16.610  0.00  0.00    +0.000 HD
BRANCH   8  16
ATOM     12  C   UNL     1      54.788  -2.772  17.931  0.00  0.00    +0.000 A 
ATOM     13  C   UNL     1      55.145  -2.846  16.584  0.00  0.00    +0.000 A 
ATOM     14  C   UNL     1      55.222  -1.683  15.810  0.00  0.00    +0.000 A 
ATOM     15  C   UNL     1      54.926  -0.442  16.376  0.00  0.00    +0.000 A 
ATOM     16  C   UNL     1      54.549  -0.361  17.721  0.00  0.00    +0.000 A 
ATOM     17  C   UNL     1      54.514  -1.525  18.501  0.00  0.00    +0.000 A 
BRANCH  12  19
ATOM     18  C   UNL     1      53.374  -4.442  18.871  0.00  0.00    +0.000 C 
ATOM     19  O   UNL     1      54.658  -3.833  18.784  0.00  0.00    +0.000 OA
ENDBRANCH  12  19
ENDBRANCH   8  16
ENDBRANCH   7  10
ENDBRANCH   1   7
BRANCH   4  20
ATOM     20  C   UNL     1      47.233   3.508  16.958  0.00  0.00    +0.000 C 
BRANCH  20  21
ATOM     21  N   UNL     1      46.954   4.508  15.958  0.00  0.00    +0.000 N 
ATOM     22  C   UNL     1      47.053   4.224  14.618  0.00  0.00    +0.000 C 
ATOM     23  O   UNL     1      47.336   3.101  14.210  0.00  0.00    +0.000 OA
ATOM     24  H   UNL     1      46.964   5.476  16.262  0.00  0.00    +0.000 HD
BRANCH  22  25
ATOM     25  C   UNL     1      46.743   5.320  13.690  0.00  0.00    +0.000 A 
ATOM     26  C   UNL     1      47.690   6.305  13.444  0.00  0.00    +0.000 A 
ATOM     27  S   UNL     1      47.183   7.474  12.309  0.00  0.00    +0.000 S 
ATOM     28  C   UNL     1      45.661   6.734  12.145  0.00  0.00    +0.000 A 
ATOM     29  N   UNL     1      44.712   7.260  11.326  0.00  0.00    +0.000 NA
ATOM     30  C   UNL     1      43.593   6.614  11.320  0.00  0.00    +0.000 A 
ATOM     31  N   UNL     1      43.342   5.484  12.055  0.00  0.00    +0.000 N 
ATOM     32  C   UNL     1      44.279   4.901  12.873  0.00  0.00    +0.000 A 
ATOM     33  O   UNL     1      44.035   3.866  13.484  0.00  0.00    +0.000 OA
ATOM     34  C   UNL     1      45.548   5.598  12.927  0.00  0.00    +0.000 A 
ATOM     35  H   UNL     1      42.449   5.017  11.994  0.00  0.00    +0.000 HD
ENDBRANCH  22  25
ENDBRANCH  20  21
ENDBRANCH   4  20
TORSDOF 7
ENDMDL
MODEL 5
REMARK VINA RESULT:    -7.266      4.852      7.459
REMARK INTER + INTRA:         -11.228
REMARK INTER:                 -10.092
REMARK INTRA:                  -1.136
REMARK UNBOUND:                -0.988
REMARK  Name = 
REMARK  8 active torsions:
REMARK  status: ('A' for Active; 'I' for Inactive)
REMARK    1  A    between atoms: C_1  and  O_2
REMARK    2  A    between atoms: O_2  and  C_3
REMARK    3  A    between atoms: C_7  and  C_8
REMARK    4  A    between atoms: N_10  and  C_11
REMARK    5  A    between atoms: C_11  and  C_12
REMARK    6  A    between atoms: C_15  and  C_16
REMARK    7  A    between atoms: C_16  and  N_17
REMARK    8  A    between atoms: C_18  and  C_20
REMARK                            x       y       z     vdW  Elec       q    Type
REMARK                         _______ _______ _______ _____ _____    ______ ____
ROOT
ATOM      1  C   UNL     1      44.911   8.982  11.806  0.00  0.00    +0.000 A 
ATOM      2  C   UNL     1      45.960   8.826  12.722  0.00  0.00    +0.000 A 
ATOM      3  C   UNL     1      46.317   7.555  13.190  0.00  0.00    +0.000 A 
ATOM      4  C   UNL     1      45.643   6.412  12.737  0.00  0.00    +0.000 A 
ATOM      5  C   UNL     1      44.598   6.571  11.818  0.00  0.00    +0.000 A 
ATOM      6  C   UNL     1      44.243   7.839  11.346  0.00  0.00    +0.000 A 
ENDROOT
BRANCH   1   7
ATOM      7  C   UNL     1      44.514  10.349  11.306  0.00  0.00    +0.000 C 
BRANCH   7  10
ATOM      8  C   UNL     1      42.120  10.779  10.996  0.00  0.00    +0.000 C 
ATOM      9  O   UNL     1      42.171  10.555   9.790  0.00  0.00    +0.000 OA
ATOM     10  N   UNL     1      43.227  10.749  11.821  0.00  0.00    +0.000 N 
ATOM     11  H   UNL     1      43.101  10.756  12.824  0.00  0.00    +0.000 HD
BRANCH   8  16
ATOM     12  C   UNL     1      38.450  10.512  11.857  0.00  0.00    +0.000 A 
ATOM     13  C   UNL     1      38.355  11.378  12.946  0.00  0.00    +0.000 A 
ATOM     14  C   UNL     1      39.479  12.086  13.385  0.00  0.00    +0.000 A 
ATOM     15  C   UNL     1      40.708  11.918  12.747  0.00  0.00    +0.000 A 
ATOM     16  C   UNL     1      40.818  11.038  11.666  0.00  0.00    +0.000 A 
ATOM     17  C   UNL     1      39.678  10.363  11.205  0.00  0.00    +0.000 A 
BRANCH  12  19
ATOM     18  C   UNL     1      37.232   9.800   9.939  0.00  0.00    +0.000 C 
ATOM     19  O   UNL     1      37.435   9.751  11.346  0.00  0.00    +0.000 OA
ENDBRANCH  12  19
ENDBRANCH   8  16
ENDBRANCH   7  10
ENDBRANCH   1   7
BRANCH   4  20
ATOM     20  C   UNL     1      45.997   5.038  13.251  0.00  0.00    +0.000 C 
BRANCH  20  21
ATOM     21  N   UNL     1      46.612   5.104  14.552  0.00  0.00    +0.000 N 
ATOM     22  C   UNL     1      47.278   4.025  15.081  0.00  0.00    +0.000 C 
ATOM     23  O   UNL     1      47.420   2.978  14.456  0.00  0.00    +0.000 OA
ATOM     24  H   UNL     1      46.303   5.847  15.170  0.00  0.00    +0.000 HD
BRANCH  22  25
ATOM     25  C   UNL     1      47.868   4.207  16.414  0.00  0.00    +0.000 A 
ATOM     26  C   UNL     1      47.530   3.338  17.443  0.00  0.00    +0.000 A 
ATOM     27  S   UNL     1      48.338   3.666  18.909  0.00  0.00    +0.000 S 
ATOM     28  C   UNL     1      49.131   5.012  18.235  0.00  0.00    +0.000 A 
ATOM     29  N   UNL     1      49.971   5.776  18.982  0.00  0.00    +0.000 NA
ATOM     30  C   UNL     1      50.480   6.783  18.352  0.00  0.00    +0.000 A 
ATOM     31  N   UNL     1      50.229   7.089  17.040  0.00  0.00    +0.000 N 
ATOM     32  C   UNL     1      49.410   6.330  16.239  0.00  0.00    +0.000 A 
ATOM     33  O   UNL     1      49.240   6.609  15.057  0.00  0.00    +0.000 OA
ATOM     34  C   UNL     1      48.800   5.196  16.904  0.00  0.00    +0.000 A 
ATOM     35  H   UNL     1      50.671   7.883  16.601  0.00  0.00    +0.000 HD
ENDBRANCH  22  25
ENDBRANCH  20  21
ENDBRANCH   4  20
TORSDOF 7
ENDMDL
MODEL 6
REMARK VINA RESULT:    -7.109      2.130      2.735
REMARK INTER + INTRA:         -11.007
REMARK INTER:                  -9.822
REMARK INTRA:                  -1.185
REMARK UNBOUND:                -0.988
REMARK  Name = 
REMARK  8 active torsions:
REMARK  status: ('A' for Active; 'I' for Inactive)
REMARK    1  A    between atoms: C_1  and  O_2
REMARK    2  A    between atoms: O_2  and  C_3
REMARK    3  A    between atoms: C_7  and  C_8
REMARK    4  A    between atoms: N_10  and  C_11
REMARK    5  A    between atoms: C_11  and  C_12
REMARK    6  A    between atoms: C_15  and  C_16
REMARK    7  A    between atoms: C_16  and  N_17
REMARK    8  A    between atoms: C_18  and  C_20
REMARK                            x       y       z     vdW  Elec       q    Type
REMARK                         _______ _______ _______ _____ _____    ______ ____
ROOT
ATOM      1  C   UNL     1      45.607   7.428  11.703  0.00  0.00    +0.000 A 
ATOM      2  C   UNL     1      45.355   8.636  12.367  0.00  0.00    +0.000 A 
ATOM      3  C   UNL     1      46.221   9.096  13.369  0.00  0.00    +0.000 A 
ATOM      4  C   UNL     1      47.366   8.364  13.714  0.00  0.00    +0.000 A 
ATOM      5  C   UNL     1      47.617   7.159  13.045  0.00  0.00    +0.000 A 
ATOM      6  C   UNL     1      46.756   6.701  12.042  0.00  0.00    +0.000 A 
ENDROOT
BRANCH   1   7
ATOM      7  C   UNL     1      44.674   6.922  10.632  0.00  0.00    +0.000 C 
BRANCH   7  10
ATOM      8  C   UNL     1      44.512   4.582   9.915  0.00  0.00    +0.000 C 
ATOM      9  O   UNL     1      43.448   4.410  10.502  0.00  0.00    +0.000 OA
ATOM     10  N   UNL     1      45.218   5.769   9.956  0.00  0.00    +0.000 N 
ATOM     11  H   UNL     1      45.984   5.916   9.313  0.00  0.00    +0.000 HD
BRANCH   8  16
ATOM     12  C   UNL     1      46.339   2.926   7.053  0.00  0.00    +0.000 A 
ATOM     13  C   UNL     1      46.288   1.583   7.428  0.00  0.00    +0.000 A 
ATOM     14  C   UNL     1      45.624   1.202   8.599  0.00  0.00    +0.000 A 
ATOM     15  C   UNL     1      45.022   2.165   9.410  0.00  0.00    +0.000 A 
ATOM     16  C   UNL     1      45.084   3.516   9.051  0.00  0.00    +0.000 A 
ATOM     17  C   UNL     1      45.715   3.886   7.855  0.00  0.00    +0.000 A 
BRANCH  12  19
ATOM     18  C   UNL     1      47.395   2.490   4.964  0.00  0.00    +0.000 C 
ATOM     19  O   UNL     1      46.972   3.426   5.948  0.00  0.00    +0.000 OA
ENDBRANCH  12  19
ENDBRANCH   8  16
ENDBRANCH   7  10
ENDBRANCH   1   7
BRANCH   4  20
ATOM     20  C   UNL     1      48.294   8.830  14.807  0.00  0.00    +0.000 C 
BRANCH  20  21
ATOM     21  N   UNL     1      48.436   7.834  15.839  0.00  0.00    +0.000 N 
ATOM     22  C   UNL     1      49.563   7.053  15.925  0.00  0.00    +0.000 C 
ATOM     23  O   UNL     1      50.515   7.198  15.163  0.00  0.00    +0.000 OA
ATOM     24  H   UNL     1      47.588   7.534  16.308  0.00  0.00    +0.000 HD
BRANCH  22  25
ATOM     25  C   UNL     1      49.600   6.072  17.018  0.00  0.00    +0.000 A 
ATOM     26  C   UNL     1      50.543   6.200  18.029  0.00  0.00    +0.000 A 
ATOM     27  S   UNL     1      50.416   5.003  19.238  0.00  0.00    +0.000 S 
ATOM     28  C   UNL     1      49.129   4.242  18.427  0.00  0.00    +0.000 A 
ATOM     29  N   UNL     1      48.560   3.112  18.924  0.00  0.00    +0.000 NA
ATOM     30  C   UNL     1      47.614   2.624  18.191  0.00  0.00    +0.000 A 
ATOM     31  N   UNL     1      47.183   3.169  17.010  0.00  0.00    +0.000 N 
ATOM     32  C   UNL     1      47.709   4.324  16.484  0.00  0.00    +0.000 A 
ATOM     33  O   UNL     1      47.271   4.808  15.445  0.00  0.00    +0.000 OA
ATOM     34  C   UNL     1      48.786   4.904  17.262  0.00  0.00    +0.000 A 
ATOM     35  H   UNL     1      46.428   2.746  16.491  0.00  0.00    +0.000 HD
ENDBRANCH  22  25
ENDBRANCH  20  21
ENDBRANCH   4  20
TORSDOF 7
ENDMDL
MODEL 7
REMARK VINA RESULT:    -7.003      4.890      7.568
REMARK INTER + INTRA:         -10.857
REMARK INTER:                 -10.031
REMARK INTRA:                  -0.826
REMARK UNBOUND:                -0.988
REMARK  Name = 
REMARK  8 active torsions:
REMARK  status: ('A' for Active; 'I' for Inactive)
REMARK    1  A    between atoms: C_1  and  O_2
REMARK    2  A    between atoms: O_2  and  C_3
REMARK    3  A    between atoms: C_7  and  C_8
REMARK    4  A    between atoms: N_10  and  C_11
REMARK    5  A    between atoms: C_11  and  C_12
REMARK    6  A    between atoms: C_15  and  C_16
REMARK    7  A    between atoms: C_16  and  N_17
REMARK    8  A    between atoms: C_18  and  C_20
REMARK                            x       y       z     vdW  Elec       q    Type
REMARK                         _______ _______ _______ _____ _____    ______ ____
ROOT
ATOM      1  C   UNL     1      45.067   7.907  11.818  0.00  0.00    +0.000 A 
ATOM      2  C   UNL     1      44.295   6.739  11.770  0.00  0.00    +0.000 A 
ATOM      3  C   UNL     1      44.683   5.595  12.482  0.00  0.00    +0.000 A 
ATOM      4  C   UNL     1      45.841   5.605  13.271  0.00  0.00    +0.000 A 
ATOM      5  C   UNL     1      46.608   6.776  13.320  0.00  0.00    +0.000 A 
ATOM      6  C   UNL     1      46.220   7.919  12.613  0.00  0.00    +0.000 A 
ENDROOT
BRANCH   1   7
ATOM      7  C   UNL     1      44.662   9.137  11.045  0.00  0.00    +0.000 C 
BRANCH   7  10
ATOM      8  C   UNL     1      42.574  10.385  10.735  0.00  0.00    +0.000 C 
ATOM      9  O   UNL     1      42.800  10.594   9.548  0.00  0.00    +0.000 OA
ATOM     10  N   UNL     1      43.449   9.717  11.569  0.00  0.00    +0.000 N 
ATOM     11  H   UNL     1      43.135   9.412  12.481  0.00  0.00    +0.000 HD
BRANCH   8  16
ATOM     12  C   UNL     1      38.862  10.534  11.427  0.00  0.00    +0.000 A 
ATOM     13  C   UNL     1      38.815  11.412  12.510  0.00  0.00    +0.000 A 
ATOM     14  C   UNL     1      39.989  11.993  12.999  0.00  0.00    +0.000 A 
ATOM     15  C   UNL     1      41.220  11.685  12.418  0.00  0.00    +0.000 A 
ATOM     16  C   UNL     1      41.279  10.791  11.344  0.00  0.00    +0.000 A 
ATOM     17  C   UNL     1      40.094  10.244  10.832  0.00  0.00    +0.000 A 
BRANCH  12  19
ATOM     18  C   UNL     1      37.038   9.032  11.723  0.00  0.00    +0.000 C 
ATOM     19  O   UNL     1      37.793   9.887  10.871  0.00  0.00    +0.000 OA
ENDBRANCH  12  19
ENDBRANCH   8  16
ENDBRANCH   7  10
ENDBRANCH   1   7
BRANCH   4  20
ATOM     20  C   UNL     1      46.287   4.376  14.023  0.00  0.00    +0.000 C 
BRANCH  20  21
ATOM     21  N   UNL     1      47.393   4.667  14.901  0.00  0.00    +0.000 N 
ATOM     22  C   UNL     1      47.420   4.199  16.192  0.00  0.00    +0.000 C 
ATOM     23  O   UNL     1      46.533   3.477  16.641  0.00  0.00    +0.000 OA
ATOM     24  H   UNL     1      47.993   5.442  14.642  0.00  0.00    +0.000 HD
BRANCH  22  25
ATOM     25  C   UNL     1      48.596   4.555  16.996  0.00  0.00    +0.000 A 
ATOM     26  C   UNL     1      48.694   5.824  17.553  0.00  0.00    +0.000 A 
ATOM     27  S   UNL     1      50.101   6.053  18.489  0.00  0.00    +0.000 S 
ATOM     28  C   UNL     1      50.655   4.483  18.142  0.00  0.00    +0.000 A 
ATOM     29  N   UNL     1      51.845   4.039  18.625  0.00  0.00    +0.000 NA
ATOM     30  C   UNL     1      52.156   2.840  18.259  0.00  0.00    +0.000 A 
ATOM     31  N   UNL     1      51.379   2.043  17.459  0.00  0.00    +0.000 N 
ATOM     32  C   UNL     1      50.157   2.439  16.971  0.00  0.00    +0.000 A 
ATOM     33  O   UNL     1      49.468   1.685  16.292  0.00  0.00    +0.000 OA
ATOM     34  C   UNL     1      49.769   3.786  17.341  0.00  0.00    +0.000 A 
ATOM     35  H   UNL     1      51.673   1.108  17.221  0.00  0.00    +0.000 HD
ENDBRANCH  22  25
ENDBRANCH  20  21
ENDBRANCH   4  20
TORSDOF 7
ENDMDL
MODEL 8
REMARK VINA RESULT:    -7.003      5.656     10.055
REMARK INTER + INTRA:         -10.857
REMARK INTER:                  -9.603
REMARK INTRA:                  -1.254
REMARK UNBOUND:                -0.988
REMARK  Name = 
REMARK  8 active torsions:
REMARK  status: ('A' for Active; 'I' for Inactive)
REMARK    1  A    between atoms: C_1  and  O_2
REMARK    2  A    between atoms: O_2  and  C_3
REMARK    3  A    between atoms: C_7  and  C_8
REMARK    4  A    between atoms: N_10  and  C_11
REMARK    5  A    between atoms: C_11  and  C_12
REMARK    6  A    between atoms: C_15  and  C_16
REMARK    7  A    between atoms: C_16  and  N_17
REMARK    8  A    between atoms: C_18  and  C_20
REMARK                            x       y       z     vdW  Elec       q    Type
REMARK                         _______ _______ _______ _____ _____    ______ ____
ROOT
ATOM      1  C   UNL     1      51.607   3.085  17.758  0.00  0.00    +0.000 A 
ATOM      2  C   UNL     1      50.860   2.026  17.227  0.00  0.00    +0.000 A 
ATOM      3  C   UNL     1      49.488   2.171  16.982  0.00  0.00    +0.000 A 
ATOM      4  C   UNL     1      48.839   3.385  17.246  0.00  0.00    +0.000 A 
ATOM      5  C   UNL     1      49.590   4.444  17.773  0.00  0.00    +0.000 A 
ATOM      6  C   UNL     1      50.961   4.302  18.014  0.00  0.00    +0.000 A 
ENDROOT
BRANCH   1   7
ATOM      7  C   UNL     1      53.082   2.933  18.035  0.00  0.00    +0.000 C 
BRANCH   7  10
ATOM      8  C   UNL     1      54.190   0.773  18.379  0.00  0.00    +0.000 C 
ATOM      9  O   UNL     1      54.397   0.997  19.568  0.00  0.00    +0.000 OA
ATOM     10  N   UNL     1      53.590   1.681  17.529  0.00  0.00    +0.000 N 
ATOM     11  H   UNL     1      53.277   1.379  16.616  0.00  0.00    +0.000 HD
BRANCH   8  16
ATOM     12  C   UNL     1      54.641  -2.964  18.057  0.00  0.00    +0.000 A 
ATOM     13  C   UNL     1      55.010  -3.087  16.717  0.00  0.00    +0.000 A 
ATOM     14  C   UNL     1      55.151  -1.948  15.917  0.00  0.00    +0.000 A 
ATOM     15  C   UNL     1      54.908  -0.681  16.449  0.00  0.00    +0.000 A 
ATOM     16  C   UNL     1      54.520  -0.550  17.787  0.00  0.00    +0.000 A 
ATOM     17  C   UNL     1      54.420  -1.692  18.594  0.00  0.00    +0.000 A 
BRANCH  12  19
ATOM     18  C   UNL     1      53.173  -4.094  19.552  0.00  0.00    +0.000 C 
ATOM     19  O   UNL     1      54.450  -3.997  18.933  0.00  0.00    +0.000 OA
ENDBRANCH  12  19
ENDBRANCH   8  16
ENDBRANCH   7  10
ENDBRANCH   1   7
BRANCH   4  20
ATOM     20  C   UNL     1      47.358   3.550  17.013  0.00  0.00    +0.000 C 
BRANCH  20  21
ATOM     21  N   UNL     1      47.090   4.563  16.023  0.00  0.00    +0.000 N 
ATOM     22  C   UNL     1      47.087   4.266  14.682  0.00  0.00    +0.000 C 
ATOM     23  O   UNL     1      47.265   3.124  14.268  0.00  0.00    +0.000 OA
ATOM     24  H   UNL     1      47.187   5.529  16.317  0.00  0.00    +0.000 HD
BRANCH  22  25
ATOM     25  C   UNL     1      46.799   5.377  13.765  0.00  0.00    +0.000 A 
ATOM     26  C   UNL     1      45.656   5.344  12.978  0.00  0.00    +0.000 A 
ATOM     27  S   UNL     1      45.454   6.731  12.006  0.00  0.00    +0.000 S 
ATOM     28  C   UNL     1      46.914   7.402  12.564  0.00  0.00    +0.000 A 
ATOM     29  N   UNL     1      47.357   8.599  12.096  0.00  0.00    +0.000 NA
ATOM     30  C   UNL     1      48.493   8.975  12.582  0.00  0.00    +0.000 A 
ATOM     31  N   UNL     1      49.222   8.263  13.501  0.00  0.00    +0.000 N 
ATOM     32  C   UNL     1      48.800   7.064  14.022  0.00  0.00    +0.000 A 
ATOM     33  O   UNL     1      49.457   6.474  14.873  0.00  0.00    +0.000 OA
ATOM     34  C   UNL     1      47.536   6.590  13.495  0.00  0.00    +0.000 A 
ATOM     35  H   UNL     1      50.098   8.620  13.853  0.00  0.00    +0.000 HD
ENDBRANCH  22  25
ENDBRANCH  20  21
ENDBRANCH   4  20
TORSDOF 7
ENDMDL
MODEL 9
REMARK VINA RESULT:    -6.868      5.958      9.036
REMARK INTER + INTRA:         -10.667
REMARK INTER:                  -9.601
REMARK INTRA:                  -1.066
REMARK UNBOUND:                -0.988
REMARK  Name = 
REMARK  8 active torsions:
REMARK  status: ('A' for Active; 'I' for Inactive)
REMARK    1  A    between atoms: C_1  and  O_2
REMARK    2  A    between atoms: O_2  and  C_3
REMARK    3  A    between atoms: C_7  and  C_8
REMARK    4  A    between atoms: N_10  and  C_11
REMARK    5  A    between atoms: C_11  and  C_12
REMARK    6  A    between atoms: C_15  and  C_16
REMARK    7  A    between atoms: C_16  and  N_17
REMARK    8  A    between atoms: C_18  and  C_20
REMARK                            x       y       z     vdW  Elec       q    Type
REMARK                         _______ _______ _______ _____ _____    ______ ____
ROOT
ATOM      1  C   UNL     1      49.186   7.078  13.962  0.00  0.00    +0.000 A 
ATOM      2  C   UNL     1      50.258   7.676  14.637  0.00  0.00    +0.000 A 
ATOM      3  C   UNL     1      51.268   8.340  13.928  0.00  0.00    +0.000 A 
ATOM      4  C   UNL     1      51.215   8.435  12.531  0.00  0.00    +0.000 A 
ATOM      5  C   UNL     1      50.140   7.840  11.860  0.00  0.00    +0.000 A 
ATOM      6  C   UNL     1      49.128   7.180  12.566  0.00  0.00    +0.000 A 
ENDROOT
BRANCH   1   7
ATOM      7  C   UNL     1      48.101   6.351  14.717  0.00  0.00    +0.000 C 
BRANCH   7  10
ATOM      8  C   UNL     1      46.566   4.811  13.585  0.00  0.00    +0.000 C 
ATOM      9  O   UNL     1      47.205   3.821  13.927  0.00  0.00    +0.000 OA
ATOM     10  N   UNL     1      46.949   6.104  13.884  0.00  0.00    +0.000 N 
ATOM     11  H   UNL     1      46.298   6.863  13.741  0.00  0.00    +0.000 HD
BRANCH   8  16
ATOM     12  C   UNL     1      43.920   3.428  11.269  0.00  0.00    +0.000 A 
ATOM     13  C   UNL     1      42.836   4.258  11.555  0.00  0.00    +0.000 A 
ATOM     14  C   UNL     1      42.970   5.301  12.478  0.00  0.00    +0.000 A 
ATOM     15  C   UNL     1      44.185   5.508  13.133  0.00  0.00    +0.000 A 
ATOM     16  C   UNL     1      45.272   4.668  12.866  0.00  0.00    +0.000 A 
ATOM     17  C   UNL     1      45.143   3.651  11.909  0.00  0.00    +0.000 A 
BRANCH  12  19
ATOM     18  C   UNL     1      44.671   2.496   9.211  0.00  0.00    +0.000 C 
ATOM     19  O   UNL     1      43.911   2.367  10.407  0.00  0.00    +0.000 OA
ENDBRANCH  12  19
ENDBRANCH   8  16
ENDBRANCH   7  10
ENDBRANCH   1   7
BRANCH   4  20
ATOM     20  C   UNL     1      52.307   9.124  11.750  0.00  0.00    +0.000 C 
BRANCH  20  21
ATOM     21  N   UNL     1      52.446   8.562  10.430  0.00  0.00    +0.000 N 
ATOM     22  C   UNL     1      53.496   8.910   9.614  0.00  0.00    +0.000 C 
ATOM     23  O   UNL     1      54.384   9.672   9.986  0.00  0.00    +0.000 OA
ATOM     24  H   UNL     1      51.619   8.140  10.021  0.00  0.00    +0.000 HD
BRANCH  22  25
ATOM     25  C   UNL     1      53.537   8.274   8.291  0.00  0.00    +0.000 A 
ATOM     26  C   UNL     1      53.465   9.057   7.146  0.00  0.00    +0.000 A 
ATOM     27  S   UNL     1      53.572   8.162   5.698  0.00  0.00    +0.000 S 
ATOM     28  C   UNL     1      53.666   6.692   6.548  0.00  0.00    +0.000 A 
ATOM     29  N   UNL     1      53.749   5.506   5.888  0.00  0.00    +0.000 NA
ATOM     30  C   UNL     1      53.784   4.469   6.657  0.00  0.00    +0.000 A 
ATOM     31  N   UNL     1      53.752   4.512   8.027  0.00  0.00    +0.000 N 
ATOM     32  C   UNL     1      53.697   5.687   8.736  0.00  0.00    +0.000 A 
ATOM     33  O   UNL     1      53.712   5.691   9.963  0.00  0.00    +0.000 OA
ATOM     34  C   UNL     1      53.640   6.882   7.918  0.00  0.00    +0.000 A 
ATOM     35  H   UNL     1      53.797   3.663   8.571  0.00  0.00    +0.000 HD
ENDBRANCH  22  25
ENDBRANCH  20  21
ENDBRANCH   4  20
TORSDOF 7
ENDMDL
