MODEL 1
REMARK VINA RESULT:    -8.302      0.000      0.000
REMARK INTER + INTRA:         -12.235
REMARK INTER:                 -11.214
REMARK INTRA:                  -1.021
REMARK UNBOUND:                -1.021
REMARK  Name = 
REMARK  6 active torsions:
REMARK  status: ('A' for Active; 'I' for Inactive)
REMARK    1  A    between atoms: C_2  and  C_4
REMARK    2  A    between atoms: C_7  and  C_8
REMARK    3  A    between atoms: C_8  and  C_9
REMARK    4  A    between atoms: C_9  and  S_10
REMARK    5  A    between atoms: S_10  and  C_11
REMARK    6  A    between atoms: C_15  and  C_16
REMARK                            x       y       z     vdW  Elec       q    Type
REMARK                         _______ _______ _______ _____ _____    ______ ____
ROOT
ATOM      1  C   UNL     1      43.365   3.411  11.424  0.00  0.00    +0.000 C 
ENDROOT
BRANCH   1   2
ATOM      2  C   UNL     1      43.746   4.298  10.236  0.00  0.00    +0.000 C 
BRANCH   2   6
ATOM      3  C   UNL     1      46.556   2.398   7.558  0.00  0.00    +0.000 A 
ATOM      4  C   UNL     1      45.844   1.631   8.486  0.00  0.00    +0.000 A 
ATOM      5  C   UNL     1      44.942   2.249   9.357  0.00  0.00    +0.000 A 
ATOM      6  C   UNL     1      44.739   3.634   9.312  0.00  0.00    +0.000 A 
ATOM      7  C   UNL     1      45.480   4.399   8.398  0.00  0.00    +0.000 A 
ATOM      8  C   UNL     1      46.386   3.785   7.530  0.00  0.00    +0.000 A 
BRANCH   3  10
ATOM      9  N   UNL     1      48.675   2.463   6.355  0.00  0.00    +0.000 N 
ATOM     10  C   UNL     1      47.514   1.784   6.601  0.00  0.00    +0.000 C 
ATOM     11  O   UNL     1      47.302   0.694   6.084  0.00  0.00    +0.000 OA
ATOM     12  H   UNL     1      49.367   1.974   5.798  0.00  0.00    +0.000 HD
ATOM     13  H   UNL     1      49.000   3.208   6.953  0.00  0.00    +0.000 HD
ENDBRANCH   3  10
ENDBRANCH   2   6
ENDBRANCH   1   2
BRANCH   1  14
ATOM     14  S   UNL     1      43.276   4.439  12.933  0.00  0.00    +0.000 S 
BRANCH  14  15
ATOM     15  C   UNL     1      44.827   5.330  12.920  0.00  0.00    +0.000 A 
ATOM     16  C   UNL     1      45.980   4.605  13.234  0.00  0.00    +0.000 A 
ATOM     17  C   UNL     1      47.218   5.238  13.298  0.00  0.00    +0.000 A 
ATOM     18  C   UNL     1      47.315   6.606  13.041  0.00  0.00    +0.000 A 
ATOM     19  C   UNL     1      46.186   7.368  12.694  0.00  0.00    +0.000 A 
ATOM     20  C   UNL     1      44.942   6.703  12.661  0.00  0.00    +0.000 A 
BRANCH  19  21
ATOM     21  C   UNL     1      46.308   8.804  12.331  0.00  0.00    +0.000 A 
ATOM     22  C   UNL     1      47.570   9.394  12.134  0.00  0.00    +0.000 A 
ATOM     23  C   UNL     1      47.705  10.729  11.743  0.00  0.00    +0.000 A 
ATOM     24  C   UNL     1      46.574  11.508  11.528  0.00  0.00    +0.000 A 
ATOM     25  C   UNL     1      45.312  10.956  11.722  0.00  0.00    +0.000 A 
ATOM     26  C   UNL     1      45.181   9.622  12.129  0.00  0.00    +0.000 A 
ENDBRANCH  19  21
ENDBRANCH  14  15
ENDBRANCH   1  14
TORSDOF 6
ENDMDL
MODEL 2
REMARK VINA RESULT:    -8.256      0.635      1.576
REMARK INTER + INTRA:         -12.172
REMARK INTER:                 -11.168
REMARK INTRA:                  -1.004
REMARK UNBOUND:                -1.021
REMARK  Name = 
REMARK  6 active torsions:
REMARK  status: ('A' for Active; 'I' for Inactive)
REMARK    1  A    between atoms: C_2  and  C_4
REMARK    2  A    between atoms: C_7  and  C_8
REMARK    3  A    between atoms: C_8  and  C_9
REMARK    4  A    between atoms: C_9  and  S_10
REMARK    5  A    between atoms: S_10  and  C_11
REMARK    6  A    between atoms: C_15  and  C_16
REMARK                            x       y       z     vdW  Elec       q    Type
REMARK                         _______ _______ _______ _____ _____    ______ ____
ROOT
ATOM      1  C   UNL     1      43.210   3.816  11.375  0.00  0.00    +0.000 C 
ENDROOT
BRANCH   1   2
ATOM      2  C   UNL     1      43.711   4.655  10.197  0.00  0.00    +0.000 C 
BRANCH   2   6
ATOM      3  C   UNL     1      46.509   2.488   7.717  0.00  0.00    +0.000 A 
ATOM      4  C   UNL     1      46.435   3.883   7.636  0.00  0.00    +0.000 A 
ATOM      5  C   UNL     1      45.523   4.581   8.433  0.00  0.00    +0.000 A 
ATOM      6  C   UNL     1      44.678   3.900   9.318  0.00  0.00    +0.000 A 
ATOM      7  C   UNL     1      44.739   2.498   9.370  0.00  0.00    +0.000 A 
ATOM      8  C   UNL     1      45.645   1.798   8.571  0.00  0.00    +0.000 A 
BRANCH   3  10
ATOM      9  N   UNL     1      48.561   2.370   6.405  0.00  0.00    +0.000 N 
ATOM     10  C   UNL     1      47.474   1.704   6.900  0.00  0.00    +0.000 C 
ATOM     11  O   UNL     1      47.333   0.503   6.711  0.00  0.00    +0.000 OA
ATOM     12  H   UNL     1      49.267   1.797   5.957  0.00  0.00    +0.000 HD
ATOM     13  H   UNL     1      48.847   3.271   6.758  0.00  0.00    +0.000 HD
ENDBRANCH   3  10
ENDBRANCH   2   6
ENDBRANCH   1   2
BRANCH   1  14
ATOM     14  S   UNL     1      43.219   4.843  12.888  0.00  0.00    +0.000 S 
BRANCH  14  15
ATOM     15  C   UNL     1      44.919   5.388  13.009  0.00  0.00    +0.000 A 
ATOM     16  C   UNL     1      45.833   4.499  13.582  0.00  0.00    +0.000 A 
ATOM     17  C   UNL     1      47.163   4.869  13.762  0.00  0.00    +0.000 A 
ATOM     18  C   UNL     1      47.594   6.134  13.360  0.00  0.00    +0.000 A 
ATOM     19  C   UNL     1      46.716   7.048  12.753  0.00  0.00    +0.000 A 
ATOM     20  C   UNL     1      45.369   6.653  12.607  0.00  0.00    +0.000 A 
BRANCH  19  21
ATOM     21  C   UNL     1      47.199   8.357  12.243  0.00  0.00    +0.000 A 
ATOM     22  C   UNL     1      46.336   9.467  12.170  0.00  0.00    +0.000 A 
ATOM     23  C   UNL     1      46.784  10.720  11.742  0.00  0.00    +0.000 A 
ATOM     24  C   UNL     1      48.115  10.897  11.383  0.00  0.00    +0.000 A 
ATOM     25  C   UNL     1      48.991   9.818  11.436  0.00  0.00    +0.000 A 
ATOM     26  C   UNL     1      48.535   8.560  11.852  0.00  0.00    +0.000 A 
ENDBRANCH  19  21
ENDBRANCH  14  15
ENDBRANCH   1  14
TORSDOF 6
ENDMDL
MODEL 3
REMARK VINA RESULT:    -7.888      2.167      4.381
REMARK INTER + INTRA:         -11.676
REMARK INTER:                 -10.692
REMARK INTRA:                  -0.983
REMARK UNBOUND:                -1.021
REMARK  Name = 
REMARK  6 active torsions:
REMARK  status: ('A' for Active; 'I' for Inactive)
REMARK    1  A    between atoms: C_2  and  C_4
REMARK    2  A    between atoms: C_7  and  C_8
REMARK    3  A    between atoms: C_8  and  C_9
REMARK    4  A    between atoms: C_9  and  S_10
REMARK    5  A    between atoms: S_10  and  C_11
REMARK    6  A    between atoms: C_15  and  C_16
REMARK                            x       y       z     vdW  Elec       q    Type
REMARK                         _______ _______ _______ _____ _____    ______ ____
ROOT
ATOM      1  C   UNL     1      43.316   4.658  10.768  0.00  0.00    +0.000 C 
ENDROOT
BRANCH   1   2
ATOM      2  C   UNL     1      43.881   3.241  10.640  0.00  0.00    +0.000 C 
BRANCH   2   6
ATOM      3  C   UNL     1      46.517   2.796   7.244  0.00  0.00    +0.000 A 
ATOM      4  C   UNL     1      46.010   4.056   7.577  0.00  0.00    +0.000 A 
ATOM      5  C   UNL     1      45.150   4.197   8.670  0.00  0.00    +0.000 A 
ATOM      6  C   UNL     1      44.789   3.086   9.443  0.00  0.00    +0.000 A 
ATOM      7  C   UNL     1      45.279   1.820   9.083  0.00  0.00    +0.000 A 
ATOM      8  C   UNL     1      46.134   1.677   7.988  0.00  0.00    +0.000 A 
BRANCH   3  10
ATOM      9  N   UNL     1      48.777   2.472   6.389  0.00  0.00    +0.000 N 
ATOM     10  C   UNL     1      47.446   2.600   6.100  0.00  0.00    +0.000 C 
ATOM     11  O   UNL     1      47.042   2.511   4.947  0.00  0.00    +0.000 OA
ATOM     12  H   UNL     1      49.378   2.219   5.613  0.00  0.00    +0.000 HD
ATOM     13  H   UNL     1      49.108   2.271   7.320  0.00  0.00    +0.000 HD
ENDBRANCH   3  10
ENDBRANCH   2   6
ENDBRANCH   1   2
BRANCH   1  14
ATOM     14  S   UNL     1      43.297   5.136  12.532  0.00  0.00    +0.000 S 
BRANCH  14  15
ATOM     15  C   UNL     1      45.023   5.420  12.904  0.00  0.00    +0.000 A 
ATOM     16  C   UNL     1      45.758   6.172  11.982  0.00  0.00    +0.000 A 
ATOM     17  C   UNL     1      47.119   6.390  12.171  0.00  0.00    +0.000 A 
ATOM     18  C   UNL     1      47.760   5.863  13.294  0.00  0.00    +0.000 A 
ATOM     19  C   UNL     1      47.054   5.126  14.261  0.00  0.00    +0.000 A 
ATOM     20  C   UNL     1      45.681   4.901  14.027  0.00  0.00    +0.000 A 
BRANCH  19  21
ATOM     21  C   UNL     1      47.720   4.646  15.499  0.00  0.00    +0.000 A 
ATOM     22  C   UNL     1      47.664   3.289  15.869  0.00  0.00    +0.000 A 
ATOM     23  C   UNL     1      48.326   2.808  17.002  0.00  0.00    +0.000 A 
ATOM     24  C   UNL     1      49.071   3.675  17.792  0.00  0.00    +0.000 A 
ATOM     25  C   UNL     1      49.138   5.024  17.458  0.00  0.00    +0.000 A 
ATOM     26  C   UNL     1      48.462   5.505  16.330  0.00  0.00    +0.000 A 
ENDBRANCH  19  21
ENDBRANCH  14  15
ENDBRANCH   1  14
TORSDOF 6
ENDMDL
MODEL 4
REMARK VINA RESULT:    -7.430      4.266      8.021
REMARK INTER + INTRA:         -11.057
REMARK INTER:                 -10.201
REMARK INTRA:                  -0.856
REMARK UNBOUND:                -1.021
REMARK  Name = 
REMARK  6 active torsions:
REMARK  status: ('A' for Active; 'I' for Inactive)
REMARK    1  A    between atoms: C_2  and  C_4
REMARK    2  A    between atoms: C_7  and  C_8
REMARK    3  A    between atoms: C_8  and  C_9
REMARK    4  A    between atoms: C_9  and  S_10
REMARK    5  A    between atoms: S_10  and  C_11
REMARK    6  A    between atoms: C_15  and  C_16
REMARK                            x       y       z     vdW  Elec       q    Type
REMARK                         _______ _______ _______ _____ _____    ______ ____
ROOT
ATOM      1  C   UNL     1      45.446   6.791  12.868  0.00  0.00    +0.000 C 
ENDROOT
BRANCH   1   2
ATOM      2  C   UNL     1      46.833   6.153  12.758  0.00  0.00    +0.000 C 
BRANCH   2   6
ATOM      3  C   UNL     1      48.235   4.670  16.567  0.00  0.00    +0.000 A 
ATOM      4  C   UNL     1      48.652   5.923  16.107  0.00  0.00    +0.000 A 
ATOM      5  C   UNL     1      48.204   6.397  14.870  0.00  0.00    +0.000 A 
ATOM      6  C   UNL     1      47.337   5.631  14.081  0.00  0.00    +0.000 A 
ATOM      7  C   UNL     1      46.948   4.361  14.538  0.00  0.00    +0.000 A 
ATOM      8  C   UNL     1      47.399   3.883  15.771  0.00  0.00    +0.000 A 
BRANCH   3  10
ATOM      9  N   UNL     1      47.769   3.381  18.583  0.00  0.00    +0.000 N 
ATOM     10  C   UNL     1      48.673   4.130  17.882  0.00  0.00    +0.000 C 
ATOM     11  O   UNL     1      49.808   4.306  18.307  0.00  0.00    +0.000 OA
ATOM     12  H   UNL     1      48.122   2.922  19.415  0.00  0.00    +0.000 HD
ATOM     13  H   UNL     1      46.941   2.996  18.154  0.00  0.00    +0.000 HD
ENDBRANCH   3  10
ENDBRANCH   2   6
ENDBRANCH   1   2
BRANCH   1  14
ATOM     14  S   UNL     1      44.703   6.900  11.201  0.00  0.00    +0.000 S 
BRANCH  14  15
ATOM     15  C   UNL     1      44.580   5.191  10.689  0.00  0.00    +0.000 A 
ATOM     16  C   UNL     1      43.729   4.364  11.428  0.00  0.00    +0.000 A 
ATOM     17  C   UNL     1      43.620   3.010  11.127  0.00  0.00    +0.000 A 
ATOM     18  C   UNL     1      44.358   2.469  10.074  0.00  0.00    +0.000 A 
ATOM     19  C   UNL     1      45.205   3.268   9.286  0.00  0.00    +0.000 A 
ATOM     20  C   UNL     1      45.312   4.632   9.632  0.00  0.00    +0.000 A 
BRANCH  19  21
ATOM     21  C   UNL     1      45.917   2.708   8.110  0.00  0.00    +0.000 A 
ATOM     22  C   UNL     1      46.190   3.506   6.983  0.00  0.00    +0.000 A 
ATOM     23  C   UNL     1      46.903   3.014   5.887  0.00  0.00    +0.000 A 
ATOM     24  C   UNL     1      47.373   1.705   5.895  0.00  0.00    +0.000 A 
ATOM     25  C   UNL     1      47.113   0.888   6.991  0.00  0.00    +0.000 A 
ATOM     26  C   UNL     1      46.385   1.381   8.081  0.00  0.00    +0.000 A 
ENDBRANCH  19  21
ENDBRANCH  14  15
ENDBRANCH   1  14
TORSDOF 6
ENDMDL
MODEL 5
REMARK VINA RESULT:    -7.345      1.993      3.178
REMARK INTER + INTRA:         -10.942
REMARK INTER:                 -10.212
REMARK INTRA:                  -0.730
REMARK UNBOUND:                -1.021
REMARK  Name = 
REMARK  6 active torsions:
REMARK  status: ('A' for Active; 'I' for Inactive)
REMARK    1  A    between atoms: C_2  and  C_4
REMARK    2  A    between atoms: C_7  and  C_8
REMARK    3  A    between atoms: C_8  and  C_9
REMARK    4  A    between atoms: C_9  and  S_10
REMARK    5  A    between atoms: S_10  and  C_11
REMARK    6  A    between atoms: C_15  and  C_16
REMARK                            x       y       z     vdW  Elec       q    Type
REMARK                         _______ _______ _______ _____ _____    ______ ____
ROOT
ATOM      1  C   UNL     1      44.258   5.388  10.841  0.00  0.00    +0.000 C 
ENDROOT
BRANCH   1   2
ATOM      2  C   UNL     1      43.884   3.977  10.380  0.00  0.00    +0.000 C 
BRANCH   2   6
ATOM      3  C   UNL     1      46.655   2.416   7.455  0.00  0.00    +0.000 A 
ATOM      4  C   UNL     1      46.395   3.789   7.511  0.00  0.00    +0.000 A 
ATOM      5  C   UNL     1      45.491   4.291   8.452  0.00  0.00    +0.000 A 
ATOM      6  C   UNL     1      44.840   3.432   9.347  0.00  0.00    +0.000 A 
ATOM      7  C   UNL     1      45.085   2.052   9.263  0.00  0.00    +0.000 A 
ATOM      8  C   UNL     1      45.983   1.548   8.320  0.00  0.00    +0.000 A 
BRANCH   3  10
ATOM      9  N   UNL     1      48.794   2.512   6.288  0.00  0.00    +0.000 N 
ATOM     10  C   UNL     1      47.619   1.838   6.481  0.00  0.00    +0.000 C 
ATOM     11  O   UNL     1      47.400   0.780   5.904  0.00  0.00    +0.000 OA
ATOM     12  H   UNL     1      49.487   2.042   5.717  0.00  0.00    +0.000 HD
ATOM     13  H   UNL     1      49.120   3.219   6.929  0.00  0.00    +0.000 HD
ENDBRANCH   3  10
ENDBRANCH   2   6
ENDBRANCH   1   2
BRANCH   1  14
ATOM     14  S   UNL     1      45.482   5.271  12.194  0.00  0.00    +0.000 S 
BRANCH  14  15
ATOM     15  C   UNL     1      46.230   6.896  12.217  0.00  0.00    +0.000 A 
ATOM     16  C   UNL     1      45.400   7.974  12.541  0.00  0.00    +0.000 A 
ATOM     17  C   UNL     1      45.893   9.275  12.527  0.00  0.00    +0.000 A 
ATOM     18  C   UNL     1      47.229   9.511  12.197  0.00  0.00    +0.000 A 
ATOM     19  C   UNL     1      48.105   8.455  11.893  0.00  0.00    +0.000 A 
ATOM     20  C   UNL     1      47.569   7.149  11.891  0.00  0.00    +0.000 A 
BRANCH  19  21
ATOM     21  C   UNL     1      49.547   8.702  11.633  0.00  0.00    +0.000 A 
ATOM     22  C   UNL     1      50.383   7.670  11.168  0.00  0.00    +0.000 A 
ATOM     23  C   UNL     1      51.730   7.893  10.868  0.00  0.00    +0.000 A 
ATOM     24  C   UNL     1      52.274   9.163  11.018  0.00  0.00    +0.000 A 
ATOM     25  C   UNL     1      51.475  10.203  11.483  0.00  0.00    +0.000 A 
ATOM     26  C   UNL     1      50.129   9.971  11.796  0.00  0.00    +0.000 A 
ENDBRANCH  19  21
ENDBRANCH  14  15
ENDBRANCH   1  14
TORSDOF 6
ENDMDL
MODEL 6
REMARK VINA RESULT:    -7.103      3.882      7.386
REMARK INTER + INTRA:         -10.616
REMARK INTER:                  -9.610
REMARK INTRA:                  -1.006
REMARK UNBOUND:                -1.021
REMARK  Name = 
REMARK  6 active torsions:
REMARK  status: ('A' for Active; 'I' for Inactive)
REMARK    1  A    between atoms: C_2  and  C_4
REMARK    2  A    between atoms: C_7  and  C_8
REMARK    3  A    between atoms: C_8  and  C_9
REMARK    4  A    between atoms: C_9  and  S_10
REMARK    5  A    between atoms: S_10  and  C_11
REMARK    6  A    between atoms: C_15  and  C_16
REMARK                            x       y       z     vdW  Elec       q    Type
REMARK                         _______ _______ _______ _____ _____    ______ ____
ROOT
ATOM      1  C   UNL     1      46.569   8.036  12.588  0.00  0.00    +0.000 C 
ENDROOT
BRANCH   1   2
ATOM      2  C   UNL     1      47.190   6.656  12.361  0.00  0.00    +0.000 C 
BRANCH   2   6
ATOM      3  C   UNL     1      47.718   4.417  16.020  0.00  0.00    +0.000 A 
ATOM      4  C   UNL     1      46.944   3.890  14.981  0.00  0.00    +0.000 A 
ATOM      5  C   UNL     1      46.767   4.619  13.802  0.00  0.00    +0.000 A 
ATOM      6  C   UNL     1      47.360   5.879  13.644  0.00  0.00    +0.000 A 
ATOM      7  C   UNL     1      48.110   6.413  14.704  0.00  0.00    +0.000 A 
ATOM      8  C   UNL     1      48.283   5.688  15.885  0.00  0.00    +0.000 A 
BRANCH   3  10
ATOM      9  N   UNL     1      46.968   2.805  17.687  0.00  0.00    +0.000 N 
ATOM     10  C   UNL     1      47.946   3.672  17.286  0.00  0.00    +0.000 C 
ATOM     11  O   UNL     1      48.983   3.788  17.927  0.00  0.00    +0.000 OA
ATOM     12  H   UNL     1      47.192   2.218  18.483  0.00  0.00    +0.000 HD
ATOM     13  H   UNL     1      46.242   2.486  17.063  0.00  0.00    +0.000 HD
ENDBRANCH   3  10
ENDBRANCH   2   6
ENDBRANCH   1   2
BRANCH   1  14
ATOM     14  S   UNL     1      44.961   8.118  11.720  0.00  0.00    +0.000 S 
BRANCH  14  15
ATOM     15  C   UNL     1      44.583   6.402  11.385  0.00  0.00    +0.000 A 
ATOM     16  C   UNL     1      43.638   5.786  12.211  0.00  0.00    +0.000 A 
ATOM     17  C   UNL     1      43.328   4.439  12.050  0.00  0.00    +0.000 A 
ATOM     18  C   UNL     1      43.958   3.694  11.051  0.00  0.00    +0.000 A 
ATOM     19  C   UNL     1      44.893   4.280  10.181  0.00  0.00    +0.000 A 
ATOM     20  C   UNL     1      45.204   5.641  10.385  0.00  0.00    +0.000 A 
BRANCH  19  21
ATOM     21  C   UNL     1      45.492   3.508   9.062  0.00  0.00    +0.000 A 
ATOM     22  C   UNL     1      46.061   4.165   7.954  0.00  0.00    +0.000 A 
ATOM     23  C   UNL     1      46.674   3.459   6.916  0.00  0.00    +0.000 A 
ATOM     24  C   UNL     1      46.744   2.072   6.964  0.00  0.00    +0.000 A 
ATOM     25  C   UNL     1      46.184   1.393   8.041  0.00  0.00    +0.000 A 
ATOM     26  C   UNL     1      45.557   2.103   9.073  0.00  0.00    +0.000 A 
ENDBRANCH  19  21
ENDBRANCH  14  15
ENDBRANCH   1  14
TORSDOF 6
ENDMDL
MODEL 7
REMARK VINA RESULT:    -6.902      3.279      7.423
REMARK INTER + INTRA:         -10.344
REMARK INTER:                  -9.672
REMARK INTRA:                  -0.672
REMARK UNBOUND:                -1.021
REMARK  Name = 
REMARK  6 active torsions:
REMARK  status: ('A' for Active; 'I' for Inactive)
REMARK    1  A    between atoms: C_2  and  C_4
REMARK    2  A    between atoms: C_7  and  C_8
REMARK    3  A    between atoms: C_8  and  C_9
REMARK    4  A    between atoms: C_9  and  S_10
REMARK    5  A    between atoms: S_10  and  C_11
REMARK    6  A    between atoms: C_15  and  C_16
REMARK                            x       y       z     vdW  Elec       q    Type
REMARK                         _______ _______ _______ _____ _____    ______ ____
ROOT
ATOM      1  C   UNL     1      45.710   6.912  12.586  0.00  0.00    +0.000 C 
ENDROOT
BRANCH   1   2
ATOM      2  C   UNL     1      46.227   8.351  12.661  0.00  0.00    +0.000 C 
BRANCH   2   6
ATOM      3  C   UNL     1      50.350   8.704  11.415  0.00  0.00    +0.000 A 
ATOM      4  C   UNL     1      49.537   9.840  11.478  0.00  0.00    +0.000 A 
ATOM      5  C   UNL     1      48.201   9.723  11.873  0.00  0.00    +0.000 A 
ATOM      6  C   UNL     1      47.662   8.475  12.211  0.00  0.00    +0.000 A 
ATOM      7  C   UNL     1      48.478   7.336  12.116  0.00  0.00    +0.000 A 
ATOM      8  C   UNL     1      49.811   7.450  11.716  0.00  0.00    +0.000 A 
BRANCH   3  10
ATOM      9  N   UNL     1      52.576   7.714  11.326  0.00  0.00    +0.000 N 
ATOM     10  C   UNL     1      51.780   8.782  11.016  0.00  0.00    +0.000 C 
ATOM     11  O   UNL     1      52.226   9.738  10.395  0.00  0.00    +0.000 OA
ATOM     12  H   UNL     1      53.513   7.731  10.941  0.00  0.00    +0.000 HD
ATOM     13  H   UNL     1      52.195   6.817  11.586  0.00  0.00    +0.000 HD
ENDBRANCH   3  10
ENDBRANCH   2   6
ENDBRANCH   1   2
BRANCH   1  14
ATOM     14  S   UNL     1      44.283   6.848  11.445  0.00  0.00    +0.000 S 
BRANCH  14  15
ATOM     15  C   UNL     1      44.264   5.145  10.900  0.00  0.00    +0.000 A 
ATOM     16  C   UNL     1      43.441   4.260  11.603  0.00  0.00    +0.000 A 
ATOM     17  C   UNL     1      43.412   2.908  11.275  0.00  0.00    +0.000 A 
ATOM     18  C   UNL     1      44.204   2.427  10.231  0.00  0.00    +0.000 A 
ATOM     19  C   UNL     1      45.024   3.285   9.479  0.00  0.00    +0.000 A 
ATOM     20  C   UNL     1      45.050   4.646   9.852  0.00  0.00    +0.000 A 
BRANCH  19  21
ATOM     21  C   UNL     1      45.794   2.786   8.311  0.00  0.00    +0.000 A 
ATOM     22  C   UNL     1      46.133   3.646   7.249  0.00  0.00    +0.000 A 
ATOM     23  C   UNL     1      46.900   3.210   6.165  0.00  0.00    +0.000 A 
ATOM     24  C   UNL     1      47.357   1.898   6.121  0.00  0.00    +0.000 A 
ATOM     25  C   UNL     1      47.032   1.021   7.151  0.00  0.00    +0.000 A 
ATOM     26  C   UNL     1      46.251   1.459   8.228  0.00  0.00    +0.000 A 
ENDBRANCH  19  21
ENDBRANCH  14  15
ENDBRANCH   1  14
TORSDOF 6
ENDMDL
MODEL 8
REMARK VINA RESULT:    -6.604      4.491      7.753
REMARK INTER + INTRA:          -9.941
REMARK INTER:                  -8.574
REMARK INTRA:                  -1.367
REMARK UNBOUND:                -1.021
REMARK  Name = 
REMARK  6 active torsions:
REMARK  status: ('A' for Active; 'I' for Inactive)
REMARK    1  A    between atoms: C_2  and  C_4
REMARK    2  A    between atoms: C_7  and  C_8
REMARK    3  A    between atoms: C_8  and  C_9
REMARK    4  A    between atoms: C_9  and  S_10
REMARK    5  A    between atoms: S_10  and  C_11
REMARK    6  A    between atoms: C_15  and  C_16
REMARK                            x       y       z     vdW  Elec       q    Type
REMARK                         _______ _______ _______ _____ _____    ______ ____
ROOT
ATOM      1  C   UNL     1      50.152   7.607  13.430  0.00  0.00    +0.000 C 
ENDROOT
BRANCH   1   2
ATOM      2  C   UNL     1      49.551   8.016  14.777  0.00  0.00    +0.000 C 
BRANCH   2   6
ATOM      3  C   UNL     1      48.041   4.619  16.982  0.00  0.00    +0.000 A 
ATOM      4  C   UNL     1      47.597   4.862  15.678  0.00  0.00    +0.000 A 
ATOM      5  C   UNL     1      48.080   5.967  14.970  0.00  0.00    +0.000 A 
ATOM      6  C   UNL     1      49.010   6.838  15.551  0.00  0.00    +0.000 A 
ATOM      7  C   UNL     1      49.427   6.603  16.871  0.00  0.00    +0.000 A 
ATOM      8  C   UNL     1      48.942   5.504  17.583  0.00  0.00    +0.000 A 
BRANCH   3  10
ATOM      9  N   UNL     1      48.295   3.101  18.873  0.00  0.00    +0.000 N 
ATOM     10  C   UNL     1      47.567   3.450  17.769  0.00  0.00    +0.000 C 
ATOM     11  O   UNL     1      46.544   2.845  17.474  0.00  0.00    +0.000 OA
ATOM     12  H   UNL     1      47.892   2.382  19.462  0.00  0.00    +0.000 HD
ATOM     13  H   UNL     1      48.969   3.725  19.292  0.00  0.00    +0.000 HD
ENDBRANCH   3  10
ENDBRANCH   2   6
ENDBRANCH   1   2
BRANCH   1  14
ATOM     14  S   UNL     1      49.394   8.615  12.106  0.00  0.00    +0.000 S 
BRANCH  14  15
ATOM     15  C   UNL     1      47.689   8.075  12.099  0.00  0.00    +0.000 A 
ATOM     16  C   UNL     1      46.767   8.868  12.789  0.00  0.00    +0.000 A 
ATOM     17  C   UNL     1      45.431   8.487  12.876  0.00  0.00    +0.000 A 
ATOM     18  C   UNL     1      45.002   7.308  12.265  0.00  0.00    +0.000 A 
ATOM     19  C   UNL     1      45.888   6.496  11.537  0.00  0.00    +0.000 A 
ATOM     20  C   UNL     1      47.241   6.896  11.488  0.00  0.00    +0.000 A 
BRANCH  19  21
ATOM     21  C   UNL     1      45.409   5.292  10.811  0.00  0.00    +0.000 A 
ATOM     22  C   UNL     1      45.571   5.178   9.417  0.00  0.00    +0.000 A 
ATOM     23  C   UNL     1      45.173   4.032   8.722  0.00  0.00    +0.000 A 
ATOM     24  C   UNL     1      44.610   2.963   9.409  0.00  0.00    +0.000 A 
ATOM     25  C   UNL     1      44.430   3.048  10.785  0.00  0.00    +0.000 A 
ATOM     26  C   UNL     1      44.817   4.204  11.476  0.00  0.00    +0.000 A 
ENDBRANCH  19  21
ENDBRANCH  14  15
ENDBRANCH   1  14
TORSDOF 6
ENDMDL
MODEL 9
REMARK VINA RESULT:    -6.524      4.270      6.816
REMARK INTER + INTRA:          -9.834
REMARK INTER:                  -8.568
REMARK INTRA:                  -1.266
REMARK UNBOUND:                -1.021
REMARK  Name = 
REMARK  6 active torsions:
REMARK  status: ('A' for Active; 'I' for Inactive)
REMARK    1  A    between atoms: C_2  and  C_4
REMARK    2  A    between atoms: C_7  and  C_8
REMARK    3  A    between atoms: C_8  and  C_9
REMARK    4  A    between atoms: C_9  and  S_10
REMARK    5  A    between atoms: S_10  and  C_11
REMARK    6  A    between atoms: C_15  and  C_16
REMARK                            x       y       z     vdW  Elec       q    Type
REMARK                         _______ _______ _______ _____ _____    ______ ____
ROOT
ATOM      1  C   UNL     1      47.239   8.788  13.225  0.00  0.00    +0.000 C 
ENDROOT
BRANCH   1   2
ATOM      2  C   UNL     1      47.817   7.680  12.341  0.00  0.00    +0.000 C 
BRANCH   2   6
ATOM      3  C   UNL     1      45.175   4.269  12.088  0.00  0.00    +0.000 A 
ATOM      4  C   UNL     1      45.982   4.449  13.216  0.00  0.00    +0.000 A 
ATOM      5  C   UNL     1      46.843   5.548  13.292  0.00  0.00    +0.000 A 
ATOM      6  C   UNL     1      46.907   6.479  12.248  0.00  0.00    +0.000 A 
ATOM      7  C   UNL     1      46.115   6.275  11.107  0.00  0.00    +0.000 A 
ATOM      8  C   UNL     1      45.259   5.174  11.026  0.00  0.00    +0.000 A 
BRANCH   3  10
ATOM      9  N   UNL     1      44.122   2.531  10.742  0.00  0.00    +0.000 N 
ATOM     10  C   UNL     1      44.234   3.124  11.969  0.00  0.00    +0.000 C 
ATOM     11  O   UNL     1      43.615   2.694  12.934  0.00  0.00    +0.000 OA
ATOM     12  H   UNL     1      43.571   1.680  10.708  0.00  0.00    +0.000 HD
ATOM     13  H   UNL     1      44.800   2.677  10.010  0.00  0.00    +0.000 HD
ENDBRANCH   3  10
ENDBRANCH   2   6
ENDBRANCH   1   2
BRANCH   1  14
ATOM     14  S   UNL     1      48.579   9.500  14.245  0.00  0.00    +0.000 S 
BRANCH  14  15
ATOM     15  C   UNL     1      48.511   8.536  15.750  0.00  0.00    +0.000 A 
ATOM     16  C   UNL     1      48.158   9.211  16.923  0.00  0.00    +0.000 A 
ATOM     17  C   UNL     1      48.135   8.544  18.144  0.00  0.00    +0.000 A 
ATOM     18  C   UNL     1      48.459   7.187  18.203  0.00  0.00    +0.000 A 
ATOM     19  C   UNL     1      48.792   6.463  17.045  0.00  0.00    +0.000 A 
ATOM     20  C   UNL     1      48.830   7.174  15.826  0.00  0.00    +0.000 A 
BRANCH  19  21
ATOM     21  C   UNL     1      49.046   5.000  17.098  0.00  0.00    +0.000 A 
ATOM     22  C   UNL     1      48.075   4.083  16.655  0.00  0.00    +0.000 A 
ATOM     23  C   UNL     1      48.313   2.706  16.649  0.00  0.00    +0.000 A 
ATOM     24  C   UNL     1      49.538   2.211  17.080  0.00  0.00    +0.000 A 
ATOM     25  C   UNL     1      50.516   3.091  17.531  0.00  0.00    +0.000 A 
ATOM     26  C   UNL     1      50.268   4.470  17.549  0.00  0.00    +0.000 A 
ENDBRANCH  19  21
ENDBRANCH  14  15
ENDBRANCH   1  14
TORSDOF 6
ENDMDL
