MODEL 1
REMARK VINA RESULT:    -8.050      0.000      0.000
REMARK INTER + INTRA:         -11.822
REMARK INTER:                 -10.874
REMARK INTRA:                  -0.948
REMARK UNBOUND:                -0.948
REMARK  Name = 
REMARK  6 active torsions:
REMARK  status: ('A' for Active; 'I' for Inactive)
REMARK    1  A    between atoms: C_2  and  C_4
REMARK    2  A    between atoms: C_7  and  N_8
REMARK    3  A    between atoms: N_8  and  C_9
REMARK    4  A    between atoms: C_9  and  C_10
REMARK    5  A    between atoms: C_10  and  C_11
REMARK    6  A    between atoms: C_15  and  C_16
REMARK                            x       y       z     vdW  Elec       q    Type
REMARK                         _______ _______ _______ _____ _____    ______ ____
ROOT
ATOM      1  C   UNL     1      45.595   7.138  12.535  0.00  0.00    +0.000 C 
ENDROOT
BRANCH   1   2
ATOM      2  N   UNL     1      46.962   6.614  12.546  0.00  0.00    +0.000 N 
ATOM      3  H   UNL     1      47.655   7.360  12.514  0.00  0.00    +0.000 HD
BRANCH   2   7
ATOM      4  C   UNL     1      47.726   3.961  15.598  0.00  0.00    +0.000 A 
ATOM      5  C   UNL     1      48.171   5.271  15.678  0.00  0.00    +0.000 A 
ATOM      6  N   UNL     1      47.948   6.184  14.690  0.00  0.00    +0.000 NA
ATOM      7  C   UNL     1      47.268   5.749  13.607  0.00  0.00    +0.000 A 
ATOM      8  C   UNL     1      46.823   4.421  13.550  0.00  0.00    +0.000 A 
ATOM      9  N   UNL     1      47.041   3.490  14.521  0.00  0.00    +0.000 NA
BRANCH   4  11
ATOM     10  N   UNL     1      46.984   2.874  17.634  0.00  0.00    +0.000 N 
ATOM     11  C   UNL     1      47.994   3.015  16.717  0.00  0.00    +0.000 C 
ATOM     12  O   UNL     1      49.040   2.391  16.811  0.00  0.00    +0.000 OA
ATOM     13  H   UNL     1      47.101   2.231  18.403  0.00  0.00    +0.000 HD
ATOM     14  H   UNL     1      46.114   3.377  17.514  0.00  0.00    +0.000 HD
ENDBRANCH   4  11
ENDBRANCH   2   7
ENDBRANCH   1   2
BRANCH   1  15
ATOM     15  C   UNL     1      44.981   6.920  11.143  0.00  0.00    +0.000 C 
BRANCH  15  16
ATOM     16  C   UNL     1      44.699   5.467  10.864  0.00  0.00    +0.000 A 
ATOM     17  C   UNL     1      43.671   4.798  11.532  0.00  0.00    +0.000 A 
ATOM     18  C   UNL     1      43.395   3.467  11.231  0.00  0.00    +0.000 A 
ATOM     19  C   UNL     1      44.122   2.807  10.236  0.00  0.00    +0.000 A 
ATOM     20  C   UNL     1      45.127   3.464   9.505  0.00  0.00    +0.000 A 
ATOM     21  C   UNL     1      45.422   4.792   9.869  0.00  0.00    +0.000 A 
BRANCH  20  22
ATOM     22  C   UNL     1      45.763   2.845   8.318  0.00  0.00    +0.000 A 
ATOM     23  C   UNL     1      46.092   3.628   7.193  0.00  0.00    +0.000 A 
ATOM     24  C   UNL     1      46.827   3.106   6.126  0.00  0.00    +0.000 A 
ATOM     25  C   UNL     1      47.255   1.784   6.158  0.00  0.00    +0.000 A 
ATOM     26  C   UNL     1      46.917   0.976   7.240  0.00  0.00    +0.000 A 
ATOM     27  C   UNL     1      46.169   1.498   8.300  0.00  0.00    +0.000 A 
ENDBRANCH  20  22
ENDBRANCH  15  16
ENDBRANCH   1  15
TORSDOF 6
ENDMDL
MODEL 2
REMARK VINA RESULT:    -8.021      3.766      6.916
REMARK INTER + INTRA:         -11.783
REMARK INTER:                 -10.841
REMARK INTRA:                  -0.941
REMARK UNBOUND:                -0.948
REMARK  Name = 
REMARK  6 active torsions:
REMARK  status: ('A' for Active; 'I' for Inactive)
REMARK    1  A    between atoms: C_2  and  C_4
REMARK    2  A    between atoms: C_7  and  N_8
REMARK    3  A    between atoms: N_8  and  C_9
REMARK    4  A    between atoms: C_9  and  C_10
REMARK    5  A    between atoms: C_10  and  C_11
REMARK    6  A    between atoms: C_15  and  C_16
REMARK                            x       y       z     vdW  Elec       q    Type
REMARK                         _______ _______ _______ _____ _____    ______ ____
ROOT
ATOM      1  C   UNL     1      43.221   4.562  11.056  0.00  0.00    +0.000 C 
ENDROOT
BRANCH   1   2
ATOM      2  N   UNL     1      43.845   5.010   9.809  0.00  0.00    +0.000 N 
ATOM      3  H   UNL     1      44.376   5.869   9.937  0.00  0.00    +0.000 HD
BRANCH   2   7
ATOM      4  C   UNL     1      46.191   2.114   8.064  0.00  0.00    +0.000 A 
ATOM      5  C   UNL     1      46.284   3.434   7.655  0.00  0.00    +0.000 A 
ATOM      6  N   UNL     1      45.524   4.427   8.198  0.00  0.00    +0.000 NA
ATOM      7  C   UNL     1      44.655   4.062   9.166  0.00  0.00    +0.000 A 
ATOM      8  C   UNL     1      44.582   2.722   9.568  0.00  0.00    +0.000 A 
ATOM      9  N   UNL     1      45.325   1.712   9.034  0.00  0.00    +0.000 NA
BRANCH   4  11
ATOM     10  N   UNL     1      48.064   1.548   6.632  0.00  0.00    +0.000 N 
ATOM     11  C   UNL     1      47.058   1.077   7.436  0.00  0.00    +0.000 C 
ATOM     12  O   UNL     1      46.897  -0.117   7.632  0.00  0.00    +0.000 OA
ATOM     13  H   UNL     1      48.696   0.894   6.195  0.00  0.00    +0.000 HD
ATOM     14  H   UNL     1      48.196   2.545   6.514  0.00  0.00    +0.000 HD
ENDBRANCH   4  11
ENDBRANCH   2   7
ENDBRANCH   1   2
BRANCH   1  15
ATOM     15  C   UNL     1      43.431   5.631  12.140  0.00  0.00    +0.000 C 
BRANCH  15  16
ATOM     16  C   UNL     1      44.854   5.673  12.632  0.00  0.00    +0.000 A 
ATOM     17  C   UNL     1      45.394   4.604  13.351  0.00  0.00    +0.000 A 
ATOM     18  C   UNL     1      46.723   4.639  13.761  0.00  0.00    +0.000 A 
ATOM     19  C   UNL     1      47.532   5.729  13.426  0.00  0.00    +0.000 A 
ATOM     20  C   UNL     1      47.039   6.799  12.658  0.00  0.00    +0.000 A 
ATOM     21  C   UNL     1      45.677   6.762  12.305  0.00  0.00    +0.000 A 
BRANCH  20  22
ATOM     22  C   UNL     1      47.932   7.857  12.125  0.00  0.00    +0.000 A 
ATOM     23  C   UNL     1      47.512   9.201  12.105  0.00  0.00    +0.000 A 
ATOM     24  C   UNL     1      48.383  10.235  11.754  0.00  0.00    +0.000 A 
ATOM     25  C   UNL     1      49.700   9.949  11.414  0.00  0.00    +0.000 A 
ATOM     26  C   UNL     1      50.135   8.627  11.391  0.00  0.00    +0.000 A 
ATOM     27  C   UNL     1      49.256   7.593  11.731  0.00  0.00    +0.000 A 
ENDBRANCH  20  22
ENDBRANCH  15  16
ENDBRANCH   1  15
TORSDOF 6
ENDMDL
MODEL 3
REMARK VINA RESULT:    -7.663      3.613      7.769
REMARK INTER + INTRA:         -11.300
REMARK INTER:                 -10.562
REMARK INTRA:                  -0.738
REMARK UNBOUND:                -0.948
REMARK  Name = 
REMARK  6 active torsions:
REMARK  status: ('A' for Active; 'I' for Inactive)
REMARK    1  A    between atoms: C_2  and  C_4
REMARK    2  A    between atoms: C_7  and  N_8
REMARK    3  A    between atoms: N_8  and  C_9
REMARK    4  A    between atoms: C_9  and  C_10
REMARK    5  A    between atoms: C_10  and  C_11
REMARK    6  A    between atoms: C_15  and  C_16
REMARK                            x       y       z     vdW  Elec       q    Type
REMARK                         _______ _______ _______ _____ _____    ______ ____
ROOT
ATOM      1  C   UNL     1      43.856   3.550  11.267  0.00  0.00    +0.000 C 
ENDROOT
BRANCH   1   2
ATOM      2  N   UNL     1      43.875   4.153   9.933  0.00  0.00    +0.000 N 
ATOM      3  H   UNL     1      44.009   5.161   9.974  0.00  0.00    +0.000 HD
BRANCH   2   7
ATOM      4  C   UNL     1      46.616   2.393   7.417  0.00  0.00    +0.000 A 
ATOM      5  C   UNL     1      46.348   3.750   7.326  0.00  0.00    +0.000 A 
ATOM      6  N   UNL     1      45.445   4.375   8.133  0.00  0.00    +0.000 NA
ATOM      7  C   UNL     1      44.805   3.604   9.037  0.00  0.00    +0.000 A 
ATOM      8  C   UNL     1      45.096   2.234   9.115  0.00  0.00    +0.000 A 
ATOM      9  N   UNL     1      45.988   1.586   8.315  0.00  0.00    +0.000 NA
BRANCH   4  11
ATOM     10  N   UNL     1      48.782   2.483   6.331  0.00  0.00    +0.000 N 
ATOM     11  C   UNL     1      47.623   1.771   6.512  0.00  0.00    +0.000 C 
ATOM     12  O   UNL     1      47.441   0.691   5.974  0.00  0.00    +0.000 OA
ATOM     13  H   UNL     1      49.509   2.102   5.744  0.00  0.00    +0.000 HD
ATOM     14  H   UNL     1      48.922   3.360   6.816  0.00  0.00    +0.000 HD
ENDBRANCH   4  11
ENDBRANCH   2   7
ENDBRANCH   1   2
BRANCH   1  15
ATOM     15  C   UNL     1      43.836   4.664  12.326  0.00  0.00    +0.000 C 
BRANCH  15  16
ATOM     16  C   UNL     1      45.221   5.132  12.689  0.00  0.00    +0.000 A 
ATOM     17  C   UNL     1      45.859   6.123  11.939  0.00  0.00    +0.000 A 
ATOM     18  C   UNL     1      47.121   6.575  12.314  0.00  0.00    +0.000 A 
ATOM     19  C   UNL     1      47.740   6.065  13.458  0.00  0.00    +0.000 A 
ATOM     20  C   UNL     1      47.105   5.105  14.268  0.00  0.00    +0.000 A 
ATOM     21  C   UNL     1      45.854   4.626  13.834  0.00  0.00    +0.000 A 
BRANCH  20  22
ATOM     22  C   UNL     1      47.654   4.706  15.585  0.00  0.00    +0.000 A 
ATOM     23  C   UNL     1      48.456   5.597  16.325  0.00  0.00    +0.000 A 
ATOM     24  C   UNL     1      48.859   5.309  17.631  0.00  0.00    +0.000 A 
ATOM     25  C   UNL     1      48.468   4.118  18.232  0.00  0.00    +0.000 A 
ATOM     26  C   UNL     1      47.705   3.201  17.514  0.00  0.00    +0.000 A 
ATOM     27  C   UNL     1      47.314   3.488  16.202  0.00  0.00    +0.000 A 
ENDBRANCH  20  22
ENDBRANCH  15  16
ENDBRANCH   1  15
TORSDOF 6
ENDMDL
MODEL 4
REMARK VINA RESULT:    -7.659      3.769      7.414
REMARK INTER + INTRA:         -11.294
REMARK INTER:                 -10.396
REMARK INTRA:                  -0.898
REMARK UNBOUND:                -0.948
REMARK  Name = 
REMARK  6 active torsions:
REMARK  status: ('A' for Active; 'I' for Inactive)
REMARK    1  A    between atoms: C_2  and  C_4
REMARK    2  A    between atoms: C_7  and  N_8
REMARK    3  A    between atoms: N_8  and  C_9
REMARK    4  A    between atoms: C_9  and  C_10
REMARK    5  A    between atoms: C_10  and  C_11
REMARK    6  A    between atoms: C_15  and  C_16
REMARK                            x       y       z     vdW  Elec       q    Type
REMARK                         _______ _______ _______ _____ _____    ______ ____
ROOT
ATOM      1  C   UNL     1      43.585   3.288  11.514  0.00  0.00    +0.000 C 
ENDROOT
BRANCH   1   2
ATOM      2  N   UNL     1      43.695   3.941  10.208  0.00  0.00    +0.000 N 
ATOM      3  H   UNL     1      43.858   4.942  10.296  0.00  0.00    +0.000 HD
BRANCH   2   7
ATOM      4  C   UNL     1      46.480   2.489   7.550  0.00  0.00    +0.000 A 
ATOM      5  C   UNL     1      45.887   1.646   8.476  0.00  0.00    +0.000 A 
ATOM      6  N   UNL     1      44.965   2.083   9.380  0.00  0.00    +0.000 NA
ATOM      7  C   UNL     1      44.652   3.395   9.339  0.00  0.00    +0.000 A 
ATOM      8  C   UNL     1      45.260   4.228   8.390  0.00  0.00    +0.000 A 
ATOM      9  N   UNL     1      46.190   3.817   7.483  0.00  0.00    +0.000 NA
BRANCH   4  11
ATOM     10  N   UNL     1      48.608   2.699   6.407  0.00  0.00    +0.000 N 
ATOM     11  C   UNL     1      47.475   1.947   6.581  0.00  0.00    +0.000 C 
ATOM     12  O   UNL     1      47.304   0.895   5.987  0.00  0.00    +0.000 OA
ATOM     13  H   UNL     1      49.327   2.373   5.778  0.00  0.00    +0.000 HD
ATOM     14  H   UNL     1      48.741   3.552   6.937  0.00  0.00    +0.000 HD
ENDBRANCH   4  11
ENDBRANCH   2   7
ENDBRANCH   1   2
BRANCH   1  15
ATOM     15  C   UNL     1      43.437   4.361  12.605  0.00  0.00    +0.000 C 
BRANCH  15  16
ATOM     16  C   UNL     1      44.743   5.043  12.916  0.00  0.00    +0.000 A 
ATOM     17  C   UNL     1      45.862   4.302  13.305  0.00  0.00    +0.000 A 
ATOM     18  C   UNL     1      47.073   4.943  13.545  0.00  0.00    +0.000 A 
ATOM     19  C   UNL     1      47.184   6.325  13.368  0.00  0.00    +0.000 A 
ATOM     20  C   UNL     1      46.094   7.097  12.927  0.00  0.00    +0.000 A 
ATOM     21  C   UNL     1      44.868   6.430  12.745  0.00  0.00    +0.000 A 
BRANCH  20  22
ATOM     22  C   UNL     1      46.248   8.520  12.541  0.00  0.00    +0.000 A 
ATOM     23  C   UNL     1      47.527   9.062  12.307  0.00  0.00    +0.000 A 
ATOM     24  C   UNL     1      47.694  10.352  11.796  0.00  0.00    +0.000 A 
ATOM     25  C   UNL     1      46.582  11.132  11.504  0.00  0.00    +0.000 A 
ATOM     26  C   UNL     1      45.306  10.637  11.756  0.00  0.00    +0.000 A 
ATOM     27  C   UNL     1      45.143   9.351  12.281  0.00  0.00    +0.000 A 
ENDBRANCH  20  22
ENDBRANCH  15  16
ENDBRANCH   1  15
TORSDOF 6
ENDMDL
MODEL 5
REMARK VINA RESULT:    -7.379      2.170      2.932
REMARK INTER + INTRA:         -10.915
REMARK INTER:                 -10.311
REMARK INTRA:                  -0.605
REMARK UNBOUND:                -0.948
REMARK  Name = 
REMARK  6 active torsions:
REMARK  status: ('A' for Active; 'I' for Inactive)
REMARK    1  A    between atoms: C_2  and  C_4
REMARK    2  A    between atoms: C_7  and  N_8
REMARK    3  A    between atoms: N_8  and  C_9
REMARK    4  A    between atoms: C_9  and  C_10
REMARK    5  A    between atoms: C_10  and  C_11
REMARK    6  A    between atoms: C_15  and  C_16
REMARK                            x       y       z     vdW  Elec       q    Type
REMARK                         _______ _______ _______ _____ _____    ______ ____
ROOT
ATOM      1  C   UNL     1      46.667   4.003  14.577  0.00  0.00    +0.000 C 
ENDROOT
BRANCH   1   2
ATOM      2  N   UNL     1      47.016   4.275  15.972  0.00  0.00    +0.000 N 
ATOM      3  H   UNL     1      46.270   4.008  16.610  0.00  0.00    +0.000 HD
BRANCH   2   7
ATOM      4  C   UNL     1      50.471   2.442  17.254  0.00  0.00    +0.000 A 
ATOM      5  C   UNL     1      50.278   3.799  17.458  0.00  0.00    +0.000 A 
ATOM      6  N   UNL     1      49.154   4.451  17.046  0.00  0.00    +0.000 NA
ATOM      7  C   UNL     1      48.221   3.708  16.413  0.00  0.00    +0.000 A 
ATOM      8  C   UNL     1      48.435   2.335  16.223  0.00  0.00    +0.000 A 
ATOM      9  N   UNL     1      49.552   1.664  16.618  0.00  0.00    +0.000 NA
BRANCH   4  11
ATOM     10  N   UNL     1      51.629   0.439  17.981  0.00  0.00    +0.000 N 
ATOM     11  C   UNL     1      51.718   1.786  17.739  0.00  0.00    +0.000 C 
ATOM     12  O   UNL     1      52.761   2.401  17.899  0.00  0.00    +0.000 OA
ATOM     13  H   UNL     1      52.447  -0.062  18.292  0.00  0.00    +0.000 HD
ATOM     14  H   UNL     1      50.761  -0.053  17.807  0.00  0.00    +0.000 HD
ENDBRANCH   4  11
ENDBRANCH   2   7
ENDBRANCH   1   2
BRANCH   1  15
ATOM     15  C   UNL     1      46.074   5.274  13.947  0.00  0.00    +0.000 C 
BRANCH  15  16
ATOM     16  C   UNL     1      45.103   4.963  12.838  0.00  0.00    +0.000 A 
ATOM     17  C   UNL     1      43.791   5.440  12.883  0.00  0.00    +0.000 A 
ATOM     18  C   UNL     1      42.919   5.180  11.830  0.00  0.00    +0.000 A 
ATOM     19  C   UNL     1      43.362   4.471  10.710  0.00  0.00    +0.000 A 
ATOM     20  C   UNL     1      44.690   4.021  10.605  0.00  0.00    +0.000 A 
ATOM     21  C   UNL     1      45.534   4.249  11.709  0.00  0.00    +0.000 A 
BRANCH  20  22
ATOM     22  C   UNL     1      45.227   3.450   9.347  0.00  0.00    +0.000 A 
ATOM     23  C   UNL     1      45.715   4.294   8.330  0.00  0.00    +0.000 A 
ATOM     24  C   UNL     1      46.364   3.784   7.203  0.00  0.00    +0.000 A 
ATOM     25  C   UNL     1      46.543   2.412   7.066  0.00  0.00    +0.000 A 
ATOM     26  C   UNL     1      46.041   1.551   8.037  0.00  0.00    +0.000 A 
ATOM     27  C   UNL     1      45.380   2.064   9.157  0.00  0.00    +0.000 A 
ENDBRANCH  20  22
ENDBRANCH  15  16
ENDBRANCH   1  15
TORSDOF 6
ENDMDL
MODEL 6
REMARK VINA RESULT:    -6.734      1.856      3.440
REMARK INTER + INTRA:         -10.044
REMARK INTER:                  -9.307
REMARK INTRA:                  -0.737
REMARK UNBOUND:                -0.948
REMARK  Name = 
REMARK  6 active torsions:
REMARK  status: ('A' for Active; 'I' for Inactive)
REMARK    1  A    between atoms: C_2  and  C_4
REMARK    2  A    between atoms: C_7  and  N_8
REMARK    3  A    between atoms: N_8  and  C_9
REMARK    4  A    between atoms: C_9  and  C_10
REMARK    5  A    between atoms: C_10  and  C_11
REMARK    6  A    between atoms: C_15  and  C_16
REMARK                            x       y       z     vdW  Elec       q    Type
REMARK                         _______ _______ _______ _____ _____    ______ ____
ROOT
ATOM      1  C   UNL     1      48.677   8.515  14.012  0.00  0.00    +0.000 C 
ENDROOT
BRANCH   1   2
ATOM      2  N   UNL     1      49.644   7.643  14.682  0.00  0.00    +0.000 N 
ATOM      3  H   UNL     1      50.288   8.170  15.269  0.00  0.00    +0.000 HD
BRANCH   2   7
ATOM      4  C   UNL     1      48.177   4.573  16.996  0.00  0.00    +0.000 A 
ATOM      5  C   UNL     1      47.646   4.822  15.741  0.00  0.00    +0.000 A 
ATOM      6  N   UNL     1      48.094   5.831  14.942  0.00  0.00    +0.000 NA
ATOM      7  C   UNL     1      49.092   6.596  15.435  0.00  0.00    +0.000 A 
ATOM      8  C   UNL     1      49.618   6.322  16.705  0.00  0.00    +0.000 A 
ATOM      9  N   UNL     1      49.180   5.325  17.524  0.00  0.00    +0.000 NA
BRANCH   4  11
ATOM     10  N   UNL     1      48.332   3.181  18.976  0.00  0.00    +0.000 N 
ATOM     11  C   UNL     1      47.648   3.447  17.817  0.00  0.00    +0.000 C 
ATOM     12  O   UNL     1      46.661   2.807  17.492  0.00  0.00    +0.000 OA
ATOM     13  H   UNL     1      48.009   2.442  19.582  0.00  0.00    +0.000 HD
ATOM     14  H   UNL     1      49.128   3.749  19.239  0.00  0.00    +0.000 HD
ENDBRANCH   4  11
ENDBRANCH   2   7
ENDBRANCH   1   2
BRANCH   1  15
ATOM     15  C   UNL     1      48.554   8.095  12.539  0.00  0.00    +0.000 C 
BRANCH  15  16
ATOM     16  C   UNL     1      47.138   7.745  12.161  0.00  0.00    +0.000 A 
ATOM     17  C   UNL     1      46.103   8.665  12.343  0.00  0.00    +0.000 A 
ATOM     18  C   UNL     1      44.808   8.343  11.948  0.00  0.00    +0.000 A 
ATOM     19  C   UNL     1      44.544   7.113  11.339  0.00  0.00    +0.000 A 
ATOM     20  C   UNL     1      45.570   6.184  11.090  0.00  0.00    +0.000 A 
ATOM     21  C   UNL     1      46.859   6.513  11.550  0.00  0.00    +0.000 A 
BRANCH  20  22
ATOM     22  C   UNL     1      45.346   4.971  10.268  0.00  0.00    +0.000 A 
ATOM     23  C   UNL     1      44.614   3.883  10.785  0.00  0.00    +0.000 A 
ATOM     24  C   UNL     1      44.257   2.795   9.985  0.00  0.00    +0.000 A 
ATOM     25  C   UNL     1      44.622   2.768   8.644  0.00  0.00    +0.000 A 
ATOM     26  C   UNL     1      45.375   3.812   8.114  0.00  0.00    +0.000 A 
ATOM     27  C   UNL     1      45.742   4.893   8.921  0.00  0.00    +0.000 A 
ENDBRANCH  20  22
ENDBRANCH  15  16
ENDBRANCH   1  15
TORSDOF 6
ENDMDL
MODEL 7
REMARK VINA RESULT:    -6.458      4.971      8.417
REMARK INTER + INTRA:          -9.672
REMARK INTER:                  -9.038
REMARK INTRA:                  -0.634
REMARK UNBOUND:                -0.948
REMARK  Name = 
REMARK  6 active torsions:
REMARK  status: ('A' for Active; 'I' for Inactive)
REMARK    1  A    between atoms: C_2  and  C_4
REMARK    2  A    between atoms: C_7  and  N_8
REMARK    3  A    between atoms: N_8  and  C_9
REMARK    4  A    between atoms: C_9  and  C_10
REMARK    5  A    between atoms: C_10  and  C_11
REMARK    6  A    between atoms: C_15  and  C_16
REMARK                            x       y       z     vdW  Elec       q    Type
REMARK                         _______ _______ _______ _____ _____    ______ ____
ROOT
ATOM      1  C   UNL     1      45.694   3.954   7.841  0.00  0.00    +0.000 C 
ENDROOT
BRANCH   1   2
ATOM      2  N   UNL     1      46.999   3.395   7.481  0.00  0.00    +0.000 N 
ATOM      3  H   UNL     1      47.477   2.996   8.286  0.00  0.00    +0.000 HD
BRANCH   2   7
ATOM      4  C   UNL     1      47.044   0.507   4.550  0.00  0.00    +0.000 A 
ATOM      5  C   UNL     1      46.836   1.837   4.222  0.00  0.00    +0.000 A 
ATOM      6  N   UNL     1      46.806   2.828   5.159  0.00  0.00    +0.000 NA
ATOM      7  C   UNL     1      46.985   2.451   6.443  0.00  0.00    +0.000 A 
ATOM      8  C   UNL     1      47.200   1.101   6.750  0.00  0.00    +0.000 A 
ATOM      9  N   UNL     1      47.226   0.094   5.833  0.00  0.00    +0.000 NA
BRANCH   4  11
ATOM     10  N   UNL     1      46.513  -1.736   3.797  0.00  0.00    +0.000 N 
ATOM     11  C   UNL     1      47.076  -0.527   3.477  0.00  0.00    +0.000 C 
ATOM     12  O   UNL     1      47.559  -0.314   2.376  0.00  0.00    +0.000 OA
ATOM     13  H   UNL     1      46.487  -2.468   3.103  0.00  0.00    +0.000 HD
ATOM     14  H   UNL     1      46.088  -1.875   4.705  0.00  0.00    +0.000 HD
ENDBRANCH   4  11
ENDBRANCH   2   7
ENDBRANCH   1   2
BRANCH   1  15
ATOM     15  C   UNL     1      44.928   2.936   8.702  0.00  0.00    +0.000 C 
BRANCH  15  16
ATOM     16  C   UNL     1      44.575   3.488  10.059  0.00  0.00    +0.000 A 
ATOM     17  C   UNL     1      43.752   2.770  10.929  0.00  0.00    +0.000 A 
ATOM     18  C   UNL     1      43.471   3.273  12.196  0.00  0.00    +0.000 A 
ATOM     19  C   UNL     1      44.038   4.480  12.615  0.00  0.00    +0.000 A 
ATOM     20  C   UNL     1      44.914   5.204  11.786  0.00  0.00    +0.000 A 
ATOM     21  C   UNL     1      45.136   4.700  10.491  0.00  0.00    +0.000 A 
BRANCH  20  22
ATOM     22  C   UNL     1      45.678   6.372  12.286  0.00  0.00    +0.000 A 
ATOM     23  C   UNL     1      45.121   7.665  12.234  0.00  0.00    +0.000 A 
ATOM     24  C   UNL     1      45.751   8.758  12.834  0.00  0.00    +0.000 A 
ATOM     25  C   UNL     1      46.956   8.585  13.504  0.00  0.00    +0.000 A 
ATOM     26  C   UNL     1      47.548   7.326  13.543  0.00  0.00    +0.000 A 
ATOM     27  C   UNL     1      46.922   6.236  12.929  0.00  0.00    +0.000 A 
ENDBRANCH  20  22
ENDBRANCH  15  16
ENDBRANCH   1  15
TORSDOF 6
ENDMDL
MODEL 8
REMARK VINA RESULT:    -6.423      2.365      3.827
REMARK INTER + INTRA:          -9.624
REMARK INTER:                  -9.096
REMARK INTRA:                  -0.528
REMARK UNBOUND:                -0.948
REMARK  Name = 
REMARK  6 active torsions:
REMARK  status: ('A' for Active; 'I' for Inactive)
REMARK    1  A    between atoms: C_2  and  C_4
REMARK    2  A    between atoms: C_7  and  N_8
REMARK    3  A    between atoms: N_8  and  C_9
REMARK    4  A    between atoms: C_9  and  C_10
REMARK    5  A    between atoms: C_10  and  C_11
REMARK    6  A    between atoms: C_15  and  C_16
REMARK                            x       y       z     vdW  Elec       q    Type
REMARK                         _______ _______ _______ _____ _____    ______ ____
ROOT
ATOM      1  C   UNL     1      44.836   2.957  12.472  0.00  0.00    +0.000 C 
ENDROOT
BRANCH   1   2
ATOM      2  N   UNL     1      44.520   4.047  13.397  0.00  0.00    +0.000 N 
ATOM      3  H   UNL     1      44.428   3.718  14.356  0.00  0.00    +0.000 HD
BRANCH   2   7
ATOM      4  C   UNL     1      46.986   7.336  13.213  0.00  0.00    +0.000 A 
ATOM      5  C   UNL     1      47.495   6.095  13.558  0.00  0.00    +0.000 A 
ATOM      6  N   UNL     1      46.717   4.978  13.639  0.00  0.00    +0.000 NA
ATOM      7  C   UNL     1      45.403   5.136  13.369  0.00  0.00    +0.000 A 
ATOM      8  C   UNL     1      44.911   6.401  13.016  0.00  0.00    +0.000 A 
ATOM      9  N   UNL     1      45.667   7.531  12.938  0.00  0.00    +0.000 NA
BRANCH   4  11
ATOM     10  N   UNL     1      47.298   9.739  13.310  0.00  0.00    +0.000 N 
ATOM     11  C   UNL     1      47.893   8.516  13.133  0.00  0.00    +0.000 C 
ATOM     12  O   UNL     1      49.093   8.407  12.936  0.00  0.00    +0.000 OA
ATOM     13  H   UNL     1      47.865  10.573  13.286  0.00  0.00    +0.000 HD
ATOM     14  H   UNL     1      46.306   9.799  13.505  0.00  0.00    +0.000 HD
ENDBRANCH   4  11
ENDBRANCH   2   7
ENDBRANCH   1   2
BRANCH   1  15
ATOM     15  C   UNL     1      43.985   3.109  11.201  0.00  0.00    +0.000 C 
BRANCH  15  16
ATOM     16  C   UNL     1      44.775   3.676  10.050  0.00  0.00    +0.000 A 
ATOM     17  C   UNL     1      45.199   5.007  10.061  0.00  0.00    +0.000 A 
ATOM     18  C   UNL     1      45.966   5.502   9.011  0.00  0.00    +0.000 A 
ATOM     19  C   UNL     1      46.342   4.663   7.958  0.00  0.00    +0.000 A 
ATOM     20  C   UNL     1      45.979   3.305   7.939  0.00  0.00    +0.000 A 
ATOM     21  C   UNL     1      45.157   2.845   8.986  0.00  0.00    +0.000 A 
BRANCH  20  22
ATOM     22  C   UNL     1      46.536   2.360   6.942  0.00  0.00    +0.000 A 
ATOM     23  C   UNL     1      46.787   1.018   7.291  0.00  0.00    +0.000 A 
ATOM     24  C   UNL     1      47.165   0.071   6.337  0.00  0.00    +0.000 A 
ATOM     25  C   UNL     1      47.300   0.443   5.005  0.00  0.00    +0.000 A 
ATOM     26  C   UNL     1      47.093   1.768   4.634  0.00  0.00    +0.000 A 
ATOM     27  C   UNL     1      46.727   2.717   5.594  0.00  0.00    +0.000 A 
ENDBRANCH  20  22
ENDBRANCH  15  16
ENDBRANCH   1  15
TORSDOF 6
ENDMDL
MODEL 9
REMARK VINA RESULT:    -6.281      2.114      2.606
REMARK INTER + INTRA:          -9.432
REMARK INTER:                  -8.819
REMARK INTRA:                  -0.613
REMARK UNBOUND:                -0.948
REMARK  Name = 
REMARK  6 active torsions:
REMARK  status: ('A' for Active; 'I' for Inactive)
REMARK    1  A    between atoms: C_2  and  C_4
REMARK    2  A    between atoms: C_7  and  N_8
REMARK    3  A    between atoms: N_8  and  C_9
REMARK    4  A    between atoms: C_9  and  C_10
REMARK    5  A    between atoms: C_10  and  C_11
REMARK    6  A    between atoms: C_15  and  C_16
REMARK                            x       y       z     vdW  Elec       q    Type
REMARK                         _______ _______ _______ _____ _____    ______ ____
ROOT
ATOM      1  C   UNL     1      46.976   5.356  14.167  0.00  0.00    +0.000 C 
ENDROOT
BRANCH   1   2
ATOM      2  N   UNL     1      48.037   6.158  14.779  0.00  0.00    +0.000 N 
ATOM      3  H   UNL     1      47.865   7.156  14.678  0.00  0.00    +0.000 HD
BRANCH   2   7
ATOM      4  C   UNL     1      48.678   5.211  18.733  0.00  0.00    +0.000 A 
ATOM      5  C   UNL     1      49.259   6.340  18.177  0.00  0.00    +0.000 A 
ATOM      6  N   UNL     1      49.081   6.690  16.872  0.00  0.00    +0.000 NA
ATOM      7  C   UNL     1      48.306   5.874  16.127  0.00  0.00    +0.000 A 
ATOM      8  C   UNL     1      47.723   4.740  16.711  0.00  0.00    +0.000 A 
ATOM      9  N   UNL     1      47.894   4.366  18.010  0.00  0.00    +0.000 NA
BRANCH   4  11
ATOM     10  N   UNL     1      50.116   4.322  20.471  0.00  0.00    +0.000 N 
ATOM     11  C   UNL     1      48.904   4.888  20.170  0.00  0.00    +0.000 C 
ATOM     12  O   UNL     1      48.072   5.123  21.032  0.00  0.00    +0.000 OA
ATOM     13  H   UNL     1      50.334   4.100  21.431  0.00  0.00    +0.000 HD
ATOM     14  H   UNL     1      50.802   4.169  19.741  0.00  0.00    +0.000 HD
ENDBRANCH   4  11
ENDBRANCH   2   7
ENDBRANCH   1   2
BRANCH   1  15
ATOM     15  C   UNL     1      46.087   6.266  13.305  0.00  0.00    +0.000 C 
BRANCH  15  16
ATOM     16  C   UNL     1      45.148   5.481  12.426  0.00  0.00    +0.000 A 
ATOM     17  C   UNL     1      43.766   5.547  12.620  0.00  0.00    +0.000 A 
ATOM     18  C   UNL     1      42.910   4.851  11.772  0.00  0.00    +0.000 A 
ATOM     19  C   UNL     1      43.427   4.110  10.705  0.00  0.00    +0.000 A 
ATOM     20  C   UNL     1      44.809   4.063  10.447  0.00  0.00    +0.000 A 
ATOM     21  C   UNL     1      45.654   4.732  11.353  0.00  0.00    +0.000 A 
BRANCH  20  22
ATOM     22  C   UNL     1      45.354   3.454   9.210  0.00  0.00    +0.000 A 
ATOM     23  C   UNL     1      45.848   4.268   8.171  0.00  0.00    +0.000 A 
ATOM     24  C   UNL     1      46.505   3.724   7.065  0.00  0.00    +0.000 A 
ATOM     25  C   UNL     1      46.687   2.350   6.971  0.00  0.00    +0.000 A 
ATOM     26  C   UNL     1      46.180   1.517   7.964  0.00  0.00    +0.000 A 
ATOM     27  C   UNL     1      45.511   2.064   9.064  0.00  0.00    +0.000 A 
ENDBRANCH  20  22
ENDBRANCH  15  16
ENDBRANCH   1  15
TORSDOF 6
ENDMDL
