MODEL 1
REMARK VINA RESULT:    -8.432      0.000      0.000
REMARK INTER + INTRA:         -12.684
REMARK INTER:                 -11.637
REMARK INTRA:                  -1.047
REMARK UNBOUND:                -1.047
REMARK  Name = 
REMARK  7 active torsions:
REMARK  status: ('A' for Active; 'I' for Inactive)
REMARK    1  A    between atoms: N_1  and  C_2
REMARK    2  A    between atoms: C_2  and  N_3
REMARK    3  A    between atoms: C_2  and  C_16
REMARK    4  A    between atoms: C_4  and  C_6
REMARK    5  A    between atoms: C_19  and  C_20
REMARK    6  A    between atoms: C_20  and  N_21
REMARK    7  A    between atoms: C_22  and  C_24
REMARK                            x       y       z     vdW  Elec       q    Type
REMARK                         _______ _______ _______ _____ _____    ______ ____
ROOT
ATOM      1  C   UNL     1      47.008   7.681  13.253  0.00  0.00    +0.000 C 
ENDROOT
BRANCH   1   2
ATOM      2  C   UNL     1      46.211   6.744  12.366  0.00  0.00    +0.000 A 
ATOM      3  C   UNL     1      45.198   5.951  12.930  0.00  0.00    +0.000 A 
ATOM      4  C   UNL     1      44.460   5.056  12.147  0.00  0.00    +0.000 A 
ATOM      5  C   UNL     1      44.722   4.919  10.779  0.00  0.00    +0.000 A 
ATOM      6  C   UNL     1      45.705   5.733  10.200  0.00  0.00    +0.000 A 
ATOM      7  C   UNL     1      46.445   6.626  10.985  0.00  0.00    +0.000 A 
BRANCH   5   8
ATOM      8  C   UNL     1      43.958   3.921   9.946  0.00  0.00    +0.000 C 
BRANCH   8   9
ATOM      9  N   UNL     1      44.662   3.591   8.732  0.00  0.00    +0.000 N 
ATOM     10  C   UNL     1      45.521   2.516   8.664  0.00  0.00    +0.000 C 
ATOM     11  O   UNL     1      45.670   1.716   9.576  0.00  0.00    +0.000 OA
ATOM     12  H   UNL     1      44.585   4.229   7.952  0.00  0.00    +0.000 HD
BRANCH  10  13
ATOM     13  C   UNL     1      46.244   2.322   7.373  0.00  0.00    +0.000 A 
ATOM     14  C   UNL     1      46.361   3.443   6.533  0.00  0.00    +0.000 A 
ATOM     15  C   UNL     1      47.075   3.368   5.334  0.00  0.00    +0.000 A 
ATOM     16  C   UNL     1      47.677   2.170   4.959  0.00  0.00    +0.000 A 
ATOM     17  C   UNL     1      47.536   1.041   5.765  0.00  0.00    +0.000 A 
ATOM     18  C   UNL     1      46.810   1.105   6.961  0.00  0.00    +0.000 A 
ATOM     19 CL   UNL     1      46.626  -0.382   7.826  0.00  0.00    +0.000 Cl
ENDBRANCH  10  13
ENDBRANCH   8   9
ENDBRANCH   5   8
ENDBRANCH   1   2
BRANCH   1  20
ATOM     20  N   UNL     1      47.383   7.068  14.487  0.00  0.00    +0.000 N 
ATOM     21  C   UNL     1      48.677   6.714  14.773  0.00  0.00    +0.000 C 
ATOM     22  O   UNL     1      49.602   6.926  13.995  0.00  0.00    +0.000 OA
ATOM     23  H   UNL     1      46.632   6.679  15.045  0.00  0.00    +0.000 HD
BRANCH  21  24
ATOM     24  C   UNL     1      48.919   6.154  16.109  0.00  0.00    +0.000 A 
ATOM     25  C   UNL     1      49.778   6.810  16.980  0.00  0.00    +0.000 A 
ATOM     26  S   UNL     1      49.902   6.067  18.509  0.00  0.00    +0.000 S 
ATOM     27  C   UNL     1      48.852   4.811  18.045  0.00  0.00    +0.000 A 
ATOM     28  N   UNL     1      48.544   3.804  18.904  0.00  0.00    +0.000 NA
ATOM     29  C   UNL     1      47.761   2.903  18.410  0.00  0.00    +0.000 A 
ATOM     30  N   UNL     1      47.253   2.923  17.137  0.00  0.00    +0.000 N 
ATOM     31  C   UNL     1      47.497   3.945  16.252  0.00  0.00    +0.000 A 
ATOM     32  O   UNL     1      46.962   3.978  15.151  0.00  0.00    +0.000 OA
ATOM     33  C   UNL     1      48.395   4.971  16.748  0.00  0.00    +0.000 A 
ATOM     34  H   UNL     1      46.631   2.195  16.817  0.00  0.00    +0.000 HD
ENDBRANCH  21  24
ENDBRANCH   1  20
BRANCH   1  35
ATOM     35  N   UNL     1      46.230   8.840  13.640  0.00  0.00    +0.000 NA
ATOM     36  H   UNL     1      45.254   8.547  13.640  0.00  0.00    +0.000 HD
ATOM     37  H   UNL     1      46.308   9.530  12.901  0.00  0.00    +0.000 HD
ENDBRANCH   1  35
TORSDOF 7
ENDMDL
MODEL 2
REMARK VINA RESULT:    -7.915      1.705      2.116
REMARK INTER + INTRA:         -11.969
REMARK INTER:                 -11.093
REMARK INTRA:                  -0.876
REMARK UNBOUND:                -1.047
REMARK  Name = 
REMARK  7 active torsions:
REMARK  status: ('A' for Active; 'I' for Inactive)
REMARK    1  A    between atoms: N_1  and  C_2
REMARK    2  A    between atoms: C_2  and  N_3
REMARK    3  A    between atoms: C_2  and  C_16
REMARK    4  A    between atoms: C_4  and  C_6
REMARK    5  A    between atoms: C_19  and  C_20
REMARK    6  A    between atoms: C_20  and  N_21
REMARK    7  A    between atoms: C_22  and  C_24
REMARK                            x       y       z     vdW  Elec       q    Type
REMARK                         _______ _______ _______ _____ _____    ______ ____
ROOT
ATOM      1  C   UNL     1      47.685   6.906  13.750  0.00  0.00    +0.000 C 
ENDROOT
BRANCH   1   2
ATOM      2  C   UNL     1      46.753   6.221  12.768  0.00  0.00    +0.000 A 
ATOM      3  C   UNL     1      45.989   5.121  13.191  0.00  0.00    +0.000 A 
ATOM      4  C   UNL     1      45.139   4.448  12.305  0.00  0.00    +0.000 A 
ATOM      5  C   UNL     1      45.038   4.849  10.967  0.00  0.00    +0.000 A 
ATOM      6  C   UNL     1      45.768   5.968  10.547  0.00  0.00    +0.000 A 
ATOM      7  C   UNL     1      46.621   6.638  11.433  0.00  0.00    +0.000 A 
BRANCH   5   8
ATOM      8  C   UNL     1      44.157   4.095  10.004  0.00  0.00    +0.000 C 
BRANCH   8   9
ATOM      9  N   UNL     1      44.860   3.763   8.789  0.00  0.00    +0.000 N 
ATOM     10  C   UNL     1      45.522   2.564   8.641  0.00  0.00    +0.000 C 
ATOM     11  O   UNL     1      45.479   1.666   9.470  0.00  0.00    +0.000 OA
ATOM     12  H   UNL     1      44.938   4.477   8.077  0.00  0.00    +0.000 HD
BRANCH  10  13
ATOM     13  C   UNL     1      46.271   2.369   7.365  0.00  0.00    +0.000 A 
ATOM     14  C   UNL     1      46.418   3.494   6.535  0.00  0.00    +0.000 A 
ATOM     15  C   UNL     1      47.157   3.418   5.351  0.00  0.00    +0.000 A 
ATOM     16  C   UNL     1      47.755   2.216   4.982  0.00  0.00    +0.000 A 
ATOM     17  C   UNL     1      47.584   1.083   5.778  0.00  0.00    +0.000 A 
ATOM     18  C   UNL     1      46.833   1.149   6.958  0.00  0.00    +0.000 A 
ATOM     19 CL   UNL     1      46.614  -0.340   7.811  0.00  0.00    +0.000 Cl
ENDBRANCH  10  13
ENDBRANCH   8   9
ENDBRANCH   5   8
ENDBRANCH   1   2
BRANCH   1  20
ATOM     20  N   UNL     1      47.714   6.245  15.016  0.00  0.00    +0.000 N 
ATOM     21  C   UNL     1      48.759   6.377  15.894  0.00  0.00    +0.000 C 
ATOM     22  O   UNL     1      49.727   7.095  15.659  0.00  0.00    +0.000 OA
ATOM     23  H   UNL     1      47.058   5.484  15.144  0.00  0.00    +0.000 HD
BRANCH  21  24
ATOM     24  C   UNL     1      48.617   5.690  17.185  0.00  0.00    +0.000 A 
ATOM     25  C   UNL     1      48.881   4.330  17.268  0.00  0.00    +0.000 A 
ATOM     26  S   UNL     1      48.732   3.698  18.843  0.00  0.00    +0.000 S 
ATOM     27  C   UNL     1      48.259   5.210  19.464  0.00  0.00    +0.000 A 
ATOM     28  N   UNL     1      47.952   5.361  20.780  0.00  0.00    +0.000 NA
ATOM     29  C   UNL     1      47.580   6.554  21.106  0.00  0.00    +0.000 A 
ATOM     30  N   UNL     1      47.493   7.610  20.237  0.00  0.00    +0.000 N 
ATOM     31  C   UNL     1      47.838   7.516  18.910  0.00  0.00    +0.000 A 
ATOM     32  O   UNL     1      47.829   8.496  18.177  0.00  0.00    +0.000 OA
ATOM     33  C   UNL     1      48.237   6.188  18.485  0.00  0.00    +0.000 A 
ATOM     34  H   UNL     1      47.210   8.524  20.560  0.00  0.00    +0.000 HD
ENDBRANCH  21  24
ENDBRANCH   1  20
BRANCH   1  35
ATOM     35  N   UNL     1      47.247   8.254  14.049  0.00  0.00    +0.000 NA
ATOM     36  H   UNL     1      47.807   8.876  13.469  0.00  0.00    +0.000 HD
ATOM     37  H   UNL     1      47.510   8.463  15.006  0.00  0.00    +0.000 HD
ENDBRANCH   1  35
TORSDOF 7
ENDMDL
MODEL 3
REMARK VINA RESULT:    -7.774      1.938      3.464
REMARK INTER + INTRA:         -11.775
REMARK INTER:                 -10.748
REMARK INTRA:                  -1.027
REMARK UNBOUND:                -1.047
REMARK  Name = 
REMARK  7 active torsions:
REMARK  status: ('A' for Active; 'I' for Inactive)
REMARK    1  A    between atoms: N_1  and  C_2
REMARK    2  A    between atoms: C_2  and  N_3
REMARK    3  A    between atoms: C_2  and  C_16
REMARK    4  A    between atoms: C_4  and  C_6
REMARK    5  A    between atoms: C_19  and  C_20
REMARK    6  A    between atoms: C_20  and  N_21
REMARK    7  A    between atoms: C_22  and  C_24
REMARK                            x       y       z     vdW  Elec       q    Type
REMARK                         _______ _______ _______ _____ _____    ______ ____
ROOT
ATOM      1  C   UNL     1      46.659   4.265  14.728  0.00  0.00    +0.000 C 
ENDROOT
BRANCH   1   2
ATOM      2  C   UNL     1      45.962   4.373  13.384  0.00  0.00    +0.000 A 
ATOM      3  C   UNL     1      45.537   3.205  12.730  0.00  0.00    +0.000 A 
ATOM      4  C   UNL     1      44.915   3.265  11.477  0.00  0.00    +0.000 A 
ATOM      5  C   UNL     1      44.710   4.494  10.838  0.00  0.00    +0.000 A 
ATOM      6  C   UNL     1      45.097   5.666  11.501  0.00  0.00    +0.000 A 
ATOM      7  C   UNL     1      45.723   5.605  12.752  0.00  0.00    +0.000 A 
BRANCH   5   8
ATOM      8  C   UNL     1      44.081   4.553   9.469  0.00  0.00    +0.000 C 
BRANCH   8   9
ATOM      9  N   UNL     1      44.720   3.643   8.551  0.00  0.00    +0.000 N 
ATOM     10  C   UNL     1      45.880   3.979   7.889  0.00  0.00    +0.000 C 
ATOM     11  O   UNL     1      46.500   5.012   8.102  0.00  0.00    +0.000 OA
ATOM     12  H   UNL     1      44.241   2.781   8.328  0.00  0.00    +0.000 HD
BRANCH  10  13
ATOM     13  C   UNL     1      46.405   2.981   6.912  0.00  0.00    +0.000 A 
ATOM     14  C   UNL     1      46.822   3.472   5.662  0.00  0.00    +0.000 A 
ATOM     15  C   UNL     1      47.384   2.618   4.709  0.00  0.00    +0.000 A 
ATOM     16  C   UNL     1      47.531   1.263   4.993  0.00  0.00    +0.000 A 
ATOM     17  C   UNL     1      47.086   0.757   6.214  0.00  0.00    +0.000 A 
ATOM     18  C   UNL     1      46.509   1.604   7.169  0.00  0.00    +0.000 A 
ATOM     19 CL   UNL     1      45.910   0.848   8.604  0.00  0.00    +0.000 Cl
ENDBRANCH  10  13
ENDBRANCH   8   9
ENDBRANCH   5   8
ENDBRANCH   1   2
BRANCH   1  20
ATOM     20  N   UNL     1      47.412   5.437  15.041  0.00  0.00    +0.000 N 
ATOM     21  C   UNL     1      48.192   5.536  16.165  0.00  0.00    +0.000 C 
ATOM     22  O   UNL     1      48.315   4.611  16.962  0.00  0.00    +0.000 OA
ATOM     23  H   UNL     1      47.162   6.282  14.540  0.00  0.00    +0.000 HD
BRANCH  21  24
ATOM     24  C   UNL     1      48.960   6.779  16.318  0.00  0.00    +0.000 A 
ATOM     25  C   UNL     1      49.116   7.335  17.580  0.00  0.00    +0.000 A 
ATOM     26  S   UNL     1      50.083   8.738  17.596  0.00  0.00    +0.000 S 
ATOM     27  C   UNL     1      50.287   8.683  15.908  0.00  0.00    +0.000 A 
ATOM     28  N   UNL     1      51.011   9.633  15.259  0.00  0.00    +0.000 NA
ATOM     29  C   UNL     1      51.057   9.485  13.977  0.00  0.00    +0.000 A 
ATOM     30  N   UNL     1      50.450   8.469  13.286  0.00  0.00    +0.000 N 
ATOM     31  C   UNL     1      49.749   7.461  13.903  0.00  0.00    +0.000 A 
ATOM     32  O   UNL     1      49.289   6.522  13.267  0.00  0.00    +0.000 OA
ATOM     33  C   UNL     1      49.644   7.595  15.344  0.00  0.00    +0.000 A 
ATOM     34  H   UNL     1      50.539   8.401  12.282  0.00  0.00    +0.000 HD
ENDBRANCH  21  24
ENDBRANCH   1  20
BRANCH   1  35
ATOM     35  N   UNL     1      47.631   3.190  14.740  0.00  0.00    +0.000 NA
ATOM     36  H   UNL     1      47.943   3.093  15.706  0.00  0.00    +0.000 HD
ATOM     37  H   UNL     1      48.444   3.499  14.220  0.00  0.00    +0.000 HD
ENDBRANCH   1  35
TORSDOF 7
ENDMDL
MODEL 4
REMARK VINA RESULT:    -7.700      3.362      5.179
REMARK INTER + INTRA:         -11.673
REMARK INTER:                 -10.623
REMARK INTRA:                  -1.050
REMARK UNBOUND:                -1.047
REMARK  Name = 
REMARK  7 active torsions:
REMARK  status: ('A' for Active; 'I' for Inactive)
REMARK    1  A    between atoms: N_1  and  C_2
REMARK    2  A    between atoms: C_2  and  N_3
REMARK    3  A    between atoms: C_2  and  C_16
REMARK    4  A    between atoms: C_4  and  C_6
REMARK    5  A    between atoms: C_19  and  C_20
REMARK    6  A    between atoms: C_20  and  N_21
REMARK    7  A    between atoms: C_22  and  C_24
REMARK                            x       y       z     vdW  Elec       q    Type
REMARK                         _______ _______ _______ _____ _____    ______ ____
ROOT
ATOM      1  C   UNL     1      47.918   3.979  17.750  0.00  0.00    +0.000 C 
ENDROOT
BRANCH   1   2
ATOM      2  C   UNL     1      47.727   4.649  16.402  0.00  0.00    +0.000 A 
ATOM      3  C   UNL     1      48.407   5.846  16.122  0.00  0.00    +0.000 A 
ATOM      4  C   UNL     1      48.234   6.505  14.900  0.00  0.00    +0.000 A 
ATOM      5  C   UNL     1      47.368   5.994  13.927  0.00  0.00    +0.000 A 
ATOM      6  C   UNL     1      46.715   4.781  14.183  0.00  0.00    +0.000 A 
ATOM      7  C   UNL     1      46.885   4.123  15.408  0.00  0.00    +0.000 A 
BRANCH   5   8
ATOM      8  C   UNL     1      47.148   6.730  12.629  0.00  0.00    +0.000 C 
BRANCH   8   9
ATOM      9  N   UNL     1      46.801   5.829  11.559  0.00  0.00    +0.000 N 
ATOM     10  C   UNL     1      45.501   5.685  11.126  0.00  0.00    +0.000 C 
ATOM     11  O   UNL     1      44.577   6.372  11.538  0.00  0.00    +0.000 OA
ATOM     12  H   UNL     1      47.526   5.227  11.193  0.00  0.00    +0.000 HD
BRANCH  10  13
ATOM     13  C   UNL     1      45.261   4.669  10.060  0.00  0.00    +0.000 A 
ATOM     14  C   UNL     1      45.847   4.913   8.805  0.00  0.00    +0.000 A 
ATOM     15  C   UNL     1      45.726   3.985   7.767  0.00  0.00    +0.000 A 
ATOM     16  C   UNL     1      45.015   2.805   7.970  0.00  0.00    +0.000 A 
ATOM     17  C   UNL     1      44.397   2.570   9.198  0.00  0.00    +0.000 A 
ATOM     18  C   UNL     1      44.502   3.502  10.238  0.00  0.00    +0.000 A 
ATOM     19 CL   UNL     1      43.615   3.145  11.680  0.00  0.00    +0.000 Cl
ENDBRANCH  10  13
ENDBRANCH   8   9
ENDBRANCH   5   8
ENDBRANCH   1   2
BRANCH   1  20
ATOM     20  N   UNL     1      49.264   3.543  17.950  0.00  0.00    +0.000 N 
ATOM     21  C   UNL     1      49.844   2.562  17.188  0.00  0.00    +0.000 C 
ATOM     22  O   UNL     1      49.250   2.012  16.265  0.00  0.00    +0.000 OA
ATOM     23  H   UNL     1      49.698   3.806  18.828  0.00  0.00    +0.000 HD
BRANCH  21  24
ATOM     24  C   UNL     1      51.255   2.268  17.468  0.00  0.00    +0.000 A 
ATOM     25  C   UNL     1      51.674   0.947  17.556  0.00  0.00    +0.000 A 
ATOM     26  S   UNL     1      53.349   0.776  17.822  0.00  0.00    +0.000 S 
ATOM     27  C   UNL     1      53.567   2.463  17.881  0.00  0.00    +0.000 A 
ATOM     28  N   UNL     1      54.795   3.001  18.107  0.00  0.00    +0.000 NA
ATOM     29  C   UNL     1      54.809   4.292  18.157  0.00  0.00    +0.000 A 
ATOM     30  N   UNL     1      53.708   5.092  17.995  0.00  0.00    +0.000 N 
ATOM     31  C   UNL     1      52.458   4.594  17.718  0.00  0.00    +0.000 A 
ATOM     32  O   UNL     1      51.510   5.337  17.495  0.00  0.00    +0.000 OA
ATOM     33  C   UNL     1      52.381   3.146  17.678  0.00  0.00    +0.000 A 
ATOM     34  H   UNL     1      53.791   6.098  18.029  0.00  0.00    +0.000 HD
ENDBRANCH  21  24
ENDBRANCH   1  20
BRANCH   1  35
ATOM     35  N   UNL     1      47.121   2.774  17.865  0.00  0.00    +0.000 NA
ATOM     36  H   UNL     1      46.750   2.583  16.935  0.00  0.00    +0.000 HD
ATOM     37  H   UNL     1      46.315   2.988  18.442  0.00  0.00    +0.000 HD
ENDBRANCH   1  35
TORSDOF 7
ENDMDL
MODEL 5
REMARK VINA RESULT:    -7.593      3.733      5.245
REMARK INTER + INTRA:         -11.525
REMARK INTER:                 -10.259
REMARK INTRA:                  -1.267
REMARK UNBOUND:                -1.047
REMARK  Name = 
REMARK  7 active torsions:
REMARK  status: ('A' for Active; 'I' for Inactive)
REMARK    1  A    between atoms: N_1  and  C_2
REMARK    2  A    between atoms: C_2  and  N_3
REMARK    3  A    between atoms: C_2  and  C_16
REMARK    4  A    between atoms: C_4  and  C_6
REMARK    5  A    between atoms: C_19  and  C_20
REMARK    6  A    between atoms: C_20  and  N_21
REMARK    7  A    between atoms: C_22  and  C_24
REMARK                            x       y       z     vdW  Elec       q    Type
REMARK                         _______ _______ _______ _____ _____    ______ ____
ROOT
ATOM      1  C   UNL     1      48.812   4.604  17.741  0.00  0.00    +0.000 C 
ENDROOT
BRANCH   1   2
ATOM      2  C   UNL     1      48.321   5.154  16.415  0.00  0.00    +0.000 A 
ATOM      3  C   UNL     1      48.818   6.382  15.947  0.00  0.00    +0.000 A 
ATOM      4  C   UNL     1      48.368   6.932  14.742  0.00  0.00    +0.000 A 
ATOM      5  C   UNL     1      47.399   6.276  13.974  0.00  0.00    +0.000 A 
ATOM      6  C   UNL     1      46.925   5.033  14.414  0.00  0.00    +0.000 A 
ATOM      7  C   UNL     1      47.373   4.484  15.622  0.00  0.00    +0.000 A 
BRANCH   5   8
ATOM      8  C   UNL     1      46.882   6.892  12.699  0.00  0.00    +0.000 C 
BRANCH   8   9
ATOM      9  N   UNL     1      46.565   5.888  11.713  0.00  0.00    +0.000 N 
ATOM     10  C   UNL     1      45.283   5.718  11.240  0.00  0.00    +0.000 C 
ATOM     11  O   UNL     1      44.354   6.456  11.537  0.00  0.00    +0.000 OA
ATOM     12  H   UNL     1      47.294   5.241  11.445  0.00  0.00    +0.000 HD
BRANCH  10  13
ATOM     13  C   UNL     1      45.070   4.599  10.276  0.00  0.00    +0.000 A 
ATOM     14  C   UNL     1      45.552   4.786   8.968  0.00  0.00    +0.000 A 
ATOM     15  C   UNL     1      45.451   3.768   8.017  0.00  0.00    +0.000 A 
ATOM     16  C   UNL     1      44.865   2.552   8.360  0.00  0.00    +0.000 A 
ATOM     17  C   UNL     1      44.349   2.369   9.643  0.00  0.00    +0.000 A 
ATOM     18  C   UNL     1      44.433   3.390  10.597  0.00  0.00    +0.000 A 
ATOM     19 CL   UNL     1      43.675   3.080  12.121  0.00  0.00    +0.000 Cl
ENDBRANCH  10  13
ENDBRANCH   8   9
ENDBRANCH   5   8
ENDBRANCH   1   2
BRANCH   1  20
ATOM     20  N   UNL     1      50.161   4.143  17.667  0.00  0.00    +0.000 N 
ATOM     21  C   UNL     1      51.030   4.226  18.725  0.00  0.00    +0.000 C 
ATOM     22  O   UNL     1      50.694   4.679  19.816  0.00  0.00    +0.000 OA
ATOM     23  H   UNL     1      50.532   3.977  16.739  0.00  0.00    +0.000 HD
BRANCH  21  24
ATOM     24  C   UNL     1      52.365   3.648  18.520  0.00  0.00    +0.000 A 
ATOM     25  C   UNL     1      53.489   4.384  18.870  0.00  0.00    +0.000 A 
ATOM     26  S   UNL     1      54.955   3.551  18.629  0.00  0.00    +0.000 S 
ATOM     27  C   UNL     1      54.144   2.194  17.998  0.00  0.00    +0.000 A 
ATOM     28  N   UNL     1      54.834   1.104  17.569  0.00  0.00    +0.000 NA
ATOM     29  C   UNL     1      54.094   0.162  17.086  0.00  0.00    +0.000 A 
ATOM     30  N   UNL     1      52.726   0.209  17.001  0.00  0.00    +0.000 N 
ATOM     31  C   UNL     1      51.985   1.269  17.466  0.00  0.00    +0.000 A 
ATOM     32  O   UNL     1      50.761   1.246  17.453  0.00  0.00    +0.000 OA
ATOM     33  C   UNL     1      52.771   2.368  17.994  0.00  0.00    +0.000 A 
ATOM     34  H   UNL     1      52.205  -0.570  16.627  0.00  0.00    +0.000 HD
ENDBRANCH  21  24
ENDBRANCH   1  20
BRANCH   1  35
ATOM     35  N   UNL     1      48.048   3.444  18.154  0.00  0.00    +0.000 NA
ATOM     36  H   UNL     1      48.113   2.770  17.392  0.00  0.00    +0.000 HD
ATOM     37  H   UNL     1      47.072   3.713  18.198  0.00  0.00    +0.000 HD
ENDBRANCH   1  35
TORSDOF 7
ENDMDL
MODEL 6
REMARK VINA RESULT:    -7.223      3.729      5.324
REMARK INTER + INTRA:         -11.015
REMARK INTER:                  -9.724
REMARK INTRA:                  -1.291
REMARK UNBOUND:                -1.047
REMARK  Name = 
REMARK  7 active torsions:
REMARK  status: ('A' for Active; 'I' for Inactive)
REMARK    1  A    between atoms: N_1  and  C_2
REMARK    2  A    between atoms: C_2  and  N_3
REMARK    3  A    between atoms: C_2  and  C_16
REMARK    4  A    between atoms: C_4  and  C_6
REMARK    5  A    between atoms: C_19  and  C_20
REMARK    6  A    between atoms: C_20  and  N_21
REMARK    7  A    between atoms: C_22  and  C_24
REMARK                            x       y       z     vdW  Elec       q    Type
REMARK                         _______ _______ _______ _____ _____    ______ ____
ROOT
ATOM      1  C   UNL     1      46.511   8.747  13.033  0.00  0.00    +0.000 C 
ENDROOT
BRANCH   1   2
ATOM      2  C   UNL     1      45.900   7.406  12.671  0.00  0.00    +0.000 A 
ATOM      3  C   UNL     1      46.405   6.235  13.260  0.00  0.00    +0.000 A 
ATOM      4  C   UNL     1      45.884   4.978  12.930  0.00  0.00    +0.000 A 
ATOM      5  C   UNL     1      44.851   4.855  11.994  0.00  0.00    +0.000 A 
ATOM      6  C   UNL     1      44.316   6.021  11.430  0.00  0.00    +0.000 A 
ATOM      7  C   UNL     1      44.840   7.278  11.758  0.00  0.00    +0.000 A 
BRANCH   5   8
ATOM      8  C   UNL     1      44.322   3.497  11.606  0.00  0.00    +0.000 C 
BRANCH   8   9
ATOM      9  N   UNL     1      45.159   2.863  10.618  0.00  0.00    +0.000 N 
ATOM     10  C   UNL     1      44.977   3.079   9.270  0.00  0.00    +0.000 C 
ATOM     11  O   UNL     1      44.176   3.886   8.821  0.00  0.00    +0.000 OA
ATOM     12  H   UNL     1      45.828   2.175  10.936  0.00  0.00    +0.000 HD
BRANCH  10  13
ATOM     13  C   UNL     1      45.861   2.310   8.346  0.00  0.00    +0.000 A 
ATOM     14  C   UNL     1      45.791   0.907   8.418  0.00  0.00    +0.000 A 
ATOM     15  C   UNL     1      46.537   0.108   7.548  0.00  0.00    +0.000 A 
ATOM     16  C   UNL     1      47.365   0.701   6.599  0.00  0.00    +0.000 A 
ATOM     17  C   UNL     1      47.473   2.090   6.543  0.00  0.00    +0.000 A 
ATOM     18  C   UNL     1      46.739   2.898   7.421  0.00  0.00    +0.000 A 
ATOM     19 CL   UNL     1      47.026   4.600   7.319  0.00  0.00    +0.000 Cl
ENDBRANCH  10  13
ENDBRANCH   8   9
ENDBRANCH   5   8
ENDBRANCH   1   2
BRANCH   1  20
ATOM     20  N   UNL     1      47.673   9.038  12.255  0.00  0.00    +0.000 N 
ATOM     21  C   UNL     1      48.230  10.289  12.199  0.00  0.00    +0.000 C 
ATOM     22  O   UNL     1      47.780  11.237  12.837  0.00  0.00    +0.000 OA
ATOM     23  H   UNL     1      47.931   8.353  11.555  0.00  0.00    +0.000 HD
BRANCH  21  24
ATOM     24  C   UNL     1      49.463  10.419  11.411  0.00  0.00    +0.000 A 
ATOM     25  C   UNL     1      49.591  11.469  10.511  0.00  0.00    +0.000 A 
ATOM     26  S   UNL     1      51.101  11.515   9.723  0.00  0.00    +0.000 S 
ATOM     27  C   UNL     1      51.621  10.103  10.519  0.00  0.00    +0.000 A 
ATOM     28  N   UNL     1      52.849   9.574  10.273  0.00  0.00    +0.000 NA
ATOM     29  C   UNL     1      53.099   8.485  10.922  0.00  0.00    +0.000 A 
ATOM     30  N   UNL     1      52.235   7.883  11.799  0.00  0.00    +0.000 N 
ATOM     31  C   UNL     1      51.004   8.408  12.114  0.00  0.00    +0.000 A 
ATOM     32  O   UNL     1      50.289   7.892  12.963  0.00  0.00    +0.000 OA
ATOM     33  C   UNL     1      50.662   9.617  11.390  0.00  0.00    +0.000 A 
ATOM     34  H   UNL     1      52.499   7.040  12.288  0.00  0.00    +0.000 HD
ENDBRANCH  21  24
ENDBRANCH   1  20
BRANCH   1  35
ATOM     35  N   UNL     1      46.971   8.771  14.406  0.00  0.00    +0.000 NA
ATOM     36  H   UNL     1      46.730   9.689  14.777  0.00  0.00    +0.000 HD
ATOM     37  H   UNL     1      47.984   8.738  14.396  0.00  0.00    +0.000 HD
ENDBRANCH   1  35
TORSDOF 7
ENDMDL
MODEL 7
REMARK VINA RESULT:    -7.217      3.879      9.112
REMARK INTER + INTRA:         -11.006
REMARK INTER:                  -9.837
REMARK INTRA:                  -1.169
REMARK UNBOUND:                -1.047
REMARK  Name = 
REMARK  7 active torsions:
REMARK  status: ('A' for Active; 'I' for Inactive)
REMARK    1  A    between atoms: N_1  and  C_2
REMARK    2  A    between atoms: C_2  and  N_3
REMARK    3  A    between atoms: C_2  and  C_16
REMARK    4  A    between atoms: C_4  and  C_6
REMARK    5  A    between atoms: C_19  and  C_20
REMARK    6  A    between atoms: C_20  and  N_21
REMARK    7  A    between atoms: C_22  and  C_24
REMARK                            x       y       z     vdW  Elec       q    Type
REMARK                         _______ _______ _______ _____ _____    ______ ____
ROOT
ATOM      1  C   UNL     1      47.760   7.612  12.680  0.00  0.00    +0.000 C 
ENDROOT
BRANCH   1   2
ATOM      2  C   UNL     1      48.721   7.421  13.839  0.00  0.00    +0.000 A 
ATOM      3  C   UNL     1      49.988   8.026  13.795  0.00  0.00    +0.000 A 
ATOM      4  C   UNL     1      50.910   7.849  14.833  0.00  0.00    +0.000 A 
ATOM      5  C   UNL     1      50.596   7.053  15.941  0.00  0.00    +0.000 A 
ATOM      6  C   UNL     1      49.321   6.477  16.011  0.00  0.00    +0.000 A 
ATOM      7  C   UNL     1      48.400   6.651  14.970  0.00  0.00    +0.000 A 
BRANCH   5   8
ATOM      8  C   UNL     1      51.607   6.827  17.036  0.00  0.00    +0.000 C 
BRANCH   8   9
ATOM      9  N   UNL     1      52.067   5.461  17.061  0.00  0.00    +0.000 N 
ATOM     10  C   UNL     1      51.599   4.557  17.989  0.00  0.00    +0.000 C 
ATOM     11  O   UNL     1      50.701   4.810  18.780  0.00  0.00    +0.000 OA
ATOM     12  H   UNL     1      52.820   5.203  16.438  0.00  0.00    +0.000 HD
BRANCH  10  13
ATOM     13  C   UNL     1      52.205   3.193  17.957  0.00  0.00    +0.000 A 
ATOM     14  C   UNL     1      53.548   3.084  18.359  0.00  0.00    +0.000 A 
ATOM     15  C   UNL     1      54.177   1.838  18.419  0.00  0.00    +0.000 A 
ATOM     16  C   UNL     1      53.473   0.687  18.075  0.00  0.00    +0.000 A 
ATOM     17  C   UNL     1      52.152   0.787  17.637  0.00  0.00    +0.000 A 
ATOM     18  C   UNL     1      51.519   2.034  17.561  0.00  0.00    +0.000 A 
ATOM     19 CL   UNL     1      49.914   2.041  16.917  0.00  0.00    +0.000 Cl
ENDBRANCH  10  13
ENDBRANCH   8   9
ENDBRANCH   5   8
ENDBRANCH   1   2
BRANCH   1  20
ATOM     20  N   UNL     1      46.972   6.447  12.435  0.00  0.00    +0.000 N 
ATOM     21  C   UNL     1      45.745   6.500  11.826  0.00  0.00    +0.000 C 
ATOM     22  O   UNL     1      45.256   7.553  11.427  0.00  0.00    +0.000 OA
ATOM     23  H   UNL     1      47.233   5.610  12.943  0.00  0.00    +0.000 HD
BRANCH  21  24
ATOM     24  C   UNL     1      45.082   5.212  11.582  0.00  0.00    +0.000 A 
ATOM     25  C   UNL     1      44.367   4.606  12.606  0.00  0.00    +0.000 A 
ATOM     26  S   UNL     1      43.607   3.153  12.144  0.00  0.00    +0.000 S 
ATOM     27  C   UNL     1      44.249   3.253  10.571  0.00  0.00    +0.000 A 
ATOM     28  N   UNL     1      43.996   2.286   9.649  0.00  0.00    +0.000 NA
ATOM     29  C   UNL     1      44.571   2.474   8.508  0.00  0.00    +0.000 A 
ATOM     30  N   UNL     1      45.371   3.545   8.204  0.00  0.00    +0.000 N 
ATOM     31  C   UNL     1      45.616   4.568   9.088  0.00  0.00    +0.000 A 
ATOM     32  O   UNL     1      46.266   5.553   8.760  0.00  0.00    +0.000 OA
ATOM     33  C   UNL     1      45.014   4.392  10.396  0.00  0.00    +0.000 A 
ATOM     34  H   UNL     1      45.779   3.641   7.286  0.00  0.00    +0.000 HD
ENDBRANCH  21  24
ENDBRANCH   1  20
BRANCH   1  35
ATOM     35  N   UNL     1      48.465   7.848  11.436  0.00  0.00    +0.000 NA
ATOM     36  H   UNL     1      48.213   7.083  10.811  0.00  0.00    +0.000 HD
ATOM     37  H   UNL     1      49.457   7.739  11.614  0.00  0.00    +0.000 HD
ENDBRANCH   1  35
TORSDOF 7
ENDMDL
MODEL 8
REMARK VINA RESULT:    -7.199      1.770      2.063
REMARK INTER + INTRA:         -10.982
REMARK INTER:                 -10.640
REMARK INTRA:                  -0.342
REMARK UNBOUND:                -1.047
REMARK  Name = 
REMARK  7 active torsions:
REMARK  status: ('A' for Active; 'I' for Inactive)
REMARK    1  A    between atoms: N_1  and  C_2
REMARK    2  A    between atoms: C_2  and  N_3
REMARK    3  A    between atoms: C_2  and  C_16
REMARK    4  A    between atoms: C_4  and  C_6
REMARK    5  A    between atoms: C_19  and  C_20
REMARK    6  A    between atoms: C_20  and  N_21
REMARK    7  A    between atoms: C_22  and  C_24
REMARK                            x       y       z     vdW  Elec       q    Type
REMARK                         _______ _______ _______ _____ _____    ______ ____
ROOT
ATOM      1  C   UNL     1      47.888   8.189  13.804  0.00  0.00    +0.000 C 
ENDROOT
BRANCH   1   2
ATOM      2  C   UNL     1      46.870   7.402  12.999  0.00  0.00    +0.000 A 
ATOM      3  C   UNL     1      46.863   6.000  13.073  0.00  0.00    +0.000 A 
ATOM      4  C   UNL     1      45.956   5.241  12.324  0.00  0.00    +0.000 A 
ATOM      5  C   UNL     1      45.036   5.863  11.471  0.00  0.00    +0.000 A 
ATOM      6  C   UNL     1      45.011   7.263  11.420  0.00  0.00    +0.000 A 
ATOM      7  C   UNL     1      45.922   8.021  12.167  0.00  0.00    +0.000 A 
BRANCH   5   8
ATOM      8  C   UNL     1      44.091   5.042  10.631  0.00  0.00    +0.000 C 
BRANCH   8   9
ATOM      9  N   UNL     1      44.786   4.009   9.904  0.00  0.00    +0.000 N 
ATOM     10  C   UNL     1      45.577   4.298   8.814  0.00  0.00    +0.000 C 
ATOM     11  O   UNL     1      45.827   5.438   8.450  0.00  0.00    +0.000 OA
ATOM     12  H   UNL     1      44.601   3.047  10.155  0.00  0.00    +0.000 HD
BRANCH  10  13
ATOM     13  C   UNL     1      46.185   3.135   8.104  0.00  0.00    +0.000 A 
ATOM     14  C   UNL     1      47.199   3.418   7.172  0.00  0.00    +0.000 A 
ATOM     15  C   UNL     1      47.867   2.387   6.506  0.00  0.00    +0.000 A 
ATOM     16  C   UNL     1      47.527   1.061   6.761  0.00  0.00    +0.000 A 
ATOM     17  C   UNL     1      46.496   0.769   7.655  0.00  0.00    +0.000 A 
ATOM     18  C   UNL     1      45.813   1.798   8.315  0.00  0.00    +0.000 A 
ATOM     19 CL   UNL     1      44.494   1.317   9.326  0.00  0.00    +0.000 Cl
ENDBRANCH  10  13
ENDBRANCH   8   9
ENDBRANCH   5   8
ENDBRANCH   1   2
BRANCH   1  20
ATOM     20  N   UNL     1      47.806   7.905  15.201  0.00  0.00    +0.000 N 
ATOM     21  C   UNL     1      48.886   7.486  15.934  0.00  0.00    +0.000 C 
ATOM     22  O   UNL     1      50.002   7.352  15.440  0.00  0.00    +0.000 OA
ATOM     23  H   UNL     1      46.876   7.787  15.585  0.00  0.00    +0.000 HD
BRANCH  21  24
ATOM     24  C   UNL     1      48.664   7.298  17.374  0.00  0.00    +0.000 A 
ATOM     25  C   UNL     1      48.264   8.377  18.150  0.00  0.00    +0.000 A 
ATOM     26  S   UNL     1      47.987   7.981  19.784  0.00  0.00    +0.000 S 
ATOM     27  C   UNL     1      48.443   6.362  19.525  0.00  0.00    +0.000 A 
ATOM     28  N   UNL     1      48.451   5.466  20.547  0.00  0.00    +0.000 NA
ATOM     29  C   UNL     1      48.847   4.282  20.215  0.00  0.00    +0.000 A 
ATOM     30  N   UNL     1      49.229   3.913  18.951  0.00  0.00    +0.000 N 
ATOM     31  C   UNL     1      49.191   4.771  17.879  0.00  0.00    +0.000 A 
ATOM     32  O   UNL     1      49.458   4.390  16.747  0.00  0.00    +0.000 OA
ATOM     33  C   UNL     1      48.779   6.124  18.204  0.00  0.00    +0.000 A 
ATOM     34  H   UNL     1      49.513   2.964  18.754  0.00  0.00    +0.000 HD
ENDBRANCH  21  24
ENDBRANCH   1  20
BRANCH   1  35
ATOM     35  N   UNL     1      47.659   9.616  13.704  0.00  0.00    +0.000 NA
ATOM     36  H   UNL     1      47.192   9.773  12.812  0.00  0.00    +0.000 HD
ATOM     37  H   UNL     1      48.562  10.071  13.623  0.00  0.00    +0.000 HD
ENDBRANCH   1  35
TORSDOF 7
ENDMDL
MODEL 9
REMARK VINA RESULT:    -7.003      4.931     10.934
REMARK INTER + INTRA:         -10.711
REMARK INTER:                  -9.523
REMARK INTRA:                  -1.188
REMARK UNBOUND:                -1.047
REMARK  Name = 
REMARK  7 active torsions:
REMARK  status: ('A' for Active; 'I' for Inactive)
REMARK    1  A    between atoms: N_1  and  C_2
REMARK    2  A    between atoms: C_2  and  N_3
REMARK    3  A    between atoms: C_2  and  C_16
REMARK    4  A    between atoms: C_4  and  C_6
REMARK    5  A    between atoms: C_19  and  C_20
REMARK    6  A    between atoms: C_20  and  N_21
REMARK    7  A    between atoms: C_22  and  C_24
REMARK                            x       y       z     vdW  Elec       q    Type
REMARK                         _______ _______ _______ _____ _____    ______ ____
ROOT
ATOM      1  C   UNL     1      47.507   3.406  16.578  0.00  0.00    +0.000 C 
ENDROOT
BRANCH   1   2
ATOM      2  C   UNL     1      48.922   3.740  17.014  0.00  0.00    +0.000 A 
ATOM      3  C   UNL     1      49.337   5.081  17.050  0.00  0.00    +0.000 A 
ATOM      4  C   UNL     1      50.642   5.424  17.421  0.00  0.00    +0.000 A 
ATOM      5  C   UNL     1      51.574   4.434  17.757  0.00  0.00    +0.000 A 
ATOM      6  C   UNL     1      51.157   3.097  17.760  0.00  0.00    +0.000 A 
ATOM      7  C   UNL     1      49.852   2.754  17.384  0.00  0.00    +0.000 A 
BRANCH   5   8
ATOM      8  C   UNL     1      52.992   4.803  18.112  0.00  0.00    +0.000 C 
BRANCH   8   9
ATOM      9  N   UNL     1      53.046   5.998  18.916  0.00  0.00    +0.000 N 
ATOM     10  C   UNL     1      52.897   5.957  20.284  0.00  0.00    +0.000 C 
ATOM     11  O   UNL     1      52.813   4.916  20.920  0.00  0.00    +0.000 OA
ATOM     12  H   UNL     1      53.099   6.888  18.438  0.00  0.00    +0.000 HD
BRANCH  10  13
ATOM     13  C   UNL     1      52.901   7.269  20.996  0.00  0.00    +0.000 A 
ATOM     14  C   UNL     1      54.105   7.657  21.608  0.00  0.00    +0.000 A 
ATOM     15  C   UNL     1      54.218   8.897  22.244  0.00  0.00    +0.000 A 
ATOM     16  C   UNL     1      53.126   9.761  22.277  0.00  0.00    +0.000 A 
ATOM     17  C   UNL     1      51.915   9.371  21.706  0.00  0.00    +0.000 A 
ATOM     18  C   UNL     1      51.791   8.125  21.080  0.00  0.00    +0.000 A 
ATOM     19 CL   UNL     1      50.216   7.714  20.493  0.00  0.00    +0.000 Cl
ENDBRANCH  10  13
ENDBRANCH   8   9
ENDBRANCH   5   8
ENDBRANCH   1   2
BRANCH   1  20
ATOM     20  N   UNL     1      46.972   4.385  15.685  0.00  0.00    +0.000 N 
ATOM     21  C   UNL     1      46.945   4.208  14.326  0.00  0.00    +0.000 C 
ATOM     22  O   UNL     1      47.355   3.183  13.789  0.00  0.00    +0.000 OA
ATOM     23  H   UNL     1      46.838   5.315  16.063  0.00  0.00    +0.000 HD
BRANCH  21  24
ATOM     24  C   UNL     1      46.304   5.273  13.543  0.00  0.00    +0.000 A 
ATOM     25  C   UNL     1      46.939   6.500  13.409  0.00  0.00    +0.000 A 
ATOM     26  S   UNL     1      46.097   7.603  12.421  0.00  0.00    +0.000 S 
ATOM     27  C   UNL     1      44.825   6.499  12.177  0.00  0.00    +0.000 A 
ATOM     28  N   UNL     1      43.744   6.831  11.423  0.00  0.00    +0.000 NA
ATOM     29  C   UNL     1      42.842   5.910  11.349  0.00  0.00    +0.000 A 
ATOM     30  N   UNL     1      42.928   4.683  11.955  0.00  0.00    +0.000 N 
ATOM     31  C   UNL     1      44.021   4.286  12.686  0.00  0.00    +0.000 A 
ATOM     32  O   UNL     1      44.105   3.154  13.145  0.00  0.00    +0.000 OA
ATOM     33  C   UNL     1      45.053   5.297  12.824  0.00  0.00    +0.000 A 
ATOM     34  H   UNL     1      42.193   4.000  11.843  0.00  0.00    +0.000 HD
ENDBRANCH  21  24
ENDBRANCH   1  20
BRANCH   1  35
ATOM     35  N   UNL     1      46.592   3.393  17.701  0.00  0.00    +0.000 NA
ATOM     36  H   UNL     1      46.231   2.443  17.770  0.00  0.00    +0.000 HD
ATOM     37  H   UNL     1      45.794   3.972  17.460  0.00  0.00    +0.000 HD
ENDBRANCH   1  35
TORSDOF 7
ENDMDL
