MODEL 1
REMARK VINA RESULT:    -7.396      0.000      0.000
REMARK INTER + INTRA:         -11.858
REMARK INTER:                 -10.855
REMARK INTRA:                  -1.003
REMARK UNBOUND:                -1.003
REMARK  Name = 
REMARK  9 active torsions:
REMARK  status: ('A' for Active; 'I' for Inactive)
REMARK    1  A    between atoms: C_1  and  C_2
REMARK    2  A    between atoms: C_2  and  O_3
REMARK    3  A    between atoms: O_3  and  C_4
REMARK    4  A    between atoms: C_6  and  C_7
REMARK    5  A    between atoms: C_12  and  N_13
REMARK    6  A    between atoms: N_13  and  C_14
REMARK    7  A    between atoms: C_14  and  C_15
REMARK    8  A    between atoms: C_15  and  C_16
REMARK    9  A    between atoms: C_20  and  C_21
REMARK                            x       y       z     vdW  Elec       q    Type
REMARK                         _______ _______ _______ _____ _____    ______ ____
ROOT
ATOM      1  N   UNL     1      47.019   3.863  15.682  0.00  0.00    +0.000 N 
ATOM      2  H   UNL     1      46.217   3.756  16.289  0.00  0.00    +0.000 HD
ENDROOT
BRANCH   1   8
ATOM      3  C   UNL     1      48.949   4.239  17.197  0.00  0.00    +0.000 A 
ATOM      4  C   UNL     1      50.123   3.683  17.716  0.00  0.00    +0.000 A 
ATOM      5  C   UNL     1      50.538   2.410  17.337  0.00  0.00    +0.000 A 
ATOM      6  C   UNL     1      49.751   1.740  16.419  0.00  0.00    +0.000 A 
ATOM      7  N   UNL     1      48.615   2.251  15.876  0.00  0.00    +0.000 NA
ATOM      8  C   UNL     1      48.207   3.485  16.263  0.00  0.00    +0.000 A 
BRANCH   5   9
ATOM      9  C   UNL     1      51.778   1.872  17.948  0.00  0.00    +0.000 C 
ATOM     10  N   UNL     1      51.926   0.522  18.082  0.00  0.00    +0.000 N 
ATOM     11  O   UNL     1      52.663   2.621  18.342  0.00  0.00    +0.000 OA
ATOM     12  H   UNL     1      51.252  -0.179  17.821  0.00  0.00    +0.000 HD
ATOM     13  H   UNL     1      52.783   0.212  18.524  0.00  0.00    +0.000 HD
ENDBRANCH   5   9
BRANCH   3  14
ATOM     14  O   UNL     1      48.510   5.490  17.558  0.00  0.00    +0.000 OA
BRANCH  14  16
ATOM     15  C   UNL     1      49.005   7.029  15.789  0.00  0.00    +0.000 C 
ATOM     16  C   UNL     1      49.331   6.604  17.207  0.00  0.00    +0.000 C 
ENDBRANCH  14  16
ENDBRANCH   3  14
ENDBRANCH   1   8
BRANCH   1  17
ATOM     17  C   UNL     1      46.853   4.097  14.266  0.00  0.00    +0.000 C 
BRANCH  17  18
ATOM     18  C   UNL     1      45.946   5.293  13.958  0.00  0.00    +0.000 C 
BRANCH  18  19
ATOM     19  C   UNL     1      44.977   4.887  12.866  0.00  0.00    +0.000 A 
ATOM     20  C   UNL     1      43.653   5.331  12.884  0.00  0.00    +0.000 A 
ATOM     21  C   UNL     1      42.824   5.089  11.791  0.00  0.00    +0.000 A 
ATOM     22  C   UNL     1      43.321   4.425  10.663  0.00  0.00    +0.000 A 
ATOM     23  C   UNL     1      44.657   3.993  10.596  0.00  0.00    +0.000 A 
ATOM     24  C   UNL     1      45.457   4.207  11.734  0.00  0.00    +0.000 A 
BRANCH  23  25
ATOM     25  C   UNL     1      45.247   3.447   9.350  0.00  0.00    +0.000 A 
ATOM     26  C   UNL     1      45.760   4.302   8.356  0.00  0.00    +0.000 A 
ATOM     27  C   UNL     1      46.426   3.803   7.232  0.00  0.00    +0.000 A 
ATOM     28  C   UNL     1      46.600   2.432   7.078  0.00  0.00    +0.000 A 
ATOM     29  C   UNL     1      46.084   1.561   8.031  0.00  0.00    +0.000 A 
ATOM     30  C   UNL     1      45.406   2.063   9.147  0.00  0.00    +0.000 A 
ENDBRANCH  23  25
ENDBRANCH  18  19
ENDBRANCH  17  18
ENDBRANCH   1  17
TORSDOF 8
ENDMDL
MODEL 2
REMARK VINA RESULT:    -7.363      2.326      3.505
REMARK INTER + INTRA:         -11.809
REMARK INTER:                 -10.760
REMARK INTRA:                  -1.050
REMARK UNBOUND:                -1.003
REMARK  Name = 
REMARK  9 active torsions:
REMARK  status: ('A' for Active; 'I' for Inactive)
REMARK    1  A    between atoms: C_1  and  C_2
REMARK    2  A    between atoms: C_2  and  O_3
REMARK    3  A    between atoms: O_3  and  C_4
REMARK    4  A    between atoms: C_6  and  C_7
REMARK    5  A    between atoms: C_12  and  N_13
REMARK    6  A    between atoms: N_13  and  C_14
REMARK    7  A    between atoms: C_14  and  C_15
REMARK    8  A    between atoms: C_15  and  C_16
REMARK    9  A    between atoms: C_20  and  C_21
REMARK                            x       y       z     vdW  Elec       q    Type
REMARK                         _______ _______ _______ _____ _____    ______ ____
ROOT
ATOM      1  N   UNL     1      45.874   3.724  13.314  0.00  0.00    +0.000 N 
ATOM      2  H   UNL     1      46.357   3.262  12.555  0.00  0.00    +0.000 HD
ENDROOT
BRANCH   1   8
ATOM      3  C   UNL     1      47.325   5.615  14.008  0.00  0.00    +0.000 A 
ATOM      4  C   UNL     1      48.125   6.128  15.034  0.00  0.00    +0.000 A 
ATOM      5  C   UNL     1      48.296   5.427  16.224  0.00  0.00    +0.000 A 
ATOM      6  C   UNL     1      47.660   4.205  16.329  0.00  0.00    +0.000 A 
ATOM      7  N   UNL     1      46.890   3.661  15.351  0.00  0.00    +0.000 NA
ATOM      8  C   UNL     1      46.714   4.358  14.200  0.00  0.00    +0.000 A 
BRANCH   5   9
ATOM      9  C   UNL     1      49.135   6.044  17.280  0.00  0.00    +0.000 C 
ATOM     10  N   UNL     1      48.581   6.963  18.123  0.00  0.00    +0.000 N 
ATOM     11  O   UNL     1      50.318   5.748  17.399  0.00  0.00    +0.000 OA
ATOM     12  H   UNL     1      47.632   7.299  18.096  0.00  0.00    +0.000 HD
ATOM     13  H   UNL     1      49.205   7.366  18.811  0.00  0.00    +0.000 HD
ENDBRANCH   5   9
BRANCH   3  14
ATOM     14  O   UNL     1      47.131   6.287  12.825  0.00  0.00    +0.000 OA
BRANCH  14  16
ATOM     15  C   UNL     1      45.656   8.176  12.846  0.00  0.00    +0.000 C 
ATOM     16  C   UNL     1      47.100   7.714  12.874  0.00  0.00    +0.000 C 
ENDBRANCH  14  16
ENDBRANCH   3  14
ENDBRANCH   1   8
BRANCH   1  17
ATOM     17  C   UNL     1      44.445   3.934  13.267  0.00  0.00    +0.000 C 
BRANCH  17  18
ATOM     18  C   UNL     1      43.789   3.321  12.025  0.00  0.00    +0.000 C 
BRANCH  18  19
ATOM     19  C   UNL     1      44.411   3.952  10.798  0.00  0.00    +0.000 A 
ATOM     20  C   UNL     1      44.753   5.307  10.785  0.00  0.00    +0.000 A 
ATOM     21  C   UNL     1      45.474   5.832   9.716  0.00  0.00    +0.000 A 
ATOM     22  C   UNL     1      45.883   5.002   8.666  0.00  0.00    +0.000 A 
ATOM     23  C   UNL     1      45.586   3.628   8.660  0.00  0.00    +0.000 A 
ATOM     24  C   UNL     1      44.814   3.135   9.728  0.00  0.00    +0.000 A 
BRANCH  23  25
ATOM     25  C   UNL     1      46.156   2.704   7.650  0.00  0.00    +0.000 A 
ATOM     26  C   UNL     1      46.521   3.164   6.370  0.00  0.00    +0.000 A 
ATOM     27  C   UNL     1      47.169   2.334   5.450  0.00  0.00    +0.000 A 
ATOM     28  C   UNL     1      47.473   1.021   5.790  0.00  0.00    +0.000 A 
ATOM     29  C   UNL     1      47.104   0.530   7.038  0.00  0.00    +0.000 A 
ATOM     30  C   UNL     1      46.444   1.359   7.951  0.00  0.00    +0.000 A 
ENDBRANCH  23  25
ENDBRANCH  18  19
ENDBRANCH  17  18
ENDBRANCH   1  17
TORSDOF 8
ENDMDL
MODEL 3
REMARK VINA RESULT:    -7.344      2.069      2.992
REMARK INTER + INTRA:         -11.782
REMARK INTER:                 -10.647
REMARK INTRA:                  -1.135
REMARK UNBOUND:                -1.003
REMARK  Name = 
REMARK  9 active torsions:
REMARK  status: ('A' for Active; 'I' for Inactive)
REMARK    1  A    between atoms: C_1  and  C_2
REMARK    2  A    between atoms: C_2  and  O_3
REMARK    3  A    between atoms: O_3  and  C_4
REMARK    4  A    between atoms: C_6  and  C_7
REMARK    5  A    between atoms: C_12  and  N_13
REMARK    6  A    between atoms: N_13  and  C_14
REMARK    7  A    between atoms: C_14  and  C_15
REMARK    8  A    between atoms: C_15  and  C_16
REMARK    9  A    between atoms: C_20  and  C_21
REMARK                            x       y       z     vdW  Elec       q    Type
REMARK                         _______ _______ _______ _____ _____    ______ ____
ROOT
ATOM      1  N   UNL     1      46.756   6.482  12.790  0.00  0.00    +0.000 N 
ATOM      2  H   UNL     1      47.461   6.665  12.089  0.00  0.00    +0.000 HD
ENDROOT
BRANCH   1   8
ATOM      3  C   UNL     1      48.227   6.613  14.787  0.00  0.00    +0.000 A 
ATOM      4  C   UNL     1      48.605   5.978  15.974  0.00  0.00    +0.000 A 
ATOM      5  C   UNL     1      48.030   4.768  16.350  0.00  0.00    +0.000 A 
ATOM      6  C   UNL     1      47.094   4.223  15.492  0.00  0.00    +0.000 A 
ATOM      7  N   UNL     1      46.712   4.796  14.321  0.00  0.00    +0.000 NA
ATOM      8  C   UNL     1      47.264   5.984  13.968  0.00  0.00    +0.000 A 
BRANCH   5   9
ATOM      9  C   UNL     1      48.457   4.165  17.637  0.00  0.00    +0.000 C 
ATOM     10  N   UNL     1      47.592   3.360  18.319  0.00  0.00    +0.000 N 
ATOM     11  O   UNL     1      49.570   4.388  18.098  0.00  0.00    +0.000 OA
ATOM     12  H   UNL     1      46.649   3.135  18.047  0.00  0.00    +0.000 HD
ATOM     13  H   UNL     1      47.930   2.993  19.200  0.00  0.00    +0.000 HD
ENDBRANCH   5   9
BRANCH   3  14
ATOM     14  O   UNL     1      48.770   7.812  14.392  0.00  0.00    +0.000 OA
BRANCH  14  16
ATOM     15  C   UNL     1      50.051   7.875  12.367  0.00  0.00    +0.000 C 
ATOM     16  C   UNL     1      50.103   7.795  13.881  0.00  0.00    +0.000 C 
ENDBRANCH  14  16
ENDBRANCH   3  14
ENDBRANCH   1   8
BRANCH   1  17
ATOM     17  C   UNL     1      45.412   6.991  12.644  0.00  0.00    +0.000 C 
BRANCH  17  18
ATOM     18  C   UNL     1      44.852   6.809  11.229  0.00  0.00    +0.000 C 
BRANCH  18  19
ATOM     19  C   UNL     1      44.679   5.327  10.973  0.00  0.00    +0.000 A 
ATOM     20  C   UNL     1      43.679   4.600  11.624  0.00  0.00    +0.000 A 
ATOM     21  C   UNL     1      43.425   3.281  11.254  0.00  0.00    +0.000 A 
ATOM     22  C   UNL     1      44.150   2.689  10.214  0.00  0.00    +0.000 A 
ATOM     23  C   UNL     1      45.141   3.399   9.514  0.00  0.00    +0.000 A 
ATOM     24  C   UNL     1      45.410   4.712   9.941  0.00  0.00    +0.000 A 
BRANCH  23  25
ATOM     25  C   UNL     1      45.795   2.851   8.301  0.00  0.00    +0.000 A 
ATOM     26  C   UNL     1      46.076   3.674   7.194  0.00  0.00    +0.000 A 
ATOM     27  C   UNL     1      46.798   3.202   6.093  0.00  0.00    +0.000 A 
ATOM     28  C   UNL     1      47.263   1.892   6.076  0.00  0.00    +0.000 A 
ATOM     29  C   UNL     1      46.982   1.047   7.145  0.00  0.00    +0.000 A 
ATOM     30  C   UNL     1      46.246   1.519   8.238  0.00  0.00    +0.000 A 
ENDBRANCH  23  25
ENDBRANCH  18  19
ENDBRANCH  17  18
ENDBRANCH   1  17
TORSDOF 8
ENDMDL
MODEL 4
REMARK VINA RESULT:    -7.287      4.452      8.401
REMARK INTER + INTRA:         -11.699
REMARK INTER:                 -10.551
REMARK INTRA:                  -1.147
REMARK UNBOUND:                -1.003
REMARK  Name = 
REMARK  9 active torsions:
REMARK  status: ('A' for Active; 'I' for Inactive)
REMARK    1  A    between atoms: C_1  and  C_2
REMARK    2  A    between atoms: C_2  and  O_3
REMARK    3  A    between atoms: O_3  and  C_4
REMARK    4  A    between atoms: C_6  and  C_7
REMARK    5  A    between atoms: C_12  and  N_13
REMARK    6  A    between atoms: N_13  and  C_14
REMARK    7  A    between atoms: C_14  and  C_15
REMARK    8  A    between atoms: C_15  and  C_16
REMARK    9  A    between atoms: C_20  and  C_21
REMARK                            x       y       z     vdW  Elec       q    Type
REMARK                         _______ _______ _______ _____ _____    ______ ____
ROOT
ATOM      1  N   UNL     1      44.386   5.399   9.839  0.00  0.00    +0.000 N 
ATOM      2  H   UNL     1      43.430   5.536   9.540  0.00  0.00    +0.000 HD
ENDROOT
BRANCH   1   8
ATOM      3  C   UNL     1      44.684   2.938   9.708  0.00  0.00    +0.000 A 
ATOM      4  C   UNL     1      45.349   1.898   9.052  0.00  0.00    +0.000 A 
ATOM      5  C   UNL     1      46.255   2.165   8.029  0.00  0.00    +0.000 A 
ATOM      6  C   UNL     1      46.475   3.492   7.715  0.00  0.00    +0.000 A 
ATOM      7  N   UNL     1      45.865   4.533   8.341  0.00  0.00    +0.000 NA
ATOM      8  C   UNL     1      44.970   4.265   9.324  0.00  0.00    +0.000 A 
BRANCH   5   9
ATOM      9  C   UNL     1      46.904   1.012   7.356  0.00  0.00    +0.000 C 
ATOM     10  N   UNL     1      47.704   1.233   6.273  0.00  0.00    +0.000 N 
ATOM     11  O   UNL     1      46.723  -0.133   7.753  0.00  0.00    +0.000 OA
ATOM     12  H   UNL     1      47.896   2.126   5.848  0.00  0.00    +0.000 HD
ATOM     13  H   UNL     1      48.103   0.408   5.842  0.00  0.00    +0.000 HD
ENDBRANCH   5   9
BRANCH   3  14
ATOM     14  O   UNL     1      43.778   2.706  10.716  0.00  0.00    +0.000 OA
BRANCH  14  16
ATOM     15  C   UNL     1      43.295   3.667  12.857  0.00  0.00    +0.000 C 
ATOM     16  C   UNL     1      44.249   2.799  12.060  0.00  0.00    +0.000 C 
ENDBRANCH  14  16
ENDBRANCH   3  14
ENDBRANCH   1   8
BRANCH   1  17
ATOM     17  C   UNL     1      45.122   6.461  10.487  0.00  0.00    +0.000 C 
BRANCH  17  18
ATOM     18  C   UNL     1      44.937   6.477  12.009  0.00  0.00    +0.000 C 
BRANCH  18  19
ATOM     19  C   UNL     1      46.307   6.486  12.654  0.00  0.00    +0.000 A 
ATOM     20  C   UNL     1      47.278   7.410  12.259  0.00  0.00    +0.000 A 
ATOM     21  C   UNL     1      48.468   7.516  12.974  0.00  0.00    +0.000 A 
ATOM     22  C   UNL     1      48.686   6.719  14.103  0.00  0.00    +0.000 A 
ATOM     23  C   UNL     1      47.718   5.802  14.550  0.00  0.00    +0.000 A 
ATOM     24  C   UNL     1      46.547   5.681  13.780  0.00  0.00    +0.000 A 
BRANCH  23  25
ATOM     25  C   UNL     1      47.855   5.077  15.837  0.00  0.00    +0.000 A 
ATOM     26  C   UNL     1      47.400   3.751  15.974  0.00  0.00    +0.000 A 
ATOM     27  C   UNL     1      47.629   3.015  17.141  0.00  0.00    +0.000 A 
ATOM     28  C   UNL     1      48.325   3.588  18.200  0.00  0.00    +0.000 A 
ATOM     29  C   UNL     1      48.766   4.903  18.104  0.00  0.00    +0.000 A 
ATOM     30  C   UNL     1      48.523   5.641  16.940  0.00  0.00    +0.000 A 
ENDBRANCH  23  25
ENDBRANCH  18  19
ENDBRANCH  17  18
ENDBRANCH   1  17
TORSDOF 8
ENDMDL
MODEL 5
REMARK VINA RESULT:    -7.217      5.154      8.084
REMARK INTER + INTRA:         -11.595
REMARK INTER:                 -10.829
REMARK INTRA:                  -0.766
REMARK UNBOUND:                -1.003
REMARK  Name = 
REMARK  9 active torsions:
REMARK  status: ('A' for Active; 'I' for Inactive)
REMARK    1  A    between atoms: C_1  and  C_2
REMARK    2  A    between atoms: C_2  and  O_3
REMARK    3  A    between atoms: O_3  and  C_4
REMARK    4  A    between atoms: C_6  and  C_7
REMARK    5  A    between atoms: C_12  and  N_13
REMARK    6  A    between atoms: N_13  and  C_14
REMARK    7  A    between atoms: C_14  and  C_15
REMARK    8  A    between atoms: C_15  and  C_16
REMARK    9  A    between atoms: C_20  and  C_21
REMARK                            x       y       z     vdW  Elec       q    Type
REMARK                         _______ _______ _______ _____ _____    ______ ____
ROOT
ATOM      1  N   UNL     1      43.780   5.328   9.843  0.00  0.00    +0.000 N 
ATOM      2  H   UNL     1      43.303   5.840   9.113  0.00  0.00    +0.000 HD
ENDROOT
BRANCH   1   8
ATOM      3  C   UNL     1      44.413   2.928   9.808  0.00  0.00    +0.000 A 
ATOM      4  C   UNL     1      45.228   1.967   9.202  0.00  0.00    +0.000 A 
ATOM      5  C   UNL     1      46.111   2.320   8.185  0.00  0.00    +0.000 A 
ATOM      6  C   UNL     1      46.155   3.654   7.826  0.00  0.00    +0.000 A 
ATOM      7  N   UNL     1      45.396   4.622   8.403  0.00  0.00    +0.000 NA
ATOM      8  C   UNL     1      44.524   4.268   9.381  0.00  0.00    +0.000 A 
BRANCH   5   9
ATOM      9  C   UNL     1      46.925   1.245   7.567  0.00  0.00    +0.000 C 
ATOM     10  N   UNL     1      47.953   1.580   6.734  0.00  0.00    +0.000 N 
ATOM     11  O   UNL     1      46.681   0.065   7.785  0.00  0.00    +0.000 OA
ATOM     12  H   UNL     1      48.221   2.512   6.464  0.00  0.00    +0.000 HD
ATOM     13  H   UNL     1      48.461   0.805   6.324  0.00  0.00    +0.000 HD
ENDBRANCH   5   9
BRANCH   3  14
ATOM     14  O   UNL     1      43.526   2.609  10.809  0.00  0.00    +0.000 OA
BRANCH  14  16
ATOM     15  C   UNL     1      43.364   3.504  13.026  0.00  0.00    +0.000 C 
ATOM     16  C   UNL     1      44.043   2.483  12.133  0.00  0.00    +0.000 C 
ENDBRANCH  14  16
ENDBRANCH   3  14
ENDBRANCH   1   8
BRANCH   1  17
ATOM     17  C   UNL     1      43.892   5.869  11.179  0.00  0.00    +0.000 C 
BRANCH  17  18
ATOM     18  C   UNL     1      44.654   7.198  11.225  0.00  0.00    +0.000 C 
BRANCH  18  19
ATOM     19  C   UNL     1      45.959   6.973  11.960  0.00  0.00    +0.000 A 
ATOM     20  C   UNL     1      46.136   5.853  12.776  0.00  0.00    +0.000 A 
ATOM     21  C   UNL     1      47.393   5.573  13.308  0.00  0.00    +0.000 A 
ATOM     22  C   UNL     1      48.485   6.395  13.008  0.00  0.00    +0.000 A 
ATOM     23  C   UNL     1      48.351   7.512  12.164  0.00  0.00    +0.000 A 
ATOM     24  C   UNL     1      47.062   7.799  11.681  0.00  0.00    +0.000 A 
BRANCH  23  25
ATOM     25  C   UNL     1      49.524   8.289  11.696  0.00  0.00    +0.000 A 
ATOM     26  C   UNL     1      50.701   7.642  11.274  0.00  0.00    +0.000 A 
ATOM     27  C   UNL     1      51.770   8.352  10.718  0.00  0.00    +0.000 A 
ATOM     28  C   UNL     1      51.684   9.732  10.564  0.00  0.00    +0.000 A 
ATOM     29  C   UNL     1      50.543  10.402  10.993  0.00  0.00    +0.000 A 
ATOM     30  C   UNL     1      49.482   9.690  11.562  0.00  0.00    +0.000 A 
ENDBRANCH  23  25
ENDBRANCH  18  19
ENDBRANCH  17  18
ENDBRANCH   1  17
TORSDOF 8
ENDMDL
MODEL 6
REMARK VINA RESULT:    -7.134      2.651      3.945
REMARK INTER + INTRA:         -11.473
REMARK INTER:                 -10.522
REMARK INTRA:                  -0.951
REMARK UNBOUND:                -1.003
REMARK  Name = 
REMARK  9 active torsions:
REMARK  status: ('A' for Active; 'I' for Inactive)
REMARK    1  A    between atoms: C_1  and  C_2
REMARK    2  A    between atoms: C_2  and  O_3
REMARK    3  A    between atoms: O_3  and  C_4
REMARK    4  A    between atoms: C_6  and  C_7
REMARK    5  A    between atoms: C_12  and  N_13
REMARK    6  A    between atoms: N_13  and  C_14
REMARK    7  A    between atoms: C_14  and  C_15
REMARK    8  A    between atoms: C_15  and  C_16
REMARK    9  A    between atoms: C_20  and  C_21
REMARK                            x       y       z     vdW  Elec       q    Type
REMARK                         _______ _______ _______ _____ _____    ______ ____
ROOT
ATOM      1  N   UNL     1      46.098   3.744  13.562  0.00  0.00    +0.000 N 
ATOM      2  H   UNL     1      46.583   2.948  13.169  0.00  0.00    +0.000 HD
ENDROOT
BRANCH   1   8
ATOM      3  C   UNL     1      47.396   4.817  15.387  0.00  0.00    +0.000 A 
ATOM      4  C   UNL     1      48.280   5.852  15.708  0.00  0.00    +0.000 A 
ATOM      5  C   UNL     1      48.717   6.745  14.733  0.00  0.00    +0.000 A 
ATOM      6  C   UNL     1      48.222   6.571  13.455  0.00  0.00    +0.000 A 
ATOM      7  N   UNL     1      47.347   5.593  13.105  0.00  0.00    +0.000 NA
ATOM      8  C   UNL     1      46.939   4.715  14.056  0.00  0.00    +0.000 A 
BRANCH   5   9
ATOM      9  C   UNL     1      49.677   7.801  15.138  0.00  0.00    +0.000 C 
ATOM     10  N   UNL     1      49.294   8.738  16.054  0.00  0.00    +0.000 N 
ATOM     11  O   UNL     1      50.802   7.849  14.655  0.00  0.00    +0.000 OA
ATOM     12  H   UNL     1      48.389   8.809  16.489  0.00  0.00    +0.000 HD
ATOM     13  H   UNL     1      49.982   9.446  16.277  0.00  0.00    +0.000 HD
ENDBRANCH   5   9
BRANCH   3  14
ATOM     14  O   UNL     1      46.952   3.916  16.325  0.00  0.00    +0.000 OA
BRANCH  14  16
ATOM     15  C   UNL     1      48.089   3.069  18.257  0.00  0.00    +0.000 C 
ATOM     16  C   UNL     1      47.871   2.916  16.764  0.00  0.00    +0.000 C 
ENDBRANCH  14  16
ENDBRANCH   3  14
ENDBRANCH   1   8
BRANCH   1  17
ATOM     17  C   UNL     1      44.685   3.944  13.333  0.00  0.00    +0.000 C 
BRANCH  17  18
ATOM     18  C   UNL     1      44.155   3.148  12.135  0.00  0.00    +0.000 C 
BRANCH  18  19
ATOM     19  C   UNL     1      44.636   3.820  10.866  0.00  0.00    +0.000 A 
ATOM     20  C   UNL     1      44.890   5.194  10.836  0.00  0.00    +0.000 A 
ATOM     21  C   UNL     1      45.489   5.766   9.717  0.00  0.00    +0.000 A 
ATOM     22  C   UNL     1      45.865   4.965   8.632  0.00  0.00    +0.000 A 
ATOM     23  C   UNL     1      45.656   3.575   8.640  0.00  0.00    +0.000 A 
ATOM     24  C   UNL     1      45.003   3.032   9.762  0.00  0.00    +0.000 A 
BRANCH  23  25
ATOM     25  C   UNL     1      46.201   2.690   7.582  0.00  0.00    +0.000 A 
ATOM     26  C   UNL     1      46.468   3.185   6.290  0.00  0.00    +0.000 A 
ATOM     27  C   UNL     1      47.092   2.397   5.318  0.00  0.00    +0.000 A 
ATOM     28  C   UNL     1      47.471   1.093   5.617  0.00  0.00    +0.000 A 
ATOM     29  C   UNL     1      47.200   0.569   6.876  0.00  0.00    +0.000 A 
ATOM     30  C   UNL     1      46.563   1.355   7.842  0.00  0.00    +0.000 A 
ENDBRANCH  23  25
ENDBRANCH  18  19
ENDBRANCH  17  18
ENDBRANCH   1  17
TORSDOF 8
ENDMDL
MODEL 7
REMARK VINA RESULT:    -6.897      3.643      4.432
REMARK INTER + INTRA:         -11.126
REMARK INTER:                  -9.677
REMARK INTRA:                  -1.449
REMARK UNBOUND:                -1.003
REMARK  Name = 
REMARK  9 active torsions:
REMARK  status: ('A' for Active; 'I' for Inactive)
REMARK    1  A    between atoms: C_1  and  C_2
REMARK    2  A    between atoms: C_2  and  O_3
REMARK    3  A    between atoms: O_3  and  C_4
REMARK    4  A    between atoms: C_6  and  C_7
REMARK    5  A    between atoms: C_12  and  N_13
REMARK    6  A    between atoms: N_13  and  C_14
REMARK    7  A    between atoms: C_14  and  C_15
REMARK    8  A    between atoms: C_15  and  C_16
REMARK    9  A    between atoms: C_20  and  C_21
REMARK                            x       y       z     vdW  Elec       q    Type
REMARK                         _______ _______ _______ _____ _____    ______ ____
ROOT
ATOM      1  N   UNL     1      46.631   7.689  12.233  0.00  0.00    +0.000 N 
ATOM      2  H   UNL     1      46.999   8.032  11.355  0.00  0.00    +0.000 HD
ENDROOT
BRANCH   1   8
ATOM      3  C   UNL     1      48.197   6.731  13.904  0.00  0.00    +0.000 A 
ATOM      4  C   UNL     1      49.091   7.028  14.938  0.00  0.00    +0.000 A 
ATOM      5  C   UNL     1      49.318   8.345  15.329  0.00  0.00    +0.000 A 
ATOM      6  C   UNL     1      48.610   9.327  14.665  0.00  0.00    +0.000 A 
ATOM      7  N   UNL     1      47.718   9.082  13.669  0.00  0.00    +0.000 NA
ATOM      8  C   UNL     1      47.515   7.798  13.282  0.00  0.00    +0.000 A 
BRANCH   5   9
ATOM      9  C   UNL     1      50.300   8.588  16.414  0.00  0.00    +0.000 C 
ATOM     10  N   UNL     1      51.412   9.335  16.154  0.00  0.00    +0.000 N 
ATOM     11  O   UNL     1      50.131   8.121  17.534  0.00  0.00    +0.000 OA
ATOM     12  H   UNL     1      51.663   9.740  15.267  0.00  0.00    +0.000 HD
ATOM     13  H   UNL     1      52.058   9.451  16.926  0.00  0.00    +0.000 HD
ENDBRANCH   5   9
BRANCH   3  14
ATOM     14  O   UNL     1      47.958   5.442  13.491  0.00  0.00    +0.000 OA
BRANCH  14  16
ATOM     15  C   UNL     1      46.575   3.490  13.367  0.00  0.00    +0.000 C 
ATOM     16  C   UNL     1      46.967   4.696  14.198  0.00  0.00    +0.000 C 
ENDBRANCH  14  16
ENDBRANCH   3  14
ENDBRANCH   1   8
BRANCH   1  17
ATOM     17  C   UNL     1      45.222   7.411  12.392  0.00  0.00    +0.000 C 
BRANCH  17  18
ATOM     18  C   UNL     1      44.521   7.088  11.068  0.00  0.00    +0.000 C 
BRANCH  18  19
ATOM     19  C   UNL     1      44.419   5.582  10.938  0.00  0.00    +0.000 A 
ATOM     20  C   UNL     1      43.451   4.867  11.648  0.00  0.00    +0.000 A 
ATOM     21  C   UNL     1      43.261   3.511  11.392  0.00  0.00    +0.000 A 
ATOM     22  C   UNL     1      44.018   2.868  10.407  0.00  0.00    +0.000 A 
ATOM     23  C   UNL     1      44.978   3.562   9.649  0.00  0.00    +0.000 A 
ATOM     24  C   UNL     1      45.183   4.918   9.963  0.00  0.00    +0.000 A 
BRANCH  23  25
ATOM     25  C   UNL     1      45.662   2.944   8.488  0.00  0.00    +0.000 A 
ATOM     26  C   UNL     1      46.037   3.717   7.372  0.00  0.00    +0.000 A 
ATOM     27  C   UNL     1      46.788   3.175   6.324  0.00  0.00    +0.000 A 
ATOM     28  C   UNL     1      47.188   1.844   6.369  0.00  0.00    +0.000 A 
ATOM     29  C   UNL     1      46.813   1.049   7.447  0.00  0.00    +0.000 A 
ATOM     30  C   UNL     1      46.050   1.591   8.487  0.00  0.00    +0.000 A 
ENDBRANCH  23  25
ENDBRANCH  18  19
ENDBRANCH  17  18
ENDBRANCH   1  17
TORSDOF 8
ENDMDL
MODEL 8
REMARK VINA RESULT:    -6.732      2.611      3.764
REMARK INTER + INTRA:         -10.884
REMARK INTER:                  -9.625
REMARK INTRA:                  -1.259
REMARK UNBOUND:                -1.003
REMARK  Name = 
REMARK  9 active torsions:
REMARK  status: ('A' for Active; 'I' for Inactive)
REMARK    1  A    between atoms: C_1  and  C_2
REMARK    2  A    between atoms: C_2  and  O_3
REMARK    3  A    between atoms: O_3  and  C_4
REMARK    4  A    between atoms: C_6  and  C_7
REMARK    5  A    between atoms: C_12  and  N_13
REMARK    6  A    between atoms: N_13  and  C_14
REMARK    7  A    between atoms: C_14  and  C_15
REMARK    8  A    between atoms: C_15  and  C_16
REMARK    9  A    between atoms: C_20  and  C_21
REMARK                            x       y       z     vdW  Elec       q    Type
REMARK                         _______ _______ _______ _____ _____    ______ ____
ROOT
ATOM      1  N   UNL     1      49.626   7.655  14.212  0.00  0.00    +0.000 N 
ATOM      2  H   UNL     1      49.779   8.572  14.609  0.00  0.00    +0.000 HD
ENDROOT
BRANCH   1   8
ATOM      3  C   UNL     1      49.617   6.620  16.469  0.00  0.00    +0.000 A 
ATOM      4  C   UNL     1      49.046   5.628  17.271  0.00  0.00    +0.000 A 
ATOM      5  C   UNL     1      48.069   4.775  16.764  0.00  0.00    +0.000 A 
ATOM      6  C   UNL     1      47.713   4.945  15.440  0.00  0.00    +0.000 A 
ATOM      7  N   UNL     1      48.256   5.882  14.621  0.00  0.00    +0.000 NA
ATOM      8  C   UNL     1      49.195   6.721  15.126  0.00  0.00    +0.000 A 
BRANCH   5   9
ATOM      9  C   UNL     1      47.486   3.764  17.680  0.00  0.00    +0.000 C 
ATOM     10  N   UNL     1      48.027   3.594  18.921  0.00  0.00    +0.000 N 
ATOM     11  O   UNL     1      46.535   3.073  17.333  0.00  0.00    +0.000 OA
ATOM     12  H   UNL     1      48.823   4.084  19.295  0.00  0.00    +0.000 HD
ATOM     13  H   UNL     1      47.602   2.876  19.495  0.00  0.00    +0.000 HD
ENDBRANCH   5   9
BRANCH   3  14
ATOM     14  O   UNL     1      50.577   7.482  16.942  0.00  0.00    +0.000 OA
BRANCH  14  16
ATOM     15  C   UNL     1      52.659   6.455  16.346  0.00  0.00    +0.000 C 
ATOM     16  C   UNL     1      51.767   6.910  17.485  0.00  0.00    +0.000 C 
ENDBRANCH  14  16
ENDBRANCH   3  14
ENDBRANCH   1   8
BRANCH   1  17
ATOM     17  C   UNL     1      49.577   7.463  12.780  0.00  0.00    +0.000 C 
BRANCH  17  18
ATOM     18  C   UNL     1      48.775   8.550  12.056  0.00  0.00    +0.000 C 
BRANCH  18  19
ATOM     19  C   UNL     1      47.326   8.112  11.997  0.00  0.00    +0.000 A 
ATOM     20  C   UNL     1      46.296   9.009  12.289  0.00  0.00    +0.000 A 
ATOM     21  C   UNL     1      44.970   8.640  12.068  0.00  0.00    +0.000 A 
ATOM     22  C   UNL     1      44.669   7.385  11.529  0.00  0.00    +0.000 A 
ATOM     23  C   UNL     1      45.681   6.469  11.191  0.00  0.00    +0.000 A 
ATOM     24  C   UNL     1      47.006   6.848  11.471  0.00  0.00    +0.000 A 
BRANCH  23  25
ATOM     25  C   UNL     1      45.393   5.211  10.461  0.00  0.00    +0.000 A 
ATOM     26  C   UNL     1      44.686   4.161  11.077  0.00  0.00    +0.000 A 
ATOM     27  C   UNL     1      44.303   3.019  10.366  0.00  0.00    +0.000 A 
ATOM     28  C   UNL     1      44.614   2.902   9.016  0.00  0.00    +0.000 A 
ATOM     29  C   UNL     1      45.332   3.912   8.385  0.00  0.00    +0.000 A 
ATOM     30  C   UNL     1      45.726   5.047   9.103  0.00  0.00    +0.000 A 
ENDBRANCH  23  25
ENDBRANCH  18  19
ENDBRANCH  17  18
ENDBRANCH   1  17
TORSDOF 8
ENDMDL
