MODEL 1
REMARK VINA RESULT:    -7.684      0.000      0.000
REMARK INTER + INTRA:         -11.730
REMARK INTER:                 -10.379
REMARK INTRA:                  -1.351
REMARK UNBOUND:                -1.351
REMARK  Name = 
REMARK  7 active torsions:
REMARK  status: ('A' for Active; 'I' for Inactive)
REMARK    1  A    between atoms: C_1  and  N_2
REMARK    2  A    between atoms: C_4  and  C_5
REMARK    3  A    between atoms: N_7  and  C_8
REMARK    4  A    between atoms: C_8  and  C_9
REMARK    5  A    between atoms: C_12  and  N_13
REMARK    6  A    between atoms: N_13  and  C_14
REMARK    7  A    between atoms: C_14  and  C_15
REMARK                            x       y       z     vdW  Elec       q    Type
REMARK                         _______ _______ _______ _____ _____    ______ ____
ROOT
ATOM      1  C   UNL     1      47.189   8.242  13.326  0.00  0.00    +0.000 C 
ENDROOT
BRANCH   1   2
ATOM      2  C   UNL     1      46.477   7.237  12.461  0.00  0.00    +0.000 A 
ATOM      3  C   UNL     1      46.980   6.914  11.197  0.00  0.00    +0.000 A 
ATOM      4  C   UNL     1      46.371   5.923  10.419  0.00  0.00    +0.000 A 
ATOM      5  C   UNL     1      45.221   5.264  10.859  0.00  0.00    +0.000 A 
ATOM      6  C   UNL     1      44.713   5.609  12.117  0.00  0.00    +0.000 A 
ATOM      7  C   UNL     1      45.325   6.588  12.909  0.00  0.00    +0.000 A 
BRANCH   5   8
ATOM      8  N   UNL     1      44.640   4.197  10.188  0.00  0.00    +0.000 N 
ATOM      9  H   UNL     1      44.092   3.582  10.781  0.00  0.00    +0.000 HD
BRANCH   8  10
ATOM     10  C   UNL     1      44.229   4.271   8.795  0.00  0.00    +0.000 C 
BRANCH  10  11
ATOM     11  C   UNL     1      44.999   3.226   7.972  0.00  0.00    +0.000 C 
ATOM     12  C   UNL     1      45.468   2.048   8.845  0.00  0.00    +0.000 C 
ATOM     13  C   UNL     1      46.253   1.025   8.031  0.00  0.00    +0.000 C 
ATOM     14  C   UNL     1      47.432   1.670   7.311  0.00  0.00    +0.000 C 
ATOM     15  C   UNL     1      46.986   2.848   6.450  0.00  0.00    +0.000 C 
ATOM     16  C   UNL     1      46.198   3.873   7.262  0.00  0.00    +0.000 C 
ENDBRANCH  10  11
ENDBRANCH   8  10
ENDBRANCH   5   8
ENDBRANCH   1   2
BRANCH   1  19
ATOM     17  C   UNL     1      48.713   7.037  14.795  0.00  0.00    +0.000 C 
ATOM     18  O   UNL     1      49.536   6.933  13.896  0.00  0.00    +0.000 OA
ATOM     19  N   UNL     1      47.521   7.711  14.624  0.00  0.00    +0.000 N 
ATOM     20  H   UNL     1      46.816   7.692  15.345  0.00  0.00    +0.000 HD
BRANCH  17  24
ATOM     21  C   UNL     1      50.384   6.449  19.457  0.00  0.00    +0.000 C 
ATOM     22  N   UNL     1      49.690   6.214  18.212  0.00  0.00    +0.000 N 
ATOM     23  C   UNL     1      49.667   7.058  17.136  0.00  0.00    +0.000 A 
ATOM     24  C   UNL     1      48.918   6.465  16.123  0.00  0.00    +0.000 A 
ATOM     25  C   UNL     1      48.462   5.198  16.638  0.00  0.00    +0.000 A 
ATOM     26  C   UNL     1      47.690   4.107  16.245  0.00  0.00    +0.000 A 
ATOM     27 CL   UNL     1      46.909   4.068  14.742  0.00  0.00    +0.000 Cl
ATOM     28  N   UNL     1      47.462   3.056  17.055  0.00  0.00    +0.000 NA
ATOM     29  C   UNL     1      48.019   3.095  18.270  0.00  0.00    +0.000 A 
ATOM     30  N   UNL     1      48.780   4.070  18.791  0.00  0.00    +0.000 NA
ATOM     31  C   UNL     1      48.962   5.089  17.934  0.00  0.00    +0.000 A 
ENDBRANCH  17  24
ENDBRANCH   1  19
TORSDOF 6
ENDMDL
MODEL 2
REMARK VINA RESULT:    -7.430      1.841      2.111
REMARK INTER + INTRA:         -11.386
REMARK INTER:                 -10.362
REMARK INTRA:                  -1.025
REMARK UNBOUND:                -1.351
REMARK  Name = 
REMARK  7 active torsions:
REMARK  status: ('A' for Active; 'I' for Inactive)
REMARK    1  A    between atoms: C_1  and  N_2
REMARK    2  A    between atoms: C_4  and  C_5
REMARK    3  A    between atoms: N_7  and  C_8
REMARK    4  A    between atoms: C_8  and  C_9
REMARK    5  A    between atoms: C_12  and  N_13
REMARK    6  A    between atoms: N_13  and  C_14
REMARK    7  A    between atoms: C_14  and  C_15
REMARK                            x       y       z     vdW  Elec       q    Type
REMARK                         _______ _______ _______ _____ _____    ______ ____
ROOT
ATOM      1  C   UNL     1      48.420   6.997  13.822  0.00  0.00    +0.000 C 
ENDROOT
BRANCH   1   2
ATOM      2  C   UNL     1      47.338   6.215  13.129  0.00  0.00    +0.000 A 
ATOM      3  C   UNL     1      46.784   6.684  11.934  0.00  0.00    +0.000 A 
ATOM      4  C   UNL     1      45.835   5.924  11.240  0.00  0.00    +0.000 A 
ATOM      5  C   UNL     1      45.380   4.703  11.742  0.00  0.00    +0.000 A 
ATOM      6  C   UNL     1      45.925   4.251  12.950  0.00  0.00    +0.000 A 
ATOM      7  C   UNL     1      46.886   4.998  13.643  0.00  0.00    +0.000 A 
BRANCH   5   8
ATOM      8  N   UNL     1      44.530   3.854  11.048  0.00  0.00    +0.000 N 
ATOM      9  H   UNL     1      43.953   3.266  11.642  0.00  0.00    +0.000 HD
BRANCH   8  10
ATOM     10  C   UNL     1      43.971   4.186   9.748  0.00  0.00    +0.000 C 
BRANCH  10  11
ATOM     11  C   UNL     1      44.685   3.374   8.655  0.00  0.00    +0.000 C 
ATOM     12  C   UNL     1      45.269   2.063   9.211  0.00  0.00    +0.000 C 
ATOM     13  C   UNL     1      45.997   1.272   8.130  0.00  0.00    +0.000 C 
ATOM     14  C   UNL     1      47.081   2.108   7.459  0.00  0.00    +0.000 C 
ATOM     15  C   UNL     1      46.520   3.418   6.912  0.00  0.00    +0.000 C 
ATOM     16  C   UNL     1      45.789   4.212   7.992  0.00  0.00    +0.000 C 
ENDBRANCH  10  11
ENDBRANCH   8  10
ENDBRANCH   5   8
ENDBRANCH   1   2
BRANCH   1  19
ATOM     17  C   UNL     1      49.053   6.849  16.169  0.00  0.00    +0.000 C 
ATOM     18  O   UNL     1      50.149   6.396  15.870  0.00  0.00    +0.000 OA
ATOM     19  N   UNL     1      48.128   7.221  15.215  0.00  0.00    +0.000 N 
ATOM     20  H   UNL     1      47.195   7.493  15.487  0.00  0.00    +0.000 HD
BRANCH  17  24
ATOM     21  C   UNL     1      47.491   9.084  20.345  0.00  0.00    +0.000 C 
ATOM     22  N   UNL     1      47.937   8.066  19.422  0.00  0.00    +0.000 N 
ATOM     23  C   UNL     1      48.191   8.248  18.090  0.00  0.00    +0.000 A 
ATOM     24  C   UNL     1      48.629   7.040  17.554  0.00  0.00    +0.000 A 
ATOM     25  C   UNL     1      48.620   6.085  18.633  0.00  0.00    +0.000 A 
ATOM     26  C   UNL     1      48.894   4.738  18.862  0.00  0.00    +0.000 A 
ATOM     27 CL   UNL     1      49.353   3.699  17.604  0.00  0.00    +0.000 Cl
ATOM     28  N   UNL     1      48.744   4.167  20.072  0.00  0.00    +0.000 NA
ATOM     29  C   UNL     1      48.322   4.957  21.066  0.00  0.00    +0.000 A 
ATOM     30  N   UNL     1      48.018   6.261  21.002  0.00  0.00    +0.000 NA
ATOM     31  C   UNL     1      48.183   6.765  19.767  0.00  0.00    +0.000 A 
ENDBRANCH  17  24
ENDBRANCH   1  19
TORSDOF 6
ENDMDL
MODEL 3
REMARK VINA RESULT:    -7.328      3.297      6.124
REMARK INTER + INTRA:         -11.249
REMARK INTER:                 -10.363
REMARK INTRA:                  -0.886
REMARK UNBOUND:                -1.351
REMARK  Name = 
REMARK  7 active torsions:
REMARK  status: ('A' for Active; 'I' for Inactive)
REMARK    1  A    between atoms: C_1  and  N_2
REMARK    2  A    between atoms: C_4  and  C_5
REMARK    3  A    between atoms: N_7  and  C_8
REMARK    4  A    between atoms: C_8  and  C_9
REMARK    5  A    between atoms: C_12  and  N_13
REMARK    6  A    between atoms: N_13  and  C_14
REMARK    7  A    between atoms: C_14  and  C_15
REMARK                            x       y       z     vdW  Elec       q    Type
REMARK                         _______ _______ _______ _____ _____    ______ ____
ROOT
ATOM      1  C   UNL     1      44.054   4.173   9.887  0.00  0.00    +0.000 C 
ENDROOT
BRANCH   1   2
ATOM      2  C   UNL     1      44.944   3.368   8.979  0.00  0.00    +0.000 A 
ATOM      3  C   UNL     1      45.091   1.991   9.177  0.00  0.00    +0.000 A 
ATOM      4  C   UNL     1      45.853   1.220   8.291  0.00  0.00    +0.000 A 
ATOM      5  C   UNL     1      46.524   1.807   7.216  0.00  0.00    +0.000 A 
ATOM      6  C   UNL     1      46.387   3.189   7.038  0.00  0.00    +0.000 A 
ATOM      7  C   UNL     1      45.615   3.966   7.911  0.00  0.00    +0.000 A 
BRANCH   5   8
ATOM      8  N   UNL     1      47.197   1.085   6.241  0.00  0.00    +0.000 N 
ATOM      9  H   UNL     1      46.956   0.098   6.214  0.00  0.00    +0.000 HD
BRANCH   8  10
ATOM     10  C   UNL     1      47.625   1.669   4.981  0.00  0.00    +0.000 C 
BRANCH  10  11
ATOM     11  C   UNL     1      47.187   0.765   3.816  0.00  0.00    +0.000 C 
ATOM     12  C   UNL     1      45.878   1.260   3.175  0.00  0.00    +0.000 C 
ATOM     13  C   UNL     1      45.433   0.349   2.036  0.00  0.00    +0.000 C 
ATOM     14  C   UNL     1      45.298  -1.097   2.499  0.00  0.00    +0.000 C 
ATOM     15  C   UNL     1      46.584  -1.600   3.148  0.00  0.00    +0.000 C 
ATOM     16  C   UNL     1      47.033  -0.689   4.288  0.00  0.00    +0.000 C 
ENDBRANCH  10  11
ENDBRANCH   8  10
ENDBRANCH   5   8
ENDBRANCH   1   2
BRANCH   1  19
ATOM     17  C   UNL     1      44.037   6.177  11.271  0.00  0.00    +0.000 C 
ATOM     18  O   UNL     1      42.873   5.975  11.590  0.00  0.00    +0.000 OA
ATOM     19  N   UNL     1      44.733   5.310  10.453  0.00  0.00    +0.000 N 
ATOM     20  H   UNL     1      45.654   5.552  10.121  0.00  0.00    +0.000 HD
BRANCH  17  24
ATOM     21  C   UNL     1      45.533  10.907  11.778  0.00  0.00    +0.000 C 
ATOM     22  N   UNL     1      45.454   9.472  11.931  0.00  0.00    +0.000 N 
ATOM     23  C   UNL     1      44.509   8.658  11.370  0.00  0.00    +0.000 A 
ATOM     24  C   UNL     1      44.790   7.342  11.727  0.00  0.00    +0.000 A 
ATOM     25  C   UNL     1      45.965   7.385  12.561  0.00  0.00    +0.000 A 
ATOM     26  C   UNL     1      46.793   6.522  13.276  0.00  0.00    +0.000 A 
ATOM     27 CL   UNL     1      46.475   4.860  13.369  0.00  0.00    +0.000 Cl
ATOM     28  N   UNL     1      47.847   6.960  13.989  0.00  0.00    +0.000 NA
ATOM     29  C   UNL     1      48.080   8.277  13.980  0.00  0.00    +0.000 A 
ATOM     30  N   UNL     1      47.378   9.229  13.346  0.00  0.00    +0.000 NA
ATOM     31  C   UNL     1      46.338   8.724  12.660  0.00  0.00    +0.000 A 
ENDBRANCH  17  24
ENDBRANCH   1  19
TORSDOF 6
ENDMDL
MODEL 4
REMARK VINA RESULT:    -7.269      2.129      3.301
REMARK INTER + INTRA:         -11.170
REMARK INTER:                 -10.070
REMARK INTRA:                  -1.100
REMARK UNBOUND:                -1.351
REMARK  Name = 
REMARK  7 active torsions:
REMARK  status: ('A' for Active; 'I' for Inactive)
REMARK    1  A    between atoms: C_1  and  N_2
REMARK    2  A    between atoms: C_4  and  C_5
REMARK    3  A    between atoms: N_7  and  C_8
REMARK    4  A    between atoms: C_8  and  C_9
REMARK    5  A    between atoms: C_12  and  N_13
REMARK    6  A    between atoms: N_13  and  C_14
REMARK    7  A    between atoms: C_14  and  C_15
REMARK                            x       y       z     vdW  Elec       q    Type
REMARK                         _______ _______ _______ _____ _____    ______ ____
ROOT
ATOM      1  C   UNL     1      47.110   4.215  15.023  0.00  0.00    +0.000 C 
ENDROOT
BRANCH   1   2
ATOM      2  C   UNL     1      46.524   4.494  13.666  0.00  0.00    +0.000 A 
ATOM      3  C   UNL     1      46.851   5.672  12.986  0.00  0.00    +0.000 A 
ATOM      4  C   UNL     1      46.375   5.903  11.689  0.00  0.00    +0.000 A 
ATOM      5  C   UNL     1      45.526   4.991  11.058  0.00  0.00    +0.000 A 
ATOM      6  C   UNL     1      45.188   3.825  11.755  0.00  0.00    +0.000 A 
ATOM      7  C   UNL     1      45.672   3.578  13.046  0.00  0.00    +0.000 A 
BRANCH   5   8
ATOM      8  N   UNL     1      45.116   5.108   9.738  0.00  0.00    +0.000 N 
ATOM      9  H   UNL     1      45.796   5.554   9.129  0.00  0.00    +0.000 HD
BRANCH   8  10
ATOM     10  C   UNL     1      44.224   4.152   9.102  0.00  0.00    +0.000 C 
BRANCH  10  11
ATOM     11  C   UNL     1      45.022   3.266   8.131  0.00  0.00    +0.000 C 
ATOM     12  C   UNL     1      45.520   1.980   8.815  0.00  0.00    +0.000 C 
ATOM     13  C   UNL     1      46.332   1.115   7.857  0.00  0.00    +0.000 C 
ATOM     14  C   UNL     1      47.494   1.893   7.250  0.00  0.00    +0.000 C 
ATOM     15  C   UNL     1      47.018   3.178   6.578  0.00  0.00    +0.000 C 
ATOM     16  C   UNL     1      46.204   4.046   7.534  0.00  0.00    +0.000 C 
ENDBRANCH  10  11
ENDBRANCH   8  10
ENDBRANCH   5   8
ENDBRANCH   1   2
BRANCH   1  19
ATOM     17  C   UNL     1      48.563   5.430  16.554  0.00  0.00    +0.000 C 
ATOM     18  O   UNL     1      49.304   4.462  16.657  0.00  0.00    +0.000 OA
ATOM     19  N   UNL     1      47.457   5.423  15.729  0.00  0.00    +0.000 N 
ATOM     20  H   UNL     1      46.805   6.192  15.742  0.00  0.00    +0.000 HD
BRANCH  17  24
ATOM     21  C   UNL     1      48.676   8.728  20.294  0.00  0.00    +0.000 C 
ATOM     22  N   UNL     1      48.813   8.143  18.980  0.00  0.00    +0.000 N 
ATOM     23  C   UNL     1      48.563   6.839  18.653  0.00  0.00    +0.000 A 
ATOM     24  C   UNL     1      48.782   6.674  17.289  0.00  0.00    +0.000 A 
ATOM     25  C   UNL     1      49.199   7.957  16.782  0.00  0.00    +0.000 A 
ATOM     26  C   UNL     1      49.594   8.550  15.584  0.00  0.00    +0.000 A 
ATOM     27 CL   UNL     1      49.744   7.650  14.156  0.00  0.00    +0.000 Cl
ATOM     28  N   UNL     1      49.944   9.847  15.503  0.00  0.00    +0.000 NA
ATOM     29  C   UNL     1      49.891  10.561  16.632  0.00  0.00    +0.000 A 
ATOM     30  N   UNL     1      49.536  10.136  17.854  0.00  0.00    +0.000 NA
ATOM     31  C   UNL     1      49.205   8.833  17.866  0.00  0.00    +0.000 A 
ENDBRANCH  17  24
ENDBRANCH   1  19
TORSDOF 6
ENDMDL
MODEL 5
REMARK VINA RESULT:    -7.269      2.222      3.065
REMARK INTER + INTRA:         -11.170
REMARK INTER:                 -10.316
REMARK INTRA:                  -0.853
REMARK UNBOUND:                -1.351
REMARK  Name = 
REMARK  7 active torsions:
REMARK  status: ('A' for Active; 'I' for Inactive)
REMARK    1  A    between atoms: C_1  and  N_2
REMARK    2  A    between atoms: C_4  and  C_5
REMARK    3  A    between atoms: N_7  and  C_8
REMARK    4  A    between atoms: C_8  and  C_9
REMARK    5  A    between atoms: C_12  and  N_13
REMARK    6  A    between atoms: N_13  and  C_14
REMARK    7  A    between atoms: C_14  and  C_15
REMARK                            x       y       z     vdW  Elec       q    Type
REMARK                         _______ _______ _______ _____ _____    ______ ____
ROOT
ATOM      1  C   UNL     1      48.376   6.629  13.971  0.00  0.00    +0.000 C 
ENDROOT
BRANCH   1   2
ATOM      2  C   UNL     1      47.278   5.943  13.204  0.00  0.00    +0.000 A 
ATOM      3  C   UNL     1      46.756   4.726  13.656  0.00  0.00    +0.000 A 
ATOM      4  C   UNL     1      45.681   4.121  12.994  0.00  0.00    +0.000 A 
ATOM      5  C   UNL     1      45.131   4.687  11.842  0.00  0.00    +0.000 A 
ATOM      6  C   UNL     1      45.674   5.894  11.385  0.00  0.00    +0.000 A 
ATOM      7  C   UNL     1      46.739   6.515  12.050  0.00  0.00    +0.000 A 
BRANCH   5   8
ATOM      8  N   UNL     1      43.997   4.199  11.210  0.00  0.00    +0.000 N 
ATOM      9  H   UNL     1      43.340   4.917  10.920  0.00  0.00    +0.000 HD
BRANCH   8  10
ATOM     10  C   UNL     1      43.998   2.981  10.415  0.00  0.00    +0.000 C 
BRANCH  10  11
ATOM     11  C   UNL     1      45.214   2.980   9.474  0.00  0.00    +0.000 C 
ATOM     12  C   UNL     1      45.103   4.079   8.402  0.00  0.00    +0.000 C 
ATOM     13  C   UNL     1      46.298   4.060   7.455  0.00  0.00    +0.000 C 
ATOM     14  C   UNL     1      46.479   2.690   6.811  0.00  0.00    +0.000 C 
ATOM     15  C   UNL     1      46.578   1.587   7.861  0.00  0.00    +0.000 C 
ATOM     16  C   UNL     1      45.384   1.604   8.812  0.00  0.00    +0.000 C 
ENDBRANCH  10  11
ENDBRANCH   8  10
ENDBRANCH   5   8
ENDBRANCH   1   2
BRANCH   1  19
ATOM     17  C   UNL     1      49.255   6.459  16.236  0.00  0.00    +0.000 C 
ATOM     18  O   UNL     1      50.404   6.475  15.817  0.00  0.00    +0.000 OA
ATOM     19  N   UNL     1      48.166   6.571  15.396  0.00  0.00    +0.000 N 
ATOM     20  H   UNL     1      47.231   6.450  15.753  0.00  0.00    +0.000 HD
BRANCH  17  24
ATOM     21  C   UNL     1      48.666   4.429  20.753  0.00  0.00    +0.000 C 
ATOM     22  N   UNL     1      48.666   5.389  19.673  0.00  0.00    +0.000 N 
ATOM     23  C   UNL     1      49.138   5.171  18.408  0.00  0.00    +0.000 A 
ATOM     24  C   UNL     1      48.934   6.324  17.655  0.00  0.00    +0.000 A 
ATOM     25  C   UNL     1      48.317   7.285  18.534  0.00  0.00    +0.000 A 
ATOM     26  C   UNL     1      47.854   8.599  18.515  0.00  0.00    +0.000 A 
ATOM     27 CL   UNL     1      48.011   9.576  17.139  0.00  0.00    +0.000 Cl
ATOM     28  N   UNL     1      47.323   9.192  19.600  0.00  0.00    +0.000 NA
ATOM     29  C   UNL     1      47.247   8.458  20.715  0.00  0.00    +0.000 A 
ATOM     30  N   UNL     1      47.648   7.190  20.890  0.00  0.00    +0.000 NA
ATOM     31  C   UNL     1      48.173   6.661  19.772  0.00  0.00    +0.000 A 
ENDBRANCH  17  24
ENDBRANCH   1  19
TORSDOF 6
ENDMDL
MODEL 6
REMARK VINA RESULT:    -7.256      2.640      4.443
REMARK INTER + INTRA:         -11.152
REMARK INTER:                 -10.113
REMARK INTRA:                  -1.039
REMARK UNBOUND:                -1.351
REMARK  Name = 
REMARK  7 active torsions:
REMARK  status: ('A' for Active; 'I' for Inactive)
REMARK    1  A    between atoms: C_1  and  N_2
REMARK    2  A    between atoms: C_4  and  C_5
REMARK    3  A    between atoms: N_7  and  C_8
REMARK    4  A    between atoms: C_8  and  C_9
REMARK    5  A    between atoms: C_12  and  N_13
REMARK    6  A    between atoms: N_13  and  C_14
REMARK    7  A    between atoms: C_14  and  C_15
REMARK                            x       y       z     vdW  Elec       q    Type
REMARK                         _______ _______ _______ _____ _____    ______ ____
ROOT
ATOM      1  C   UNL     1      47.126   5.362  14.387  0.00  0.00    +0.000 C 
ENDROOT
BRANCH   1   2
ATOM      2  C   UNL     1      46.324   4.911  13.197  0.00  0.00    +0.000 A 
ATOM      3  C   UNL     1      46.048   5.802  12.155  0.00  0.00    +0.000 A 
ATOM      4  C   UNL     1      45.373   5.371  11.007  0.00  0.00    +0.000 A 
ATOM      5  C   UNL     1      44.914   4.057  10.889  0.00  0.00    +0.000 A 
ATOM      6  C   UNL     1      45.177   3.177  11.946  0.00  0.00    +0.000 A 
ATOM      7  C   UNL     1      45.866   3.596  13.092  0.00  0.00    +0.000 A 
BRANCH   5   8
ATOM      8  N   UNL     1      44.343   3.541   9.735  0.00  0.00    +0.000 N 
ATOM      9  H   UNL     1      43.411   3.160   9.866  0.00  0.00    +0.000 HD
BRANCH   8  10
ATOM     10  C   UNL     1      44.635   4.061   8.409  0.00  0.00    +0.000 C 
BRANCH  10  11
ATOM     11  C   UNL     1      45.400   3.005   7.595  0.00  0.00    +0.000 C 
ATOM     12  C   UNL     1      45.876   1.840   8.482  0.00  0.00    +0.000 C 
ATOM     13  C   UNL     1      46.655   0.805   7.677  0.00  0.00    +0.000 C 
ATOM     14  C   UNL     1      47.828   1.440   6.938  0.00  0.00    +0.000 C 
ATOM     15  C   UNL     1      47.374   2.605   6.063  0.00  0.00    +0.000 C 
ATOM     16  C   UNL     1      46.593   3.642   6.866  0.00  0.00    +0.000 C 
ENDBRANCH  10  11
ENDBRANCH   8  10
ENDBRANCH   5   8
ENDBRANCH   1   2
BRANCH   1  19
ATOM     17  C   UNL     1      48.675   7.193  14.812  0.00  0.00    +0.000 C 
ATOM     18  O   UNL     1      49.518   6.413  15.233  0.00  0.00    +0.000 OA
ATOM     19  N   UNL     1      47.457   6.763  14.326  0.00  0.00    +0.000 N 
ATOM     20  H   UNL     1      46.740   7.430  14.084  0.00  0.00    +0.000 HD
BRANCH  17  24
ATOM     21  C   UNL     1      49.201  11.902  16.364  0.00  0.00    +0.000 C 
ATOM     22  N   UNL     1      49.103  10.749  15.500  0.00  0.00    +0.000 N 
ATOM     23  C   UNL     1      48.973   9.450  15.908  0.00  0.00    +0.000 A 
ATOM     24  C   UNL     1      48.881   8.638  14.782  0.00  0.00    +0.000 A 
ATOM     25  C   UNL     1      48.976   9.511  13.638  0.00  0.00    +0.000 A 
ATOM     26  C   UNL     1      48.984   9.442  12.247  0.00  0.00    +0.000 A 
ATOM     27 CL   UNL     1      48.917   7.958  11.431  0.00  0.00    +0.000 Cl
ATOM     28  N   UNL     1      49.114  10.535  11.472  0.00  0.00    +0.000 NA
ATOM     29  C   UNL     1      49.230  11.711  12.097  0.00  0.00    +0.000 A 
ATOM     30  N   UNL     1      49.241  11.938  13.419  0.00  0.00    +0.000 NA
ATOM     31  C   UNL     1      49.114  10.806  14.133  0.00  0.00    +0.000 A 
ENDBRANCH  17  24
ENDBRANCH   1  19
TORSDOF 6
ENDMDL
MODEL 7
REMARK VINA RESULT:    -7.237      3.025      5.169
REMARK INTER + INTRA:         -11.126
REMARK INTER:                 -10.521
REMARK INTRA:                  -0.604
REMARK UNBOUND:                -1.351
REMARK  Name = 
REMARK  7 active torsions:
REMARK  status: ('A' for Active; 'I' for Inactive)
REMARK    1  A    between atoms: C_1  and  N_2
REMARK    2  A    between atoms: C_4  and  C_5
REMARK    3  A    between atoms: N_7  and  C_8
REMARK    4  A    between atoms: C_8  and  C_9
REMARK    5  A    between atoms: C_12  and  N_13
REMARK    6  A    between atoms: N_13  and  C_14
REMARK    7  A    between atoms: C_14  and  C_15
REMARK                            x       y       z     vdW  Elec       q    Type
REMARK                         _______ _______ _______ _____ _____    ______ ____
ROOT
ATOM      1  C   UNL     1      44.429   4.013  10.222  0.00  0.00    +0.000 C 
ENDROOT
BRANCH   1   2
ATOM      2  C   UNL     1      45.284   3.446   9.121  0.00  0.00    +0.000 A 
ATOM      3  C   UNL     1      45.439   2.062   8.991  0.00  0.00    +0.000 A 
ATOM      4  C   UNL     1      46.166   1.523   7.923  0.00  0.00    +0.000 A 
ATOM      5  C   UNL     1      46.794   2.347   6.988  0.00  0.00    +0.000 A 
ATOM      6  C   UNL     1      46.651   3.731   7.138  0.00  0.00    +0.000 A 
ATOM      7  C   UNL     1      45.912   4.280   8.194  0.00  0.00    +0.000 A 
BRANCH   5   8
ATOM      8  N   UNL     1      47.429   1.874   5.848  0.00  0.00    +0.000 N 
ATOM      9  H   UNL     1      47.916   0.992   5.979  0.00  0.00    +0.000 HD
BRANCH   8  10
ATOM     10  C   UNL     1      46.938   2.136   4.505  0.00  0.00    +0.000 C 
BRANCH  10  11
ATOM     11  C   UNL     1      46.905   0.826   3.702  0.00  0.00    +0.000 C 
ATOM     12  C   UNL     1      45.651   0.736   2.813  0.00  0.00    +0.000 C 
ATOM     13  C   UNL     1      45.608  -0.575   2.036  0.00  0.00    +0.000 C 
ATOM     14  C   UNL     1      45.702  -1.779   2.965  0.00  0.00    +0.000 C 
ATOM     15  C   UNL     1      46.934  -1.700   3.862  0.00  0.00    +0.000 C 
ATOM     16  C   UNL     1      46.981  -0.387   4.641  0.00  0.00    +0.000 C 
ENDBRANCH  10  11
ENDBRANCH   8  10
ENDBRANCH   5   8
ENDBRANCH   1   2
BRANCH   1  19
ATOM     17  C   UNL     1      45.772   5.316  11.781  0.00  0.00    +0.000 C 
ATOM     18  O   UNL     1      45.684   6.305  11.067  0.00  0.00    +0.000 OA
ATOM     19  N   UNL     1      45.145   4.127  11.468  0.00  0.00    +0.000 N 
ATOM     20  H   UNL     1      45.318   3.299  12.016  0.00  0.00    +0.000 HD
BRANCH  17  24
ATOM     21  C   UNL     1      47.169   4.202  16.437  0.00  0.00    +0.000 C 
ATOM     22  N   UNL     1      47.143   4.799  15.122  0.00  0.00    +0.000 N 
ATOM     23  C   UNL     1      46.258   4.499  14.123  0.00  0.00    +0.000 A 
ATOM     24  C   UNL     1      46.540   5.304  13.024  0.00  0.00    +0.000 A 
ATOM     25  C   UNL     1      47.669   6.120  13.392  0.00  0.00    +0.000 A 
ATOM     26  C   UNL     1      48.494   7.102  12.847  0.00  0.00    +0.000 A 
ATOM     27 CL   UNL     1      48.319   7.617  11.242  0.00  0.00    +0.000 Cl
ATOM     28  N   UNL     1      49.516   7.648  13.532  0.00  0.00    +0.000 NA
ATOM     29  C   UNL     1      49.709   7.211  14.781  0.00  0.00    +0.000 A 
ATOM     30  N   UNL     1      49.007   6.277  15.440  0.00  0.00    +0.000 NA
ATOM     31  C   UNL     1      48.008   5.770  14.698  0.00  0.00    +0.000 A 
ENDBRANCH  17  24
ENDBRANCH   1  19
TORSDOF 6
ENDMDL
MODEL 8
REMARK VINA RESULT:    -7.202      2.073      3.074
REMARK INTER + INTRA:         -11.079
REMARK INTER:                 -10.190
REMARK INTRA:                  -0.889
REMARK UNBOUND:                -1.351
REMARK  Name = 
REMARK  7 active torsions:
REMARK  status: ('A' for Active; 'I' for Inactive)
REMARK    1  A    between atoms: C_1  and  N_2
REMARK    2  A    between atoms: C_4  and  C_5
REMARK    3  A    between atoms: N_7  and  C_8
REMARK    4  A    between atoms: C_8  and  C_9
REMARK    5  A    between atoms: C_12  and  N_13
REMARK    6  A    between atoms: N_13  and  C_14
REMARK    7  A    between atoms: C_14  and  C_15
REMARK                            x       y       z     vdW  Elec       q    Type
REMARK                         _______ _______ _______ _____ _____    ______ ____
ROOT
ATOM      1  C   UNL     1      46.935   4.472  14.867  0.00  0.00    +0.000 C 
ENDROOT
BRANCH   1   2
ATOM      2  C   UNL     1      46.406   4.659  13.471  0.00  0.00    +0.000 A 
ATOM      3  C   UNL     1      46.657   5.847  12.775  0.00  0.00    +0.000 A 
ATOM      4  C   UNL     1      46.239   5.999  11.448  0.00  0.00    +0.000 A 
ATOM      5  C   UNL     1      45.519   4.994  10.798  0.00  0.00    +0.000 A 
ATOM      6  C   UNL     1      45.254   3.817  11.509  0.00  0.00    +0.000 A 
ATOM      7  C   UNL     1      45.683   3.650  12.832  0.00  0.00    +0.000 A 
BRANCH   5   8
ATOM      8  N   UNL     1      45.178   5.038   9.454  0.00  0.00    +0.000 N 
ATOM      9  H   UNL     1      45.891   5.447   8.857  0.00  0.00    +0.000 HD
BRANCH   8  10
ATOM     10  C   UNL     1      44.313   4.052   8.827  0.00  0.00    +0.000 C 
BRANCH  10  11
ATOM     11  C   UNL     1      45.148   3.136   7.916  0.00  0.00    +0.000 C 
ATOM     12  C   UNL     1      45.637   1.883   8.665  0.00  0.00    +0.000 C 
ATOM     13  C   UNL     1      46.485   0.989   7.766  0.00  0.00    +0.000 C 
ATOM     14  C   UNL     1      47.658   1.754   7.164  0.00  0.00    +0.000 C 
ATOM     15  C   UNL     1      47.191   3.007   6.428  0.00  0.00    +0.000 C 
ATOM     16  C   UNL     1      46.340   3.904   7.325  0.00  0.00    +0.000 C 
ENDBRANCH  10  11
ENDBRANCH   8  10
ENDBRANCH   5   8
ENDBRANCH   1   2
BRANCH   1  19
ATOM     17  C   UNL     1      48.592   5.458  16.354  0.00  0.00    +0.000 C 
ATOM     18  O   UNL     1      48.835   4.365  16.848  0.00  0.00    +0.000 OA
ATOM     19  N   UNL     1      47.685   5.613  15.326  0.00  0.00    +0.000 N 
ATOM     20  H   UNL     1      47.426   6.535  15.009  0.00  0.00    +0.000 HD
BRANCH  17  24
ATOM     21  C   UNL     1      51.536   9.484  16.386  0.00  0.00    +0.000 C 
ATOM     22  N   UNL     1      50.578   8.485  16.802  0.00  0.00    +0.000 N 
ATOM     23  C   UNL     1      50.127   7.441  16.041  0.00  0.00    +0.000 A 
ATOM     24  C   UNL     1      49.239   6.688  16.803  0.00  0.00    +0.000 A 
ATOM     25  C   UNL     1      49.151   7.335  18.088  0.00  0.00    +0.000 A 
ATOM     26  C   UNL     1      48.488   7.194  19.306  0.00  0.00    +0.000 A 
ATOM     27 CL   UNL     1      47.346   5.967  19.558  0.00  0.00    +0.000 Cl
ATOM     28  N   UNL     1      48.661   8.056  20.325  0.00  0.00    +0.000 NA
ATOM     29  C   UNL     1      49.512   9.067  20.125  0.00  0.00    +0.000 A 
ATOM     30  N   UNL     1      50.218   9.337  19.017  0.00  0.00    +0.000 NA
ATOM     31  C   UNL     1      49.994   8.443  18.038  0.00  0.00    +0.000 A 
ENDBRANCH  17  24
ENDBRANCH   1  19
TORSDOF 6
ENDMDL
MODEL 9
REMARK VINA RESULT:    -7.021      2.128      2.951
REMARK INTER + INTRA:         -10.834
REMARK INTER:                 -10.041
REMARK INTRA:                  -0.794
REMARK UNBOUND:                -1.351
REMARK  Name = 
REMARK  7 active torsions:
REMARK  status: ('A' for Active; 'I' for Inactive)
REMARK    1  A    between atoms: C_1  and  N_2
REMARK    2  A    between atoms: C_4  and  C_5
REMARK    3  A    between atoms: N_7  and  C_8
REMARK    4  A    between atoms: C_8  and  C_9
REMARK    5  A    between atoms: C_12  and  N_13
REMARK    6  A    between atoms: N_13  and  C_14
REMARK    7  A    between atoms: C_14  and  C_15
REMARK                            x       y       z     vdW  Elec       q    Type
REMARK                         _______ _______ _______ _____ _____    ______ ____
ROOT
ATOM      1  C   UNL     1      46.178   4.512  14.761  0.00  0.00    +0.000 C 
ENDROOT
BRANCH   1   2
ATOM      2  C   UNL     1      45.970   4.594  13.273  0.00  0.00    +0.000 A 
ATOM      3  C   UNL     1      45.443   3.503  12.574  0.00  0.00    +0.000 A 
ATOM      4  C   UNL     1      45.171   3.597  11.204  0.00  0.00    +0.000 A 
ATOM      5  C   UNL     1      45.460   4.761  10.489  0.00  0.00    +0.000 A 
ATOM      6  C   UNL     1      46.006   5.841  11.193  0.00  0.00    +0.000 A 
ATOM      7  C   UNL     1      46.267   5.761  12.567  0.00  0.00    +0.000 A 
BRANCH   5   8
ATOM      8  N   UNL     1      45.109   4.956   9.161  0.00  0.00    +0.000 N 
ATOM      9  H   UNL     1      45.573   5.743   8.719  0.00  0.00    +0.000 HD
BRANCH   8  10
ATOM     10  C   UNL     1      44.727   3.866   8.278  0.00  0.00    +0.000 C 
BRANCH  10  11
ATOM     11  C   UNL     1      45.983   3.101   7.827  0.00  0.00    +0.000 C 
ATOM     12  C   UNL     1      46.267   3.308   6.328  0.00  0.00    +0.000 C 
ATOM     13  C   UNL     1      47.498   2.529   5.879  0.00  0.00    +0.000 C 
ATOM     14  C   UNL     1      47.373   1.046   6.209  0.00  0.00    +0.000 C 
ATOM     15  C   UNL     1      47.080   0.824   7.690  0.00  0.00    +0.000 C 
ATOM     16  C   UNL     1      45.847   1.604   8.143  0.00  0.00    +0.000 C 
ENDBRANCH  10  11
ENDBRANCH   8  10
ENDBRANCH   5   8
ENDBRANCH   1   2
BRANCH   1  19
ATOM     17  C   UNL     1      47.825   4.984  16.492  0.00  0.00    +0.000 C 
ATOM     18  O   UNL     1      47.163   4.376  17.322  0.00  0.00    +0.000 OA
ATOM     19  N   UNL     1      47.439   5.076  15.170  0.00  0.00    +0.000 N 
ATOM     20  H   UNL     1      47.946   5.670  14.531  0.00  0.00    +0.000 HD
BRANCH  17  24
ATOM     21  C   UNL     1      51.188   8.611  17.129  0.00  0.00    +0.000 C 
ATOM     22  N   UNL     1      50.577   7.303  17.090  0.00  0.00    +0.000 N 
ATOM     23  C   UNL     1      49.272   7.037  16.779  0.00  0.00    +0.000 A 
ATOM     24  C   UNL     1      49.078   5.659  16.822  0.00  0.00    +0.000 A 
ATOM     25  C   UNL     1      50.343   5.078  17.194  0.00  0.00    +0.000 A 
ATOM     26  C   UNL     1      50.906   3.828  17.445  0.00  0.00    +0.000 A 
ATOM     27 CL   UNL     1      49.978   2.411  17.401  0.00  0.00    +0.000 Cl
ATOM     28  N   UNL     1      52.194   3.677  17.805  0.00  0.00    +0.000 NA
ATOM     29  C   UNL     1      52.930   4.789  17.906  0.00  0.00    +0.000 A 
ATOM     30  N   UNL     1      52.534   6.054  17.700  0.00  0.00    +0.000 NA
ATOM     31  C   UNL     1      51.239   6.134  17.351  0.00  0.00    +0.000 A 
ENDBRANCH  17  24
ENDBRANCH   1  19
TORSDOF 6
ENDMDL
