MODEL 1
REMARK VINA RESULT:    -8.197      0.000      0.000
REMARK INTER + INTRA:         -13.193
REMARK INTER:                 -12.030
REMARK INTRA:                  -1.163
REMARK UNBOUND:                -1.163
REMARK  Name = 
REMARK  9 active torsions:
REMARK  status: ('A' for Active; 'I' for Inactive)
REMARK    1  A    between atoms: C_2  and  O_3
REMARK    2  A    between atoms: C_2  and  C_21
REMARK    3  A    between atoms: O_3  and  C_4
REMARK    4  A    between atoms: C_4  and  C_5
REMARK    5  A    between atoms: C_8  and  C_9
REMARK    6  A    between atoms: C_9  and  O_10
REMARK    7  A    between atoms: C_9  and  C_11
REMARK    8  A    between atoms: C_9  and  C_13
REMARK    9  A    between atoms: C_11  and  O_12
REMARK                            x       y       z     vdW  Elec       q    Type
REMARK                         _______ _______ _______ _____ _____    ______ ____
ROOT
ATOM      1  C   UNL     1      47.019   4.924  14.076  0.00  0.00    +0.000 A 
ATOM      2  C   UNL     1      46.431   5.940  13.319  0.00  0.00    +0.000 A 
ATOM      3  C   UNL     1      45.561   5.634  12.270  0.00  0.00    +0.000 A 
ATOM      4  C   UNL     1      45.268   4.301  11.927  0.00  0.00    +0.000 A 
ATOM      5  C   UNL     1      45.894   3.287  12.675  0.00  0.00    +0.000 A 
ATOM      6  C   UNL     1      46.756   3.594  13.730  0.00  0.00    +0.000 A 
ENDROOT
BRANCH   1   7
ATOM      7  C   UNL     1      47.895   5.257  15.257  0.00  0.00    +0.000 C 
BRANCH   7   8
ATOM      8  O   UNL     1      47.180   5.095  16.492  0.00  0.00    +0.000 OA
BRANCH   8  10
ATOM      9  O   UNL     1      46.716   3.064  17.425  0.00  0.00    +0.000 OA
ATOM     10  C   UNL     1      47.485   3.997  17.218  0.00  0.00    +0.000 C 
BRANCH  10  11
ATOM     11  C   UNL     1      48.807   4.072  17.832  0.00  0.00    +0.000 A 
ATOM     12  C   UNL     1      49.090   5.049  18.774  0.00  0.00    +0.000 A 
ATOM     13  S   UNL     1      50.697   4.995  19.346  0.00  0.00    +0.000 S 
ATOM     14  C   UNL     1      51.044   3.621  18.402  0.00  0.00    +0.000 A 
ATOM     15  N   UNL     1      52.264   3.023  18.468  0.00  0.00    +0.000 NA
ATOM     16  C   UNL     1      52.374   1.958  17.747  0.00  0.00    +0.000 A 
ATOM     17  N   UNL     1      51.380   1.449  16.953  0.00  0.00    +0.000 N 
ATOM     18  C   UNL     1      50.138   2.028  16.832  0.00  0.00    +0.000 A 
ATOM     19  O   UNL     1      49.291   1.522  16.107  0.00  0.00    +0.000 OA
ATOM     20  C   UNL     1      49.958   3.224  17.639  0.00  0.00    +0.000 A 
ATOM     21  H   UNL     1      51.523   0.605  16.417  0.00  0.00    +0.000 HD
ENDBRANCH  10  11
ENDBRANCH   8  10
ENDBRANCH   7   8
ENDBRANCH   1   7
BRANCH   4  22
ATOM     22  C   UNL     1      44.277   3.930  10.806  0.00  0.00    +0.000 C 
BRANCH  22  23
ATOM     23  C   UNL     1      45.014   3.558   9.505  0.00  0.00    +0.000 A 
ATOM     24  C   UNL     1      45.217   2.215   9.177  0.00  0.00    +0.000 A 
ATOM     25  C   UNL     1      45.956   1.893   8.041  0.00  0.00    +0.000 A 
ATOM     26  C   UNL     1      46.456   2.912   7.242  0.00  0.00    +0.000 A 
ATOM     27  C   UNL     1      46.192   4.219   7.612  0.00  0.00    +0.000 A 
ATOM     28  N   UNL     1      45.498   4.562   8.720  0.00  0.00    +0.000 NA
ENDBRANCH  22  23
BRANCH  22  29
ATOM     29  O   UNL     1      43.479   2.788  11.193  0.00  0.00    +0.000 OA
ATOM     30  H   UNL     1      44.114   2.069  11.343  0.00  0.00    +0.000 HD
ENDBRANCH  22  29
BRANCH  22  31
ATOM     31  C   UNL     1      43.270   5.094  10.555  0.00  0.00    +0.000 C 
BRANCH  31  32
ATOM     32  O   UNL     1      42.210   5.101  11.527  0.00  0.00    +0.000 OA
ATOM     33  H   UNL     1      42.194   4.215  11.927  0.00  0.00    +0.000 HD
ENDBRANCH  31  32
ENDBRANCH  22  31
ENDBRANCH   4  22
TORSDOF 9
ENDMDL
MODEL 2
REMARK VINA RESULT:    -7.939      0.780      1.186
REMARK INTER + INTRA:         -12.815
REMARK INTER:                 -11.920
REMARK INTRA:                  -0.895
REMARK UNBOUND:                -1.163
REMARK  Name = 
REMARK  9 active torsions:
REMARK  status: ('A' for Active; 'I' for Inactive)
REMARK    1  A    between atoms: C_2  and  O_3
REMARK    2  A    between atoms: C_2  and  C_21
REMARK    3  A    between atoms: O_3  and  C_4
REMARK    4  A    between atoms: C_4  and  C_5
REMARK    5  A    between atoms: C_8  and  C_9
REMARK    6  A    between atoms: C_9  and  O_10
REMARK    7  A    between atoms: C_9  and  C_11
REMARK    8  A    between atoms: C_9  and  C_13
REMARK    9  A    between atoms: C_11  and  O_12
REMARK                            x       y       z     vdW  Elec       q    Type
REMARK                         _______ _______ _______ _____ _____    ______ ____
ROOT
ATOM      1  C   UNL     1      46.994   5.308  14.075  0.00  0.00    +0.000 A 
ATOM      2  C   UNL     1      46.682   3.962  13.864  0.00  0.00    +0.000 A 
ATOM      3  C   UNL     1      45.762   3.590  12.882  0.00  0.00    +0.000 A 
ATOM      4  C   UNL     1      45.104   4.551  12.092  0.00  0.00    +0.000 A 
ATOM      5  C   UNL     1      45.401   5.904  12.338  0.00  0.00    +0.000 A 
ATOM      6  C   UNL     1      46.329   6.276  13.314  0.00  0.00    +0.000 A 
ENDROOT
BRANCH   1   7
ATOM      7  C   UNL     1      48.045   5.702  15.081  0.00  0.00    +0.000 C 
BRANCH   7   8
ATOM      8  O   UNL     1      48.515   4.558  15.811  0.00  0.00    +0.000 OA
BRANCH   8  10
ATOM      9  O   UNL     1      47.595   5.068  17.836  0.00  0.00    +0.000 OA
ATOM     10  C   UNL     1      48.538   4.678  17.157  0.00  0.00    +0.000 C 
BRANCH  10  11
ATOM     11  C   UNL     1      49.850   4.393  17.730  0.00  0.00    +0.000 A 
ATOM     12  C   UNL     1      50.471   5.317  18.556  0.00  0.00    +0.000 A 
ATOM     13  S   UNL     1      52.012   4.818  19.094  0.00  0.00    +0.000 S 
ATOM     14  C   UNL     1      51.867   3.321  18.293  0.00  0.00    +0.000 A 
ATOM     15  N   UNL     1      52.844   2.382  18.395  0.00  0.00    +0.000 NA
ATOM     16  C   UNL     1      52.581   1.273  17.788  0.00  0.00    +0.000 A 
ATOM     17  N   UNL     1      51.436   1.028  17.076  0.00  0.00    +0.000 N 
ATOM     18  C   UNL     1      50.429   1.952  16.923  0.00  0.00    +0.000 A 
ATOM     19  O   UNL     1      49.429   1.670  16.275  0.00  0.00    +0.000 OA
ATOM     20  C   UNL     1      50.671   3.214  17.601  0.00  0.00    +0.000 A 
ATOM     21  H   UNL     1      51.283   0.134  16.630  0.00  0.00    +0.000 HD
ENDBRANCH  10  11
ENDBRANCH   8  10
ENDBRANCH   7   8
ENDBRANCH   1   7
BRANCH   4  22
ATOM     22  C   UNL     1      44.118   4.172  10.969  0.00  0.00    +0.000 C 
BRANCH  22  23
ATOM     23  C   UNL     1      44.861   3.708   9.702  0.00  0.00    +0.000 A 
ATOM     24  C   UNL     1      45.010   2.343   9.440  0.00  0.00    +0.000 A 
ATOM     25  C   UNL     1      45.754   1.936   8.335  0.00  0.00    +0.000 A 
ATOM     26  C   UNL     1      46.314   2.894   7.501  0.00  0.00    +0.000 A 
ATOM     27  C   UNL     1      46.102   4.226   7.805  0.00  0.00    +0.000 A 
ATOM     28  N   UNL     1      45.404   4.651   8.881  0.00  0.00    +0.000 NA
ENDBRANCH  22  23
BRANCH  22  29
ATOM     29  O   UNL     1      43.263   3.086  11.391  0.00  0.00    +0.000 OA
ATOM     30  H   UNL     1      43.258   3.124  12.361  0.00  0.00    +0.000 HD
ENDBRANCH  22  29
BRANCH  22  31
ATOM     31  C   UNL     1      43.170   5.367  10.645  0.00  0.00    +0.000 C 
BRANCH  31  32
ATOM     32  O   UNL     1      42.025   5.390  11.514  0.00  0.00    +0.000 OA
ATOM     33  H   UNL     1      42.170   4.700  12.184  0.00  0.00    +0.000 HD
ENDBRANCH  31  32
ENDBRANCH  22  31
ENDBRANCH   4  22
TORSDOF 9
ENDMDL
MODEL 3
REMARK VINA RESULT:    -7.196      2.256      2.996
REMARK INTER + INTRA:         -11.724
REMARK INTER:                 -10.626
REMARK INTRA:                  -1.098
REMARK UNBOUND:                -1.163
REMARK  Name = 
REMARK  9 active torsions:
REMARK  status: ('A' for Active; 'I' for Inactive)
REMARK    1  A    between atoms: C_2  and  O_3
REMARK    2  A    between atoms: C_2  and  C_21
REMARK    3  A    between atoms: O_3  and  C_4
REMARK    4  A    between atoms: C_4  and  C_5
REMARK    5  A    between atoms: C_8  and  C_9
REMARK    6  A    between atoms: C_9  and  O_10
REMARK    7  A    between atoms: C_9  and  C_11
REMARK    8  A    between atoms: C_9  and  C_13
REMARK    9  A    between atoms: C_11  and  O_12
REMARK                            x       y       z     vdW  Elec       q    Type
REMARK                         _______ _______ _______ _____ _____    ______ ____
ROOT
ATOM      1  C   UNL     1      47.469   6.612  13.684  0.00  0.00    +0.000 A 
ATOM      2  C   UNL     1      47.346   5.237  13.900  0.00  0.00    +0.000 A 
ATOM      3  C   UNL     1      46.279   4.522  13.353  0.00  0.00    +0.000 A 
ATOM      4  C   UNL     1      45.284   5.162  12.590  0.00  0.00    +0.000 A 
ATOM      5  C   UNL     1      45.400   6.552  12.409  0.00  0.00    +0.000 A 
ATOM      6  C   UNL     1      46.474   7.265  12.948  0.00  0.00    +0.000 A 
ENDROOT
BRANCH   1   7
ATOM      7  C   UNL     1      48.664   7.367  14.209  0.00  0.00    +0.000 C 
BRANCH   7   8
ATOM      8  O   UNL     1      49.550   6.494  14.928  0.00  0.00    +0.000 OA
BRANCH   8  10
ATOM      9  O   UNL     1      51.428   7.480  15.771  0.00  0.00    +0.000 OA
ATOM     10  C   UNL     1      50.282   7.065  15.910  0.00  0.00    +0.000 C 
BRANCH  10  11
ATOM     11  C   UNL     1      49.608   7.048  17.204  0.00  0.00    +0.000 A 
ATOM     12  C   UNL     1      49.006   8.195  17.698  0.00  0.00    +0.000 A 
ATOM     13  S   UNL     1      48.305   7.984  19.239  0.00  0.00    +0.000 S 
ATOM     14  C   UNL     1      48.725   6.334  19.264  0.00  0.00    +0.000 A 
ATOM     15  N   UNL     1      48.362   5.541  20.307  0.00  0.00    +0.000 NA
ATOM     16  C   UNL     1      48.692   4.299  20.172  0.00  0.00    +0.000 A 
ATOM     17  N   UNL     1      49.368   3.787  19.095  0.00  0.00    +0.000 N 
ATOM     18  C   UNL     1      49.778   4.550  18.027  0.00  0.00    +0.000 A 
ATOM     19  O   UNL     1      50.376   4.030  17.094  0.00  0.00    +0.000 OA
ATOM     20  C   UNL     1      49.416   5.954  18.125  0.00  0.00    +0.000 A 
ATOM     21  H   UNL     1      49.590   2.803  19.042  0.00  0.00    +0.000 HD
ENDBRANCH  10  11
ENDBRANCH   8  10
ENDBRANCH   7   8
ENDBRANCH   1   7
BRANCH   4  22
ATOM     22  C   UNL     1      44.118   4.395  11.934  0.00  0.00    +0.000 C 
BRANCH  22  23
ATOM     23  C   UNL     1      44.501   3.882  10.532  0.00  0.00    +0.000 A 
ATOM     24  C   UNL     1      44.266   2.548  10.189  0.00  0.00    +0.000 A 
ATOM     25  C   UNL     1      44.691   2.076   8.950  0.00  0.00    +0.000 A 
ATOM     26  C   UNL     1      45.318   2.946   8.069  0.00  0.00    +0.000 A 
ATOM     27  C   UNL     1      45.492   4.260   8.464  0.00  0.00    +0.000 A 
ATOM     28  N   UNL     1      45.111   4.741   9.667  0.00  0.00    +0.000 NA
ENDBRANCH  22  23
BRANCH  22  29
ATOM     29  O   UNL     1      43.754   3.246  12.731  0.00  0.00    +0.000 OA
ATOM     30  H   UNL     1      42.940   3.500  13.194  0.00  0.00    +0.000 HD
ENDBRANCH  22  29
BRANCH  22  31
ATOM     31  C   UNL     1      42.844   5.291  11.863  0.00  0.00    +0.000 C 
BRANCH  31  32
ATOM     32  O   UNL     1      42.749   5.987  10.609  0.00  0.00    +0.000 OA
ATOM     33  H   UNL     1      43.199   6.840  10.730  0.00  0.00    +0.000 HD
ENDBRANCH  31  32
ENDBRANCH  22  31
ENDBRANCH   4  22
TORSDOF 9
ENDMDL
MODEL 4
REMARK VINA RESULT:    -7.150      3.220      8.840
REMARK INTER + INTRA:         -11.657
REMARK INTER:                 -10.537
REMARK INTRA:                  -1.119
REMARK UNBOUND:                -1.163
REMARK  Name = 
REMARK  9 active torsions:
REMARK  status: ('A' for Active; 'I' for Inactive)
REMARK    1  A    between atoms: C_2  and  O_3
REMARK    2  A    between atoms: C_2  and  C_21
REMARK    3  A    between atoms: O_3  and  C_4
REMARK    4  A    between atoms: C_4  and  C_5
REMARK    5  A    between atoms: C_8  and  C_9
REMARK    6  A    between atoms: C_9  and  O_10
REMARK    7  A    between atoms: C_9  and  C_11
REMARK    8  A    between atoms: C_9  and  C_13
REMARK    9  A    between atoms: C_11  and  O_12
REMARK                            x       y       z     vdW  Elec       q    Type
REMARK                         _______ _______ _______ _____ _____    ______ ____
ROOT
ATOM      1  C   UNL     1      47.394   5.972  13.854  0.00  0.00    +0.000 A 
ATOM      2  C   UNL     1      46.715   4.762  14.017  0.00  0.00    +0.000 A 
ATOM      3  C   UNL     1      46.905   3.988  15.164  0.00  0.00    +0.000 A 
ATOM      4  C   UNL     1      47.797   4.385  16.176  0.00  0.00    +0.000 A 
ATOM      5  C   UNL     1      48.501   5.588  15.984  0.00  0.00    +0.000 A 
ATOM      6  C   UNL     1      48.304   6.367  14.841  0.00  0.00    +0.000 A 
ENDROOT
BRANCH   1   7
ATOM      7  C   UNL     1      47.129   6.843  12.652  0.00  0.00    +0.000 C 
BRANCH   7   8
ATOM      8  O   UNL     1      45.802   7.390  12.695  0.00  0.00    +0.000 OA
BRANCH   8  10
ATOM      9  O   UNL     1      44.603   8.453  11.070  0.00  0.00    +0.000 OA
ATOM     10  C   UNL     1      45.142   7.447  11.517  0.00  0.00    +0.000 C 
BRANCH  10  11
ATOM     11  C   UNL     1      45.039   6.148  10.861  0.00  0.00    +0.000 A 
ATOM     12  C   UNL     1      45.727   5.898   9.684  0.00  0.00    +0.000 A 
ATOM     13  S   UNL     1      45.449   4.338   9.052  0.00  0.00    +0.000 S 
ATOM     14  C   UNL     1      44.453   3.923  10.369  0.00  0.00    +0.000 A 
ATOM     15  N   UNL     1      43.919   2.676  10.471  0.00  0.00    +0.000 NA
ATOM     16  C   UNL     1      43.233   2.477  11.547  0.00  0.00    +0.000 A 
ATOM     17  N   UNL     1      43.020   3.419  12.519  0.00  0.00    +0.000 N 
ATOM     18  C   UNL     1      43.517   4.700  12.453  0.00  0.00    +0.000 A 
ATOM     19  O   UNL     1      43.292   5.495  13.357  0.00  0.00    +0.000 OA
ATOM     20  C   UNL     1      44.311   4.969  11.266  0.00  0.00    +0.000 A 
ATOM     21  H   UNL     1      42.480   3.200  13.345  0.00  0.00    +0.000 HD
ENDBRANCH  10  11
ENDBRANCH   8  10
ENDBRANCH   7   8
ENDBRANCH   1   7
BRANCH   4  22
ATOM     22  C   UNL     1      47.995   3.578  17.475  0.00  0.00    +0.000 C 
BRANCH  22  23
ATOM     23  C   UNL     1      48.190   4.506  18.689  0.00  0.00    +0.000 A 
ATOM     24  C   UNL     1      49.345   4.401  19.470  0.00  0.00    +0.000 A 
ATOM     25  C   UNL     1      49.472   5.188  20.612  0.00  0.00    +0.000 A 
ATOM     26  C   UNL     1      48.460   6.080  20.940  0.00  0.00    +0.000 A 
ATOM     27  C   UNL     1      47.359   6.152  20.106  0.00  0.00    +0.000 A 
ATOM     28  N   UNL     1      47.198   5.386  19.005  0.00  0.00    +0.000 NA
ENDBRANCH  22  23
BRANCH  22  29
ATOM     29  O   UNL     1      46.837   2.755  17.741  0.00  0.00    +0.000 OA
ATOM     30  H   UNL     1      46.385   3.180  18.488  0.00  0.00    +0.000 HD
ENDBRANCH  22  29
BRANCH  22  31
ATOM     31  C   UNL     1      49.199   2.597  17.333  0.00  0.00    +0.000 C 
BRANCH  31  32
ATOM     32  O   UNL     1      49.182   1.912  16.069  0.00  0.00    +0.000 OA
ATOM     33  H   UNL     1      49.315   0.969  16.262  0.00  0.00    +0.000 HD
ENDBRANCH  31  32
ENDBRANCH  22  31
ENDBRANCH   4  22
TORSDOF 9
ENDMDL
MODEL 5
REMARK VINA RESULT:    -7.052      2.710      8.753
REMARK INTER + INTRA:         -11.512
REMARK INTER:                 -10.733
REMARK INTRA:                  -0.780
REMARK UNBOUND:                -1.163
REMARK  Name = 
REMARK  9 active torsions:
REMARK  status: ('A' for Active; 'I' for Inactive)
REMARK    1  A    between atoms: C_2  and  O_3
REMARK    2  A    between atoms: C_2  and  C_21
REMARK    3  A    between atoms: O_3  and  C_4
REMARK    4  A    between atoms: C_4  and  C_5
REMARK    5  A    between atoms: C_8  and  C_9
REMARK    6  A    between atoms: C_9  and  O_10
REMARK    7  A    between atoms: C_9  and  C_11
REMARK    8  A    between atoms: C_9  and  C_13
REMARK    9  A    between atoms: C_11  and  O_12
REMARK                            x       y       z     vdW  Elec       q    Type
REMARK                         _______ _______ _______ _____ _____    ______ ____
ROOT
ATOM      1  C   UNL     1      47.691   6.546  13.944  0.00  0.00    +0.000 A 
ATOM      2  C   UNL     1      48.483   6.975  15.013  0.00  0.00    +0.000 A 
ATOM      3  C   UNL     1      48.705   6.143  16.113  0.00  0.00    +0.000 A 
ATOM      4  C   UNL     1      48.125   4.864  16.193  0.00  0.00    +0.000 A 
ATOM      5  C   UNL     1      47.302   4.458  15.126  0.00  0.00    +0.000 A 
ATOM      6  C   UNL     1      47.088   5.286  14.022  0.00  0.00    +0.000 A 
ENDROOT
BRANCH   1   7
ATOM      7  C   UNL     1      47.517   7.414  12.724  0.00  0.00    +0.000 C 
BRANCH   7   8
ATOM      8  O   UNL     1      46.963   6.663  11.633  0.00  0.00    +0.000 OA
BRANCH   8  10
ATOM      9  O   UNL     1      45.018   7.836  11.407  0.00  0.00    +0.000 OA
ATOM     10  C   UNL     1      45.629   6.774  11.450  0.00  0.00    +0.000 C 
BRANCH  10  11
ATOM     11  C   UNL     1      44.952   5.481  11.411  0.00  0.00    +0.000 A 
ATOM     12  C   UNL     1      44.161   5.069  12.472  0.00  0.00    +0.000 A 
ATOM     13  S   UNL     1      43.488   3.516  12.255  0.00  0.00    +0.000 S 
ATOM     14  C   UNL     1      44.177   3.375  10.704  0.00  0.00    +0.000 A 
ATOM     15  N   UNL     1      43.940   2.278   9.936  0.00  0.00    +0.000 NA
ATOM     16  C   UNL     1      44.474   2.326   8.761  0.00  0.00    +0.000 A 
ATOM     17  N   UNL     1      45.238   3.364   8.295  0.00  0.00    +0.000 N 
ATOM     18  C   UNL     1      45.527   4.483   9.040  0.00  0.00    +0.000 A 
ATOM     19  O   UNL     1      46.214   5.378   8.564  0.00  0.00    +0.000 OA
ATOM     20  C   UNL     1      44.934   4.485  10.367  0.00  0.00    +0.000 A 
ATOM     21  H   UNL     1      45.622   3.347   7.361  0.00  0.00    +0.000 HD
ENDBRANCH  10  11
ENDBRANCH   8  10
ENDBRANCH   7   8
ENDBRANCH   1   7
BRANCH   4  22
ATOM     22  C   UNL     1      48.387   3.903  17.371  0.00  0.00    +0.000 C 
BRANCH  22  23
ATOM     23  C   UNL     1      49.774   4.145  17.994  0.00  0.00    +0.000 A 
ATOM     24  C   UNL     1      49.877   4.663  19.288  0.00  0.00    +0.000 A 
ATOM     25  C   UNL     1      51.136   4.953  19.810  0.00  0.00    +0.000 A 
ATOM     26  C   UNL     1      52.266   4.700  19.044  0.00  0.00    +0.000 A 
ATOM     27  C   UNL     1      52.090   4.160  17.783  0.00  0.00    +0.000 A 
ATOM     28  N   UNL     1      50.882   3.888  17.242  0.00  0.00    +0.000 NA
ENDBRANCH  22  23
BRANCH  22  29
ATOM     29  O   UNL     1      47.404   4.099  18.412  0.00  0.00    +0.000 OA
ATOM     30  H   UNL     1      46.986   4.953  18.215  0.00  0.00    +0.000 HD
ENDBRANCH  22  29
BRANCH  22  31
ATOM     31  C   UNL     1      48.239   2.420  16.912  0.00  0.00    +0.000 C 
BRANCH  31  32
ATOM     32  O   UNL     1      49.227   2.064  15.930  0.00  0.00    +0.000 OA
ATOM     33  H   UNL     1      48.782   2.086  15.067  0.00  0.00    +0.000 HD
ENDBRANCH  31  32
ENDBRANCH  22  31
ENDBRANCH   4  22
TORSDOF 9
ENDMDL
MODEL 6
REMARK VINA RESULT:    -6.930      2.145      2.791
REMARK INTER + INTRA:         -11.334
REMARK INTER:                  -9.994
REMARK INTRA:                  -1.340
REMARK UNBOUND:                -1.163
REMARK  Name = 
REMARK  9 active torsions:
REMARK  status: ('A' for Active; 'I' for Inactive)
REMARK    1  A    between atoms: C_2  and  O_3
REMARK    2  A    between atoms: C_2  and  C_21
REMARK    3  A    between atoms: O_3  and  C_4
REMARK    4  A    between atoms: C_4  and  C_5
REMARK    5  A    between atoms: C_8  and  C_9
REMARK    6  A    between atoms: C_9  and  O_10
REMARK    7  A    between atoms: C_9  and  C_11
REMARK    8  A    between atoms: C_9  and  C_13
REMARK    9  A    between atoms: C_11  and  O_12
REMARK                            x       y       z     vdW  Elec       q    Type
REMARK                         _______ _______ _______ _____ _____    ______ ____
ROOT
ATOM      1  C   UNL     1      47.483   7.132  13.467  0.00  0.00    +0.000 A 
ATOM      2  C   UNL     1      47.650   5.749  13.368  0.00  0.00    +0.000 A 
ATOM      3  C   UNL     1      46.605   4.934  12.926  0.00  0.00    +0.000 A 
ATOM      4  C   UNL     1      45.350   5.472  12.589  0.00  0.00    +0.000 A 
ATOM      5  C   UNL     1      45.183   6.863  12.727  0.00  0.00    +0.000 A 
ATOM      6  C   UNL     1      46.231   7.678  13.160  0.00  0.00    +0.000 A 
ENDROOT
BRANCH   1   7
ATOM      7  C   UNL     1      48.635   8.017  13.869  0.00  0.00    +0.000 C 
BRANCH   7   8
ATOM      8  O   UNL     1      49.524   7.330  14.764  0.00  0.00    +0.000 OA
BRANCH   8  10
ATOM      9  O   UNL     1      48.708   8.234  16.695  0.00  0.00    +0.000 OA
ATOM     10  C   UNL     1      49.143   7.279  16.060  0.00  0.00    +0.000 C 
BRANCH  10  11
ATOM     11  C   UNL     1      49.399   5.981  16.677  0.00  0.00    +0.000 A 
ATOM     12  C   UNL     1      48.354   5.109  16.939  0.00  0.00    +0.000 A 
ATOM     13  S   UNL     1      48.850   3.662  17.695  0.00  0.00    +0.000 S 
ATOM     14  C   UNL     1      50.488   4.128  17.634  0.00  0.00    +0.000 A 
ATOM     15  N   UNL     1      51.464   3.295  18.082  0.00  0.00    +0.000 NA
ATOM     16  C   UNL     1      52.663   3.747  17.923  0.00  0.00    +0.000 A 
ATOM     17  N   UNL     1      52.970   4.964  17.373  0.00  0.00    +0.000 N 
ATOM     18  C   UNL     1      52.020   5.853  16.927  0.00  0.00    +0.000 A 
ATOM     19  O   UNL     1      52.360   6.925  16.442  0.00  0.00    +0.000 OA
ATOM     20  C   UNL     1      50.652   5.383  17.070  0.00  0.00    +0.000 A 
ATOM     21  H   UNL     1      53.930   5.259  17.267  0.00  0.00    +0.000 HD
ENDBRANCH  10  11
ENDBRANCH   8  10
ENDBRANCH   7   8
ENDBRANCH   1   7
BRANCH   4  22
ATOM     22  C   UNL     1      44.190   4.608  12.054  0.00  0.00    +0.000 C 
BRANCH  22  23
ATOM     23  C   UNL     1      44.510   4.041  10.658  0.00  0.00    +0.000 A 
ATOM     24  C   UNL     1      44.199   2.712  10.356  0.00  0.00    +0.000 A 
ATOM     25  C   UNL     1      44.567   2.188   9.119  0.00  0.00    +0.000 A 
ATOM     26  C   UNL     1      45.215   3.002   8.200  0.00  0.00    +0.000 A 
ATOM     27  C   UNL     1      45.465   4.315   8.556  0.00  0.00    +0.000 A 
ATOM     28  N   UNL     1      45.140   4.846   9.756  0.00  0.00    +0.000 NA
ENDBRANCH  22  23
BRANCH  22  29
ATOM     29  O   UNL     1      43.948   3.485  12.932  0.00  0.00    +0.000 OA
ATOM     30  H   UNL     1      43.492   3.856  13.705  0.00  0.00    +0.000 HD
ENDBRANCH  22  29
BRANCH  22  31
ATOM     31  C   UNL     1      42.863   5.427  12.026  0.00  0.00    +0.000 C 
BRANCH  31  32
ATOM     32  O   UNL     1      42.640   6.038  10.743  0.00  0.00    +0.000 OA
ATOM     33  H   UNL     1      41.756   6.441  10.777  0.00  0.00    +0.000 HD
ENDBRANCH  31  32
ENDBRANCH  22  31
ENDBRANCH   4  22
TORSDOF 9
ENDMDL
MODEL 7
REMARK VINA RESULT:    -6.921      3.188      8.722
REMARK INTER + INTRA:         -11.321
REMARK INTER:                 -10.016
REMARK INTRA:                  -1.305
REMARK UNBOUND:                -1.163
REMARK  Name = 
REMARK  9 active torsions:
REMARK  status: ('A' for Active; 'I' for Inactive)
REMARK    1  A    between atoms: C_2  and  O_3
REMARK    2  A    between atoms: C_2  and  C_21
REMARK    3  A    between atoms: O_3  and  C_4
REMARK    4  A    between atoms: C_4  and  C_5
REMARK    5  A    between atoms: C_8  and  C_9
REMARK    6  A    between atoms: C_9  and  O_10
REMARK    7  A    between atoms: C_9  and  C_11
REMARK    8  A    between atoms: C_9  and  C_13
REMARK    9  A    between atoms: C_11  and  O_12
REMARK                            x       y       z     vdW  Elec       q    Type
REMARK                         _______ _______ _______ _____ _____    ______ ____
ROOT
ATOM      1  C   UNL     1      48.537   6.808  14.291  0.00  0.00    +0.000 A 
ATOM      2  C   UNL     1      49.629   7.269  15.030  0.00  0.00    +0.000 A 
ATOM      3  C   UNL     1      49.944   6.700  16.266  0.00  0.00    +0.000 A 
ATOM      4  C   UNL     1      49.164   5.666  16.816  0.00  0.00    +0.000 A 
ATOM      5  C   UNL     1      48.046   5.235  16.077  0.00  0.00    +0.000 A 
ATOM      6  C   UNL     1      47.738   5.798  14.837  0.00  0.00    +0.000 A 
ENDROOT
BRANCH   1   7
ATOM      7  C   UNL     1      48.245   7.371  12.922  0.00  0.00    +0.000 C 
BRANCH   7   8
ATOM      8  O   UNL     1      47.587   6.398  12.095  0.00  0.00    +0.000 OA
BRANCH   8  10
ATOM      9  O   UNL     1      45.830   7.828  11.818  0.00  0.00    +0.000 OA
ATOM     10  C   UNL     1      46.373   6.748  11.616  0.00  0.00    +0.000 C 
BRANCH  10  11
ATOM     11  C   UNL     1      45.708   5.659  10.906  0.00  0.00    +0.000 A 
ATOM     12  C   UNL     1      45.884   5.499   9.541  0.00  0.00    +0.000 A 
ATOM     13  S   UNL     1      44.996   4.196   8.889  0.00  0.00    +0.000 S 
ATOM     14  C   UNL     1      44.401   3.763  10.426  0.00  0.00    +0.000 A 
ATOM     15  N   UNL     1      43.604   2.672  10.580  0.00  0.00    +0.000 NA
ATOM     16  C   UNL     1      43.273   2.424  11.803  0.00  0.00    +0.000 A 
ATOM     17  N   UNL     1      43.654   3.179  12.881  0.00  0.00    +0.000 N 
ATOM     18  C   UNL     1      44.438   4.304  12.777  0.00  0.00    +0.000 A 
ATOM     19  O   UNL     1      44.746   4.935  13.780  0.00  0.00    +0.000 OA
ATOM     20  C   UNL     1      44.851   4.617  11.419  0.00  0.00    +0.000 A 
ATOM     21  H   UNL     1      43.369   2.928  13.817  0.00  0.00    +0.000 HD
ENDBRANCH  10  11
ENDBRANCH   8  10
ENDBRANCH   7   8
ENDBRANCH   1   7
BRANCH   4  22
ATOM     22  C   UNL     1      49.510   4.984  18.155  0.00  0.00    +0.000 C 
BRANCH  22  23
ATOM     23  C   UNL     1      50.450   3.781  17.946  0.00  0.00    +0.000 A 
ATOM     24  C   UNL     1      51.773   3.843  18.392  0.00  0.00    +0.000 A 
ATOM     25  C   UNL     1      52.634   2.782  18.125  0.00  0.00    +0.000 A 
ATOM     26  C   UNL     1      52.156   1.672  17.442  0.00  0.00    +0.000 A 
ATOM     27  C   UNL     1      50.828   1.667  17.057  0.00  0.00    +0.000 A 
ATOM     28  N   UNL     1      49.975   2.690  17.281  0.00  0.00    +0.000 NA
ENDBRANCH  22  23
BRANCH  22  29
ATOM     29  O   UNL     1      50.184   5.912  19.036  0.00  0.00    +0.000 OA
ATOM     30  H   UNL     1      50.163   5.495  19.913  0.00  0.00    +0.000 HD
ENDBRANCH  22  29
BRANCH  22  31
ATOM     31  C   UNL     1      48.212   4.547  18.900  0.00  0.00    +0.000 C 
BRANCH  31  32
ATOM     32  O   UNL     1      48.409   3.336  19.650  0.00  0.00    +0.000 OA
ATOM     33  H   UNL     1      49.370   3.214  19.734  0.00  0.00    +0.000 HD
ENDBRANCH  31  32
ENDBRANCH  22  31
ENDBRANCH   4  22
TORSDOF 9
ENDMDL
MODEL 8
REMARK VINA RESULT:    -6.881      2.967      9.212
REMARK INTER + INTRA:         -11.262
REMARK INTER:                  -9.964
REMARK INTRA:                  -1.298
REMARK UNBOUND:                -1.163
REMARK  Name = 
REMARK  9 active torsions:
REMARK  status: ('A' for Active; 'I' for Inactive)
REMARK    1  A    between atoms: C_2  and  O_3
REMARK    2  A    between atoms: C_2  and  C_21
REMARK    3  A    between atoms: O_3  and  C_4
REMARK    4  A    between atoms: C_4  and  C_5
REMARK    5  A    between atoms: C_8  and  C_9
REMARK    6  A    between atoms: C_9  and  O_10
REMARK    7  A    between atoms: C_9  and  C_11
REMARK    8  A    between atoms: C_9  and  C_13
REMARK    9  A    between atoms: C_11  and  O_12
REMARK                            x       y       z     vdW  Elec       q    Type
REMARK                         _______ _______ _______ _____ _____    ______ ____
ROOT
ATOM      1  C   UNL     1      47.445   5.738  14.107  0.00  0.00    +0.000 A 
ATOM      2  C   UNL     1      48.339   6.542  14.818  0.00  0.00    +0.000 A 
ATOM      3  C   UNL     1      48.772   6.170  16.093  0.00  0.00    +0.000 A 
ATOM      4  C   UNL     1      48.308   4.994  16.710  0.00  0.00    +0.000 A 
ATOM      5  C   UNL     1      47.381   4.211  15.997  0.00  0.00    +0.000 A 
ATOM      6  C   UNL     1      46.956   4.578  14.719  0.00  0.00    +0.000 A 
ENDROOT
BRANCH   1   7
ATOM      7  C   UNL     1      47.039   6.100  12.701  0.00  0.00    +0.000 C 
BRANCH   7   8
ATOM      8  O   UNL     1      45.888   6.959  12.702  0.00  0.00    +0.000 OA
BRANCH   8  10
ATOM      9  O   UNL     1      44.535   7.694  11.017  0.00  0.00    +0.000 OA
ATOM     10  C   UNL     1      45.014   6.785  11.686  0.00  0.00    +0.000 C 
BRANCH  10  11
ATOM     11  C   UNL     1      44.605   5.394  11.520  0.00  0.00    +0.000 A 
ATOM     12  C   UNL     1      43.810   4.777  12.474  0.00  0.00    +0.000 A 
ATOM     13  S   UNL     1      43.471   3.142  12.122  0.00  0.00    +0.000 S 
ATOM     14  C   UNL     1      44.321   3.227  10.647  0.00  0.00    +0.000 A 
ATOM     15  N   UNL     1      44.373   2.155   9.813  0.00  0.00    +0.000 NA
ATOM     16  C   UNL     1      44.998   2.374   8.704  0.00  0.00    +0.000 A 
ATOM     17  N   UNL     1      45.589   3.563   8.366  0.00  0.00    +0.000 N 
ATOM     18  C   UNL     1      45.585   4.669   9.183  0.00  0.00    +0.000 A 
ATOM     19  O   UNL     1      46.130   5.704   8.821  0.00  0.00    +0.000 OA
ATOM     20  C   UNL     1      44.879   4.478  10.439  0.00  0.00    +0.000 A 
ATOM     21  H   UNL     1      46.057   3.676   7.477  0.00  0.00    +0.000 HD
ENDBRANCH  10  11
ENDBRANCH   8  10
ENDBRANCH   7   8
ENDBRANCH   1   7
BRANCH   4  22
ATOM     22  C   UNL     1      48.802   4.531  18.096  0.00  0.00    +0.000 C 
BRANCH  22  23
ATOM     23  C   UNL     1      48.743   5.676  19.124  0.00  0.00    +0.000 A 
ATOM     24  C   UNL     1      47.546   5.957  19.789  0.00  0.00    +0.000 A 
ATOM     25  C   UNL     1      47.485   7.046  20.655  0.00  0.00    +0.000 A 
ATOM     26  C   UNL     1      48.620   7.818  20.860  0.00  0.00    +0.000 A 
ATOM     27  C   UNL     1      49.777   7.464  20.191  0.00  0.00    +0.000 A 
ATOM     28  N   UNL     1      49.862   6.428  19.328  0.00  0.00    +0.000 NA
ENDBRANCH  22  23
BRANCH  22  29
ATOM     29  O   UNL     1      47.973   3.457  18.596  0.00  0.00    +0.000 OA
ATOM     30  H   UNL     1      47.182   3.889  18.957  0.00  0.00    +0.000 HD
ENDBRANCH  22  29
BRANCH  22  31
ATOM     31  C   UNL     1      50.246   3.951  17.998  0.00  0.00    +0.000 C 
BRANCH  31  32
ATOM     32  O   UNL     1      50.851   3.804  19.294  0.00  0.00    +0.000 OA
ATOM     33  H   UNL     1      50.147   3.511  19.898  0.00  0.00    +0.000 HD
ENDBRANCH  31  32
ENDBRANCH  22  31
ENDBRANCH   4  22
TORSDOF 9
ENDMDL
MODEL 9
REMARK VINA RESULT:    -6.538      2.700      3.819
REMARK INTER + INTRA:         -10.759
REMARK INTER:                  -9.782
REMARK INTRA:                  -0.977
REMARK UNBOUND:                -1.163
REMARK  Name = 
REMARK  9 active torsions:
REMARK  status: ('A' for Active; 'I' for Inactive)
REMARK    1  A    between atoms: C_2  and  O_3
REMARK    2  A    between atoms: C_2  and  C_21
REMARK    3  A    between atoms: O_3  and  C_4
REMARK    4  A    between atoms: C_4  and  C_5
REMARK    5  A    between atoms: C_8  and  C_9
REMARK    6  A    between atoms: C_9  and  O_10
REMARK    7  A    between atoms: C_9  and  C_11
REMARK    8  A    between atoms: C_9  and  C_13
REMARK    9  A    between atoms: C_11  and  O_12
REMARK                            x       y       z     vdW  Elec       q    Type
REMARK                         _______ _______ _______ _____ _____    ______ ____
ROOT
ATOM      1  C   UNL     1      47.911   6.649  13.384  0.00  0.00    +0.000 A 
ATOM      2  C   UNL     1      47.350   5.508  13.962  0.00  0.00    +0.000 A 
ATOM      3  C   UNL     1      46.200   4.928  13.423  0.00  0.00    +0.000 A 
ATOM      4  C   UNL     1      45.557   5.483  12.301  0.00  0.00    +0.000 A 
ATOM      5  C   UNL     1      46.112   6.652  11.749  0.00  0.00    +0.000 A 
ATOM      6  C   UNL     1      47.268   7.226  12.283  0.00  0.00    +0.000 A 
ENDROOT
BRANCH   1   7
ATOM      7  C   UNL     1      49.196   7.227  13.921  0.00  0.00    +0.000 C 
BRANCH   7   8
ATOM      8  O   UNL     1      49.108   7.452  15.336  0.00  0.00    +0.000 OA
BRANCH   8  10
ATOM      9  O   UNL     1      51.225   6.775  15.858  0.00  0.00    +0.000 OA
ATOM     10  C   UNL     1      50.023   6.812  16.099  0.00  0.00    +0.000 C 
BRANCH  10  11
ATOM     11  C   UNL     1      49.423   6.069  17.202  0.00  0.00    +0.000 A 
ATOM     12  C   UNL     1      49.470   4.683  17.224  0.00  0.00    +0.000 A 
ATOM     13  S   UNL     1      48.682   3.998  18.572  0.00  0.00    +0.000 S 
ATOM     14  C   UNL     1      48.311   5.535  19.205  0.00  0.00    +0.000 A 
ATOM     15  N   UNL     1      47.673   5.659  20.399  0.00  0.00    +0.000 NA
ATOM     16  C   UNL     1      47.506   6.879  20.790  0.00  0.00    +0.000 A 
ATOM     17  N   UNL     1      47.906   7.983  20.083  0.00  0.00    +0.000 N 
ATOM     18  C   UNL     1      48.533   7.913  18.862  0.00  0.00    +0.000 A 
ATOM     19  O   UNL     1      48.867   8.938  18.282  0.00  0.00    +0.000 OA
ATOM     20  C   UNL     1      48.758   6.558  18.385  0.00  0.00    +0.000 A 
ATOM     21  H   UNL     1      47.756   8.914  20.446  0.00  0.00    +0.000 HD
ENDBRANCH  10  11
ENDBRANCH   8  10
ENDBRANCH   7   8
ENDBRANCH   1   7
BRANCH   4  22
ATOM     22  C   UNL     1      44.313   4.842  11.652  0.00  0.00    +0.000 C 
BRANCH  22  23
ATOM     23  C   UNL     1      44.690   4.022  10.404  0.00  0.00    +0.000 A 
ATOM     24  C   UNL     1      45.301   4.650   9.315  0.00  0.00    +0.000 A 
ATOM     25  C   UNL     1      45.561   3.915   8.161  0.00  0.00    +0.000 A 
ATOM     26  C   UNL     1      45.231   2.567   8.122  0.00  0.00    +0.000 A 
ATOM     27  C   UNL     1      44.655   2.006   9.247  0.00  0.00    +0.000 A 
ATOM     28  N   UNL     1      44.370   2.697  10.372  0.00  0.00    +0.000 NA
ENDBRANCH  22  23
BRANCH  22  29
ATOM     29  O   UNL     1      43.664   3.944  12.581  0.00  0.00    +0.000 OA
ATOM     30  H   UNL     1      42.740   3.895  12.288  0.00  0.00    +0.000 HD
ENDBRANCH  22  29
BRANCH  22  31
ATOM     31  C   UNL     1      43.257   5.932  11.298  0.00  0.00    +0.000 C 
BRANCH  31  32
ATOM     32  O   UNL     1      41.913   5.442  11.445  0.00  0.00    +0.000 OA
ATOM     33  H   UNL     1      41.955   4.700  12.071  0.00  0.00    +0.000 HD
ENDBRANCH  31  32
ENDBRANCH  22  31
ENDBRANCH   4  22
TORSDOF 9
ENDMDL
