MODEL 1
REMARK VINA RESULT:    -7.681      0.000      0.000
REMARK INTER + INTRA:         -10.234
REMARK INTER:                  -9.926
REMARK INTRA:                  -0.309
REMARK UNBOUND:                -0.309
REMARK  Name = 
REMARK  5 active torsions:
REMARK  status: ('A' for Active; 'I' for Inactive)
REMARK    1  A    between atoms: C_2  and  C_4
REMARK    2  A    between atoms: C_6  and  O_7
REMARK    3  A    between atoms: O_7  and  C_8
REMARK    4  A    between atoms: C_8  and  C_9
REMARK    5  A    between atoms: C_14  and  C_15
REMARK                            x       y       z     vdW  Elec       q    Type
REMARK                         _______ _______ _______ _____ _____    ______ ____
ROOT
ATOM      1  C   UNL     1      45.103   4.718  11.943  0.00  0.00    +0.000 A 
ATOM      2  C   UNL     1      45.625   3.704  12.748  0.00  0.00    +0.000 A 
ATOM      3  C   UNL     1      46.682   3.993  13.606  0.00  0.00    +0.000 A 
ATOM      4  F   UNL     1      47.181   3.021  14.380  0.00  0.00    +0.000 F 
ATOM      5  C   UNL     1      47.237   5.272  13.677  0.00  0.00    +0.000 A 
ATOM      6  C   UNL     1      46.740   6.306  12.872  0.00  0.00    +0.000 A 
ATOM      7  C   UNL     1      45.647   6.004  12.044  0.00  0.00    +0.000 A 
ENDROOT
BRANCH   6   8
ATOM      8  C   UNL     1      47.343   7.709  12.944  0.00  0.00    +0.000 C 
ATOM      9  C   UNL     1      48.259   8.088  11.763  0.00  0.00    +0.000 C 
ATOM     10  C   UNL     1      49.628   7.401  11.837  0.00  0.00    +0.000 C 
ATOM     11  N   UNL     1      50.312   7.650  13.105  0.00  0.00    +0.000 NA
ATOM     12  C   UNL     1      49.492   7.305  14.264  0.00  0.00    +0.000 C 
ATOM     13  C   UNL     1      48.120   7.979  14.248  0.00  0.00    +0.000 C 
ATOM     14  H   UNL     1      50.573   8.636  13.155  0.00  0.00    +0.000 HD
ENDBRANCH   6   8
BRANCH   1  15
ATOM     15  C   UNL     1      43.971   4.478  10.977  0.00  0.00    +0.000 C 
BRANCH  15  16
ATOM     16  O   UNL     1      44.119   3.179  10.406  0.00  0.00    +0.000 OA
BRANCH  16  19
ATOM     17  C   UNL     1      46.391   1.962   7.773  0.00  0.00    +0.000 A 
ATOM     18  C   UNL     1      45.516   1.886   8.852  0.00  0.00    +0.000 A 
ATOM     19  C   UNL     1      44.978   3.068   9.346  0.00  0.00    +0.000 A 
ATOM     20  C   UNL     1      45.323   4.272   8.735  0.00  0.00    +0.000 A 
ATOM     21  C   UNL     1      46.196   4.249   7.658  0.00  0.00    +0.000 A 
ATOM     22  N   UNL     1      46.749   3.123   7.160  0.00  0.00    +0.000 NA
BRANCH  17  24
ATOM     23  N   UNL     1      47.702   0.808   6.078  0.00  0.00    +0.000 N 
ATOM     24  C   UNL     1      47.006   0.705   7.250  0.00  0.00    +0.000 C 
ATOM     25  O   UNL     1      46.916  -0.368   7.848  0.00  0.00    +0.000 OA
ATOM     26  H   UNL     1      48.201  -0.000   5.734  0.00  0.00    +0.000 HD
ATOM     27  H   UNL     1      47.852   1.719   5.659  0.00  0.00    +0.000 HD
ENDBRANCH  17  24
ENDBRANCH  16  19
ENDBRANCH  15  16
ENDBRANCH   1  15
TORSDOF 5
ENDMDL
MODEL 2
REMARK VINA RESULT:    -7.645      1.580      2.099
REMARK INTER + INTRA:         -10.188
REMARK INTER:                  -9.588
REMARK INTRA:                  -0.600
REMARK UNBOUND:                -0.309
REMARK  Name = 
REMARK  5 active torsions:
REMARK  status: ('A' for Active; 'I' for Inactive)
REMARK    1  A    between atoms: C_2  and  C_4
REMARK    2  A    between atoms: C_6  and  O_7
REMARK    3  A    between atoms: O_7  and  C_8
REMARK    4  A    between atoms: C_8  and  C_9
REMARK    5  A    between atoms: C_14  and  C_15
REMARK                            x       y       z     vdW  Elec       q    Type
REMARK                         _______ _______ _______ _____ _____    ______ ____
ROOT
ATOM      1  C   UNL     1      45.056   4.657  11.601  0.00  0.00    +0.000 A 
ATOM      2  C   UNL     1      45.481   3.704  12.529  0.00  0.00    +0.000 A 
ATOM      3  C   UNL     1      46.601   3.969  13.312  0.00  0.00    +0.000 A 
ATOM      4  F   UNL     1      47.007   3.057  14.203  0.00  0.00    +0.000 F 
ATOM      5  C   UNL     1      47.314   5.163  13.186  0.00  0.00    +0.000 A 
ATOM      6  C   UNL     1      46.916   6.132  12.255  0.00  0.00    +0.000 A 
ATOM      7  C   UNL     1      45.760   5.863  11.505  0.00  0.00    +0.000 A 
ENDROOT
BRANCH   6   8
ATOM      8  C   UNL     1      47.692   7.442  12.111  0.00  0.00    +0.000 C 
ATOM      9  C   UNL     1      48.790   7.670  13.169  0.00  0.00    +0.000 C 
ATOM     10  C   UNL     1      48.216   8.059  14.537  0.00  0.00    +0.000 C 
ATOM     11  N   UNL     1      47.335   9.224  14.466  0.00  0.00    +0.000 NA
ATOM     12  C   UNL     1      46.269   9.063  13.479  0.00  0.00    +0.000 C 
ATOM     13  C   UNL     1      46.790   8.692  12.090  0.00  0.00    +0.000 C 
ATOM     14  H   UNL     1      47.891  10.048  14.234  0.00  0.00    +0.000 HD
ENDBRANCH   6   8
BRANCH   1  15
ATOM     15  C   UNL     1      43.863   4.435  10.707  0.00  0.00    +0.000 C 
BRANCH  15  16
ATOM     16  O   UNL     1      44.260   4.629   9.351  0.00  0.00    +0.000 OA
BRANCH  16  19
ATOM     17  C   UNL     1      46.466   2.573   7.234  0.00  0.00    +0.000 A 
ATOM     18  C   UNL     1      45.870   3.730   7.727  0.00  0.00    +0.000 A 
ATOM     19  C   UNL     1      44.950   3.604   8.760  0.00  0.00    +0.000 A 
ATOM     20  C   UNL     1      44.673   2.336   9.266  0.00  0.00    +0.000 A 
ATOM     21  C   UNL     1      45.323   1.241   8.717  0.00  0.00    +0.000 A 
ATOM     22  N   UNL     1      46.213   1.322   7.705  0.00  0.00    +0.000 NA
BRANCH  17  24
ATOM     23  N   UNL     1      48.761   2.650   6.427  0.00  0.00    +0.000 N 
ATOM     24  C   UNL     1      47.434   2.685   6.101  0.00  0.00    +0.000 C 
ATOM     25  O   UNL     1      47.065   2.781   4.930  0.00  0.00    +0.000 OA
ATOM     26  H   UNL     1      49.446   2.640   5.684  0.00  0.00    +0.000 HD
ATOM     27  H   UNL     1      49.041   2.465   7.383  0.00  0.00    +0.000 HD
ENDBRANCH  17  24
ENDBRANCH  16  19
ENDBRANCH  15  16
ENDBRANCH   1  15
TORSDOF 5
ENDMDL
MODEL 3
REMARK VINA RESULT:    -7.194      4.515      8.574
REMARK INTER + INTRA:          -9.606
REMARK INTER:                  -9.110
REMARK INTRA:                  -0.496
REMARK UNBOUND:                -0.309
REMARK  Name = 
REMARK  5 active torsions:
REMARK  status: ('A' for Active; 'I' for Inactive)
REMARK    1  A    between atoms: C_2  and  C_4
REMARK    2  A    between atoms: C_6  and  O_7
REMARK    3  A    between atoms: O_7  and  C_8
REMARK    4  A    between atoms: C_8  and  C_9
REMARK    5  A    between atoms: C_14  and  C_15
REMARK                            x       y       z     vdW  Elec       q    Type
REMARK                         _______ _______ _______ _____ _____    ______ ____
ROOT
ATOM      1  C   UNL     1      46.774   5.282  13.675  0.00  0.00    +0.000 A 
ATOM      2  C   UNL     1      47.689   6.169  13.105  0.00  0.00    +0.000 A 
ATOM      3  C   UNL     1      47.425   6.704  11.848  0.00  0.00    +0.000 A 
ATOM      4  F   UNL     1      48.302   7.556  11.302  0.00  0.00    +0.000 F 
ATOM      5  C   UNL     1      46.269   6.371  11.140  0.00  0.00    +0.000 A 
ATOM      6  C   UNL     1      45.338   5.475  11.684  0.00  0.00    +0.000 A 
ATOM      7  C   UNL     1      45.602   4.979  12.970  0.00  0.00    +0.000 A 
ENDROOT
BRANCH   6   8
ATOM      8  C   UNL     1      44.069   5.106  10.915  0.00  0.00    +0.000 C 
ATOM      9  C   UNL     1      43.020   4.319  11.724  0.00  0.00    +0.000 C 
ATOM     10  C   UNL     1      43.422   2.854  11.938  0.00  0.00    +0.000 C 
ATOM     11  N   UNL     1      43.712   2.163  10.682  0.00  0.00    +0.000 NA
ATOM     12  C   UNL     1      44.706   2.864   9.871  0.00  0.00    +0.000 C 
ATOM     13  C   UNL     1      44.344   4.326   9.614  0.00  0.00    +0.000 C 
ATOM     14  H   UNL     1      42.847   2.064  10.149  0.00  0.00    +0.000 HD
ENDBRANCH   6   8
BRANCH   1  15
ATOM     15  C   UNL     1      46.998   4.649  15.024  0.00  0.00    +0.000 C 
BRANCH  15  16
ATOM     16  O   UNL     1      48.344   4.892  15.431  0.00  0.00    +0.000 OA
BRANCH  16  19
ATOM     17  C   UNL     1      48.623   5.642  19.028  0.00  0.00    +0.000 A 
ATOM     18  C   UNL     1      48.432   4.868  17.886  0.00  0.00    +0.000 A 
ATOM     19  C   UNL     1      48.519   5.493  16.648  0.00  0.00    +0.000 A 
ATOM     20  C   UNL     1      48.806   6.855  16.600  0.00  0.00    +0.000 A 
ATOM     21  C   UNL     1      48.989   7.543  17.790  0.00  0.00    +0.000 A 
ATOM     22  N   UNL     1      48.900   6.974  19.010  0.00  0.00    +0.000 NA
BRANCH  17  24
ATOM     23  N   UNL     1      48.519   3.628  20.389  0.00  0.00    +0.000 N 
ATOM     24  C   UNL     1      48.500   4.994  20.368  0.00  0.00    +0.000 C 
ATOM     25  O   UNL     1      48.408   5.649  21.407  0.00  0.00    +0.000 OA
ATOM     26  H   UNL     1      48.521   3.153  21.281  0.00  0.00    +0.000 HD
ATOM     27  H   UNL     1      48.701   3.112  19.535  0.00  0.00    +0.000 HD
ENDBRANCH  17  24
ENDBRANCH  16  19
ENDBRANCH  15  16
ENDBRANCH   1  15
TORSDOF 5
ENDMDL
MODEL 4
REMARK VINA RESULT:    -7.144      4.132      7.341
REMARK INTER + INTRA:          -9.541
REMARK INTER:                  -8.664
REMARK INTRA:                  -0.878
REMARK UNBOUND:                -0.309
REMARK  Name = 
REMARK  5 active torsions:
REMARK  status: ('A' for Active; 'I' for Inactive)
REMARK    1  A    between atoms: C_2  and  C_4
REMARK    2  A    between atoms: C_6  and  O_7
REMARK    3  A    between atoms: O_7  and  C_8
REMARK    4  A    between atoms: C_8  and  C_9
REMARK    5  A    between atoms: C_14  and  C_15
REMARK                            x       y       z     vdW  Elec       q    Type
REMARK                         _______ _______ _______ _____ _____    ______ ____
ROOT
ATOM      1  C   UNL     1      47.376   7.508  12.372  0.00  0.00    +0.000 A 
ATOM      2  C   UNL     1      46.809   8.780  12.481  0.00  0.00    +0.000 A 
ATOM      3  C   UNL     1      45.488   8.971  12.092  0.00  0.00    +0.000 A 
ATOM      4  F   UNL     1      44.944  10.191  12.200  0.00  0.00    +0.000 F 
ATOM      5  C   UNL     1      44.715   7.924  11.588  0.00  0.00    +0.000 A 
ATOM      6  C   UNL     1      45.261   6.639  11.457  0.00  0.00    +0.000 A 
ATOM      7  C   UNL     1      46.582   6.458  11.894  0.00  0.00    +0.000 A 
ENDROOT
BRANCH   6   8
ATOM      8  C   UNL     1      44.421   5.487  10.906  0.00  0.00    +0.000 C 
ATOM      9  C   UNL     1      42.982   5.407  11.454  0.00  0.00    +0.000 C 
ATOM     10  C   UNL     1      42.930   4.872  12.891  0.00  0.00    +0.000 C 
ATOM     11  N   UNL     1      43.596   3.579  13.033  0.00  0.00    +0.000 NA
ATOM     12  C   UNL     1      44.969   3.595  12.532  0.00  0.00    +0.000 C 
ATOM     13  C   UNL     1      45.075   4.104  11.094  0.00  0.00    +0.000 C 
ATOM     14  H   UNL     1      43.060   2.871  12.530  0.00  0.00    +0.000 HD
ENDBRANCH   6   8
BRANCH   1  15
ATOM     15  C   UNL     1      48.805   7.226  12.757  0.00  0.00    +0.000 C 
BRANCH  15  16
ATOM     16  O   UNL     1      49.057   7.791  14.043  0.00  0.00    +0.000 OA
BRANCH  16  19
ATOM     17  C   UNL     1      48.095   5.034  16.290  0.00  0.00    +0.000 A 
ATOM     18  C   UNL     1      48.345   5.683  15.084  0.00  0.00    +0.000 A 
ATOM     19  C   UNL     1      48.781   7.001  15.126  0.00  0.00    +0.000 A 
ATOM     20  C   UNL     1      48.965   7.611  16.365  0.00  0.00    +0.000 A 
ATOM     21  C   UNL     1      48.699   6.882  17.515  0.00  0.00    +0.000 A 
ATOM     22  N   UNL     1      48.261   5.606  17.514  0.00  0.00    +0.000 NA
BRANCH  17  24
ATOM     23  N   UNL     1      46.934   3.195  17.381  0.00  0.00    +0.000 N 
ATOM     24  C   UNL     1      47.593   3.627  16.264  0.00  0.00    +0.000 C 
ATOM     25  O   UNL     1      47.739   2.896  15.284  0.00  0.00    +0.000 OA
ATOM     26  H   UNL     1      46.508   2.279  17.372  0.00  0.00    +0.000 HD
ATOM     27  H   UNL     1      46.733   3.845  18.132  0.00  0.00    +0.000 HD
ENDBRANCH  17  24
ENDBRANCH  16  19
ENDBRANCH  15  16
ENDBRANCH   1  15
TORSDOF 5
ENDMDL
MODEL 5
REMARK VINA RESULT:    -7.022      3.806      7.441
REMARK INTER + INTRA:          -9.383
REMARK INTER:                  -8.795
REMARK INTRA:                  -0.588
REMARK UNBOUND:                -0.309
REMARK  Name = 
REMARK  5 active torsions:
REMARK  status: ('A' for Active; 'I' for Inactive)
REMARK    1  A    between atoms: C_2  and  C_4
REMARK    2  A    between atoms: C_6  and  O_7
REMARK    3  A    between atoms: O_7  and  C_8
REMARK    4  A    between atoms: C_8  and  C_9
REMARK    5  A    between atoms: C_14  and  C_15
REMARK                            x       y       z     vdW  Elec       q    Type
REMARK                         _______ _______ _______ _____ _____    ______ ____
ROOT
ATOM      1  C   UNL     1      47.424   6.701  12.264  0.00  0.00    +0.000 A 
ATOM      2  C   UNL     1      47.565   6.007  13.467  0.00  0.00    +0.000 A 
ATOM      3  C   UNL     1      46.641   5.020  13.796  0.00  0.00    +0.000 A 
ATOM      4  F   UNL     1      46.778   4.354  14.950  0.00  0.00    +0.000 F 
ATOM      5  C   UNL     1      45.572   4.711  12.954  0.00  0.00    +0.000 A 
ATOM      6  C   UNL     1      45.399   5.399  11.745  0.00  0.00    +0.000 A 
ATOM      7  C   UNL     1      46.366   6.361  11.412  0.00  0.00    +0.000 A 
ENDROOT
BRANCH   6   8
ATOM      8  C   UNL     1      44.231   5.066  10.817  0.00  0.00    +0.000 C 
ATOM      9  C   UNL     1      43.076   4.285  11.475  0.00  0.00    +0.000 C 
ATOM     10  C   UNL     1      43.423   2.810  11.710  0.00  0.00    +0.000 C 
ATOM     11  N   UNL     1      43.856   2.134  10.488  0.00  0.00    +0.000 NA
ATOM     12  C   UNL     1      44.955   2.828   9.820  0.00  0.00    +0.000 C 
ATOM     13  C   UNL     1      44.653   4.301   9.546  0.00  0.00    +0.000 C 
ATOM     14  H   UNL     1      43.063   2.060   9.850  0.00  0.00    +0.000 HD
ENDBRANCH   6   8
BRANCH   1  15
ATOM     15  C   UNL     1      48.375   7.794  11.847  0.00  0.00    +0.000 C 
BRANCH  15  16
ATOM     16  O   UNL     1      48.080   8.973  12.595  0.00  0.00    +0.000 OA
BRANCH  16  19
ATOM     17  C   UNL     1      45.408  11.089  11.194  0.00  0.00    +0.000 A 
ATOM     18  C   UNL     1      45.974  10.041  11.915  0.00  0.00    +0.000 A 
ATOM     19  C   UNL     1      47.359   9.944  11.952  0.00  0.00    +0.000 A 
ATOM     20  C   UNL     1      48.121  10.900  11.285  0.00  0.00    +0.000 A 
ATOM     21  C   UNL     1      47.469  11.915  10.600  0.00  0.00    +0.000 A 
ATOM     22  N   UNL     1      46.126  12.035  10.530  0.00  0.00    +0.000 NA
BRANCH  17  24
ATOM     23  N   UNL     1      43.217  10.687  12.173  0.00  0.00    +0.000 N 
ATOM     24  C   UNL     1      43.920  11.191  11.115  0.00  0.00    +0.000 C 
ATOM     25  O   UNL     1      43.348  11.720  10.161  0.00  0.00    +0.000 OA
ATOM     26  H   UNL     1      42.214  10.809  12.196  0.00  0.00    +0.000 HD
ATOM     27  H   UNL     1      43.710  10.352  12.993  0.00  0.00    +0.000 HD
ENDBRANCH  17  24
ENDBRANCH  16  19
ENDBRANCH  15  16
ENDBRANCH   1  15
TORSDOF 5
ENDMDL
MODEL 6
REMARK VINA RESULT:    -6.920      3.386      4.902
REMARK INTER + INTRA:          -9.252
REMARK INTER:                  -8.802
REMARK INTRA:                  -0.450
REMARK UNBOUND:                -0.309
REMARK  Name = 
REMARK  5 active torsions:
REMARK  status: ('A' for Active; 'I' for Inactive)
REMARK    1  A    between atoms: C_2  and  C_4
REMARK    2  A    between atoms: C_6  and  O_7
REMARK    3  A    between atoms: O_7  and  C_8
REMARK    4  A    between atoms: C_8  and  C_9
REMARK    5  A    between atoms: C_14  and  C_15
REMARK                            x       y       z     vdW  Elec       q    Type
REMARK                         _______ _______ _______ _____ _____    ______ ____
ROOT
ATOM      1  C   UNL     1      47.409   4.995  14.390  0.00  0.00    +0.000 A 
ATOM      2  C   UNL     1      47.722   6.141  13.656  0.00  0.00    +0.000 A 
ATOM      3  C   UNL     1      48.459   7.155  14.260  0.00  0.00    +0.000 A 
ATOM      4  F   UNL     1      48.762   8.252  13.555  0.00  0.00    +0.000 F 
ATOM      5  C   UNL     1      48.887   7.057  15.585  0.00  0.00    +0.000 A 
ATOM      6  C   UNL     1      48.578   5.923  16.348  0.00  0.00    +0.000 A 
ATOM      7  C   UNL     1      47.870   4.894  15.708  0.00  0.00    +0.000 A 
ENDROOT
BRANCH   6   8
ATOM      8  C   UNL     1      49.043   5.809  17.800  0.00  0.00    +0.000 C 
ATOM      9  C   UNL     1      50.531   5.448  17.983  0.00  0.00    +0.000 C 
ATOM     10  C   UNL     1      50.818   3.971  17.683  0.00  0.00    +0.000 C 
ATOM     11  N   UNL     1      49.980   3.066  18.468  0.00  0.00    +0.000 NA
ATOM     12  C   UNL     1      48.554   3.359  18.331  0.00  0.00    +0.000 C 
ATOM     13  C   UNL     1      48.211   4.816  18.636  0.00  0.00    +0.000 C 
ATOM     14  H   UNL     1      50.247   3.133  19.451  0.00  0.00    +0.000 HD
ENDBRANCH   6   8
BRANCH   1  15
ATOM     15  C   UNL     1      46.600   3.862  13.810  0.00  0.00    +0.000 C 
BRANCH  15  16
ATOM     16  O   UNL     1      45.216   4.203  13.872  0.00  0.00    +0.000 OA
BRANCH  16  19
ATOM     17  C   UNL     1      44.343   4.587  10.313  0.00  0.00    +0.000 A 
ATOM     18  C   UNL     1      45.103   4.213  11.418  0.00  0.00    +0.000 A 
ATOM     19  C   UNL     1      44.598   4.485  12.684  0.00  0.00    +0.000 A 
ATOM     20  C   UNL     1      43.354   5.101  12.795  0.00  0.00    +0.000 A 
ATOM     21  C   UNL     1      42.664   5.429  11.638  0.00  0.00    +0.000 A 
ATOM     22  N   UNL     1      43.127   5.194  10.392  0.00  0.00    +0.000 NA
BRANCH  17  24
ATOM     23  N   UNL     1      44.288   3.334   8.228  0.00  0.00    +0.000 N 
ATOM     24  C   UNL     1      44.884   4.334   8.944  0.00  0.00    +0.000 C 
ATOM     25  O   UNL     1      45.804   5.000   8.469  0.00  0.00    +0.000 OA
ATOM     26  H   UNL     1      44.570   3.185   7.269  0.00  0.00    +0.000 HD
ATOM     27  H   UNL     1      43.466   2.870   8.597  0.00  0.00    +0.000 HD
ENDBRANCH  17  24
ENDBRANCH  16  19
ENDBRANCH  15  16
ENDBRANCH   1  15
TORSDOF 5
ENDMDL
MODEL 7
REMARK VINA RESULT:    -6.462      4.363      7.960
REMARK INTER + INTRA:          -8.659
REMARK INTER:                  -8.357
REMARK INTRA:                  -0.302
REMARK UNBOUND:                -0.309
REMARK  Name = 
REMARK  5 active torsions:
REMARK  status: ('A' for Active; 'I' for Inactive)
REMARK    1  A    between atoms: C_2  and  C_4
REMARK    2  A    between atoms: C_6  and  O_7
REMARK    3  A    between atoms: O_7  and  C_8
REMARK    4  A    between atoms: C_8  and  C_9
REMARK    5  A    between atoms: C_14  and  C_15
REMARK                            x       y       z     vdW  Elec       q    Type
REMARK                         _______ _______ _______ _____ _____    ______ ____
ROOT
ATOM      1  C   UNL     1      47.021   4.905  13.816  0.00  0.00    +0.000 A 
ATOM      2  C   UNL     1      47.814   6.054  13.844  0.00  0.00    +0.000 A 
ATOM      3  C   UNL     1      47.607   7.047  12.891  0.00  0.00    +0.000 A 
ATOM      4  F   UNL     1      48.366   8.149  12.920  0.00  0.00    +0.000 F 
ATOM      5  C   UNL     1      46.629   6.919  11.904  0.00  0.00    +0.000 A 
ATOM      6  C   UNL     1      45.825   5.772  11.846  0.00  0.00    +0.000 A 
ATOM      7  C   UNL     1      46.022   4.801  12.841  0.00  0.00    +0.000 A 
ENDROOT
BRANCH   6   8
ATOM      8  C   UNL     1      44.752   5.624  10.767  0.00  0.00    +0.000 C 
ATOM      9  C   UNL     1      43.312   5.913  11.235  0.00  0.00    +0.000 C 
ATOM     10  C   UNL     1      42.733   4.777  12.089  0.00  0.00    +0.000 C 
ATOM     11  N   UNL     1      42.793   3.481  11.414  0.00  0.00    +0.000 NA
ATOM     12  C   UNL     1      44.140   3.151  10.950  0.00  0.00    +0.000 C 
ATOM     13  C   UNL     1      44.757   4.245  10.079  0.00  0.00    +0.000 C 
ATOM     14  H   UNL     1      42.153   3.489  10.620  0.00  0.00    +0.000 HD
ENDBRANCH   6   8
BRANCH   1  15
ATOM     15  C   UNL     1      47.197   3.780  14.804  0.00  0.00    +0.000 C 
BRANCH  15  16
ATOM     16  O   UNL     1      46.785   4.230  16.094  0.00  0.00    +0.000 OA
BRANCH  16  19
ATOM     17  C   UNL     1      49.902   3.972  18.042  0.00  0.00    +0.000 A 
ATOM     18  C   UNL     1      49.048   3.812  16.955  0.00  0.00    +0.000 A 
ATOM     19  C   UNL     1      47.756   4.313  17.055  0.00  0.00    +0.000 A 
ATOM     20  C   UNL     1      47.376   4.965  18.226  0.00  0.00    +0.000 A 
ATOM     21  C   UNL     1      48.298   5.086  19.254  0.00  0.00    +0.000 A 
ATOM     22  N   UNL     1      49.556   4.600  19.199  0.00  0.00    +0.000 NA
BRANCH  17  24
ATOM     23  N   UNL     1      52.302   4.243  18.336  0.00  0.00    +0.000 N 
ATOM     24  C   UNL     1      51.283   3.409  17.966  0.00  0.00    +0.000 C 
ATOM     25  O   UNL     1      51.502   2.250  17.611  0.00  0.00    +0.000 OA
ATOM     26  H   UNL     1      53.243   3.875  18.376  0.00  0.00    +0.000 HD
ATOM     27  H   UNL     1      52.092   5.155  18.724  0.00  0.00    +0.000 HD
ENDBRANCH  17  24
ENDBRANCH  16  19
ENDBRANCH  15  16
ENDBRANCH   1  15
TORSDOF 5
ENDMDL
MODEL 8
REMARK VINA RESULT:    -6.289      4.363      6.266
REMARK INTER + INTRA:          -8.436
REMARK INTER:                  -7.657
REMARK INTRA:                  -0.779
REMARK UNBOUND:                -0.309
REMARK  Name = 
REMARK  5 active torsions:
REMARK  status: ('A' for Active; 'I' for Inactive)
REMARK    1  A    between atoms: C_2  and  C_4
REMARK    2  A    between atoms: C_6  and  O_7
REMARK    3  A    between atoms: O_7  and  C_8
REMARK    4  A    between atoms: C_8  and  C_9
REMARK    5  A    between atoms: C_14  and  C_15
REMARK                            x       y       z     vdW  Elec       q    Type
REMARK                         _______ _______ _______ _____ _____    ______ ____
ROOT
ATOM      1  C   UNL     1      49.443   7.417  14.691  0.00  0.00    +0.000 A 
ATOM      2  C   UNL     1      50.007   8.658  14.994  0.00  0.00    +0.000 A 
ATOM      3  C   UNL     1      50.390   8.929  16.304  0.00  0.00    +0.000 A 
ATOM      4  F   UNL     1      50.933  10.118  16.594  0.00  0.00    +0.000 F 
ATOM      5  C   UNL     1      50.220   7.991  17.324  0.00  0.00    +0.000 A 
ATOM      6  C   UNL     1      49.647   6.741  17.050  0.00  0.00    +0.000 A 
ATOM      7  C   UNL     1      49.306   6.472  15.715  0.00  0.00    +0.000 A 
ENDROOT
BRANCH   6   8
ATOM      8  C   UNL     1      49.458   5.709  18.161  0.00  0.00    +0.000 C 
ATOM      9  C   UNL     1      48.777   4.397  17.726  0.00  0.00    +0.000 C 
ATOM     10  C   UNL     1      47.269   4.563  17.503  0.00  0.00    +0.000 C 
ATOM     11  N   UNL     1      46.587   5.120  18.671  0.00  0.00    +0.000 NA
ATOM     12  C   UNL     1      47.189   6.371  19.129  0.00  0.00    +0.000 C 
ATOM     13  C   UNL     1      48.691   6.255  19.383  0.00  0.00    +0.000 C 
ATOM     14  H   UNL     1      46.610   4.436  19.428  0.00  0.00    +0.000 HD
ENDBRANCH   6   8
BRANCH   1  15
ATOM     15  C   UNL     1      48.988   7.057  13.299  0.00  0.00    +0.000 C 
BRANCH  15  16
ATOM     16  O   UNL     1      48.193   5.873  13.366  0.00  0.00    +0.000 OA
BRANCH  16  19
ATOM     17  C   UNL     1      44.677   5.246  12.462  0.00  0.00    +0.000 A 
ATOM     18  C   UNL     1      45.944   4.969  12.967  0.00  0.00    +0.000 A 
ATOM     19  C   UNL     1      46.900   5.977  12.931  0.00  0.00    +0.000 A 
ATOM     20  C   UNL     1      46.549   7.219  12.408  0.00  0.00    +0.000 A 
ATOM     21  C   UNL     1      45.259   7.406  11.935  0.00  0.00    +0.000 A 
ATOM     22  N   UNL     1      44.308   6.448  11.942  0.00  0.00    +0.000 NA
BRANCH  17  24
ATOM     23  N   UNL     1      42.538   4.379  11.691  0.00  0.00    +0.000 N 
ATOM     24  C   UNL     1      43.646   4.165  12.462  0.00  0.00    +0.000 C 
ATOM     25  O   UNL     1      43.789   3.122  13.101  0.00  0.00    +0.000 OA
ATOM     26  H   UNL     1      41.857   3.639  11.599  0.00  0.00    +0.000 HD
ATOM     27  H   UNL     1      42.490   5.196  11.092  0.00  0.00    +0.000 HD
ENDBRANCH  17  24
ENDBRANCH  16  19
ENDBRANCH  15  16
ENDBRANCH   1  15
TORSDOF 5
ENDMDL
MODEL 9
REMARK VINA RESULT:    -6.255      3.836      5.549
REMARK INTER + INTRA:          -8.391
REMARK INTER:                  -7.777
REMARK INTRA:                  -0.615
REMARK UNBOUND:                -0.309
REMARK  Name = 
REMARK  5 active torsions:
REMARK  status: ('A' for Active; 'I' for Inactive)
REMARK    1  A    between atoms: C_2  and  C_4
REMARK    2  A    between atoms: C_6  and  O_7
REMARK    3  A    between atoms: O_7  and  C_8
REMARK    4  A    between atoms: C_8  and  C_9
REMARK    5  A    between atoms: C_14  and  C_15
REMARK                            x       y       z     vdW  Elec       q    Type
REMARK                         _______ _______ _______ _____ _____    ______ ____
ROOT
ATOM      1  C   UNL     1      47.674   4.213  16.152  0.00  0.00    +0.000 A 
ATOM      2  C   UNL     1      47.625   3.248  17.159  0.00  0.00    +0.000 A 
ATOM      3  C   UNL     1      48.257   3.498  18.373  0.00  0.00    +0.000 A 
ATOM      4  F   UNL     1      48.208   2.572  19.340  0.00  0.00    +0.000 F 
ATOM      5  C   UNL     1      48.946   4.690  18.606  0.00  0.00    +0.000 A 
ATOM      6  C   UNL     1      49.020   5.672  17.610  0.00  0.00    +0.000 A 
ATOM      7  C   UNL     1      48.340   5.418  16.408  0.00  0.00    +0.000 A 
ENDROOT
BRANCH   6   8
ATOM      8  C   UNL     1      49.772   6.980  17.858  0.00  0.00    +0.000 C 
ATOM      9  C   UNL     1      50.193   7.225  19.320  0.00  0.00    +0.000 C 
ATOM     10  C   UNL     1      49.013   7.633  20.211  0.00  0.00    +0.000 C 
ATOM     11  N   UNL     1      48.295   8.797  19.692  0.00  0.00    +0.000 NA
ATOM     12  C   UNL     1      47.866   8.620  18.305  0.00  0.00    +0.000 C 
ATOM     13  C   UNL     1      49.010   8.229  17.371  0.00  0.00    +0.000 C 
ATOM     14  H   UNL     1      48.897   9.617  19.759  0.00  0.00    +0.000 HD
ENDBRANCH   6   8
BRANCH   1  15
ATOM     15  C   UNL     1      47.028   4.008  14.806  0.00  0.00    +0.000 C 
BRANCH  15  16
ATOM     16  O   UNL     1      47.408   5.079  13.943  0.00  0.00    +0.000 OA
BRANCH  16  19
ATOM     17  C   UNL     1      44.766   5.226  11.379  0.00  0.00    +0.000 A 
ATOM     18  C   UNL     1      45.634   4.645  12.300  0.00  0.00    +0.000 A 
ATOM     19  C   UNL     1      46.484   5.479  13.016  0.00  0.00    +0.000 A 
ATOM     20  C   UNL     1      46.424   6.853  12.795  0.00  0.00    +0.000 A 
ATOM     21  C   UNL     1      45.520   7.342  11.863  0.00  0.00    +0.000 A 
ATOM     22  N   UNL     1      44.689   6.563  11.140  0.00  0.00    +0.000 NA
BRANCH  17  24
ATOM     23  N   UNL     1      43.907   4.505   9.219  0.00  0.00    +0.000 N 
ATOM     24  C   UNL     1      43.868   4.342  10.576  0.00  0.00    +0.000 C 
ATOM     25  O   UNL     1      43.145   3.493  11.097  0.00  0.00    +0.000 OA
ATOM     26  H   UNL     1      43.377   3.873   8.636  0.00  0.00    +0.000 HD
ATOM     27  H   UNL     1      44.586   5.135   8.806  0.00  0.00    +0.000 HD
ENDBRANCH  17  24
ENDBRANCH  16  19
ENDBRANCH  15  16
ENDBRANCH   1  15
TORSDOF 5
ENDMDL
