MODEL 1
REMARK VINA RESULT:    -8.075      0.000      0.000
REMARK INTER + INTRA:         -12.027
REMARK INTER:                 -10.907
REMARK INTRA:                  -1.119
REMARK UNBOUND:                -1.119
REMARK  Name = 
REMARK  7 active torsions:
REMARK  status: ('A' for Active; 'I' for Inactive)
REMARK    1  A    between atoms: C_1  and  C_2
REMARK    2  A    between atoms: C_6  and  C_7
REMARK    3  A    between atoms: N_9  and  C_10
REMARK    4  A    between atoms: C_10  and  C_11
REMARK    5  A    between atoms: C_14  and  C_15
REMARK    6  A    between atoms: C_15  and  N_16
REMARK    7  A    between atoms: C_17  and  C_19
REMARK                            x       y       z     vdW  Elec       q    Type
REMARK                         _______ _______ _______ _____ _____    ______ ____
ROOT
ATOM      1  C   UNL     1      44.906   6.092  11.024  0.00  0.00    +0.000 A 
ATOM      2  C   UNL     1      46.209   5.693  11.352  0.00  0.00    +0.000 A 
ATOM      3  C   UNL     1      47.003   6.465  12.211  0.00  0.00    +0.000 A 
ATOM      4  C   UNL     1      46.502   7.644  12.780  0.00  0.00    +0.000 A 
ATOM      5  C   UNL     1      45.204   8.049  12.441  0.00  0.00    +0.000 A 
ATOM      6  C   UNL     1      44.409   7.276  11.585  0.00  0.00    +0.000 A 
ENDROOT
BRANCH   1   7
ATOM      7  C   UNL     1      44.076   5.283  10.060  0.00  0.00    +0.000 C 
BRANCH   7  10
ATOM      8  C   UNL     1      44.756   3.070   9.252  0.00  0.00    +0.000 C 
ATOM      9  O   UNL     1      44.014   2.486  10.037  0.00  0.00    +0.000 OA
ATOM     10  N   UNL     1      44.857   4.447   9.185  0.00  0.00    +0.000 N 
ATOM     11  H   UNL     1      45.509   4.839   8.513  0.00  0.00    +0.000 HD
BRANCH   8  17
ATOM     12  C   UNL     1      47.431   2.871   5.016  0.00  0.00    +0.000 C 
ATOM     13  C   UNL     1      46.900   2.221   6.258  0.00  0.00    +0.000 A 
ATOM     14  C   UNL     1      47.188   0.890   6.565  0.00  0.00    +0.000 A 
ATOM     15  C   UNL     1      46.668   0.342   7.730  0.00  0.00    +0.000 A 
ATOM     16  N   UNL     1      45.886   1.012   8.601  0.00  0.00    +0.000 NA
ATOM     17  C   UNL     1      45.617   2.310   8.287  0.00  0.00    +0.000 A 
ATOM     18  C   UNL     1      46.092   2.944   7.140  0.00  0.00    +0.000 A 
ENDBRANCH   8  17
ENDBRANCH   7  10
ENDBRANCH   1   7
BRANCH   4  19
ATOM     19  C   UNL     1      47.332   8.474  13.729  0.00  0.00    +0.000 C 
BRANCH  19  20
ATOM     20  N   UNL     1      47.715   7.732  14.904  0.00  0.00    +0.000 N 
ATOM     21  C   UNL     1      48.965   7.177  15.020  0.00  0.00    +0.000 C 
ATOM     22  O   UNL     1      49.824   7.313  14.153  0.00  0.00    +0.000 OA
ATOM     23  H   UNL     1      46.962   7.383  15.489  0.00  0.00    +0.000 HD
BRANCH  21  24
ATOM     24  C   UNL     1      49.245   6.455  16.270  0.00  0.00    +0.000 A 
ATOM     25  C   UNL     1      50.220   6.928  17.140  0.00  0.00    +0.000 A 
ATOM     26  S   UNL     1      50.374   5.997  18.562  0.00  0.00    +0.000 S 
ATOM     27  C   UNL     1      49.184   4.900  18.039  0.00  0.00    +0.000 A 
ATOM     28  N   UNL     1      48.839   3.820  18.796  0.00  0.00    +0.000 NA
ATOM     29  C   UNL     1      47.942   3.061  18.260  0.00  0.00    +0.000 A 
ATOM     30  N   UNL     1      47.347   3.289  17.047  0.00  0.00    +0.000 N 
ATOM     31  C   UNL     1      47.641   4.380  16.267  0.00  0.00    +0.000 A 
ATOM     32  O   UNL     1      47.047   4.579  15.206  0.00  0.00    +0.000 OA
ATOM     33  C   UNL     1      48.657   5.257  16.812  0.00  0.00    +0.000 A 
ATOM     34  H   UNL     1      46.638   2.664  16.691  0.00  0.00    +0.000 HD
ENDBRANCH  21  24
ENDBRANCH  19  20
ENDBRANCH   4  19
TORSDOF 6
ENDMDL
MODEL 2
REMARK VINA RESULT:    -7.945      3.601      6.365
REMARK INTER + INTRA:         -11.852
REMARK INTER:                 -10.886
REMARK INTRA:                  -0.965
REMARK UNBOUND:                -1.119
REMARK  Name = 
REMARK  7 active torsions:
REMARK  status: ('A' for Active; 'I' for Inactive)
REMARK    1  A    between atoms: C_1  and  C_2
REMARK    2  A    between atoms: C_6  and  C_7
REMARK    3  A    between atoms: N_9  and  C_10
REMARK    4  A    between atoms: C_10  and  C_11
REMARK    5  A    between atoms: C_14  and  C_15
REMARK    6  A    between atoms: C_15  and  N_16
REMARK    7  A    between atoms: C_17  and  C_19
REMARK                            x       y       z     vdW  Elec       q    Type
REMARK                         _______ _______ _______ _____ _____    ______ ____
ROOT
ATOM      1  C   UNL     1      46.835   2.214   6.592  0.00  0.00    +0.000 A 
ATOM      2  C   UNL     1      46.476   3.557   6.774  0.00  0.00    +0.000 A 
ATOM      3  C   UNL     1      45.753   3.962   7.904  0.00  0.00    +0.000 A 
ATOM      4  C   UNL     1      45.391   3.034   8.890  0.00  0.00    +0.000 A 
ATOM      5  C   UNL     1      45.739   1.689   8.701  0.00  0.00    +0.000 A 
ATOM      6  C   UNL     1      46.464   1.285   7.573  0.00  0.00    +0.000 A 
ENDROOT
BRANCH   1   7
ATOM      7  C   UNL     1      47.569   1.778   5.349  0.00  0.00    +0.000 C 
BRANCH   7  10
ATOM      8  C   UNL     1      46.732   0.102   3.767  0.00  0.00    +0.000 C 
ATOM      9  O   UNL     1      46.395   0.951   2.947  0.00  0.00    +0.000 OA
ATOM     10  N   UNL     1      47.320   0.409   4.980  0.00  0.00    +0.000 N 
ATOM     11  H   UNL     1      47.550  -0.361   5.600  0.00  0.00    +0.000 HD
BRANCH   8  17
ATOM     12  C   UNL     1      46.932  -4.678   5.267  0.00  0.00    +0.000 C 
ATOM     13  C   UNL     1      46.623  -3.648   4.223  0.00  0.00    +0.000 A 
ATOM     14  C   UNL     1      46.133  -4.008   2.966  0.00  0.00    +0.000 A 
ATOM     15  C   UNL     1      45.865  -3.009   2.039  0.00  0.00    +0.000 A 
ATOM     16  N   UNL     1      46.053  -1.693   2.266  0.00  0.00    +0.000 NA
ATOM     17  C   UNL     1      46.528  -1.360   3.498  0.00  0.00    +0.000 A 
ATOM     18  C   UNL     1      46.828  -2.291   4.491  0.00  0.00    +0.000 A 
ENDBRANCH   8  17
ENDBRANCH   7  10
ENDBRANCH   1   7
BRANCH   4  19
ATOM     19  C   UNL     1      44.636   3.456  10.127  0.00  0.00    +0.000 C 
BRANCH  19  20
ATOM     20  N   UNL     1      45.190   4.647  10.720  0.00  0.00    +0.000 N 
ATOM     21  C   UNL     1      44.380   5.649  11.195  0.00  0.00    +0.000 C 
ATOM     22  O   UNL     1      43.155   5.565  11.172  0.00  0.00    +0.000 OA
ATOM     23  H   UNL     1      46.160   4.855  10.506  0.00  0.00    +0.000 HD
BRANCH  21  24
ATOM     24  C   UNL     1      45.058   6.810  11.790  0.00  0.00    +0.000 A 
ATOM     25  C   UNL     1      44.692   8.096  11.411  0.00  0.00    +0.000 A 
ATOM     26  S   UNL     1      45.546   9.319  12.240  0.00  0.00    +0.000 S 
ATOM     27  C   UNL     1      46.469   8.173  13.093  0.00  0.00    +0.000 A 
ATOM     28  N   UNL     1      47.432   8.561  13.978  0.00  0.00    +0.000 NA
ATOM     29  C   UNL     1      48.070   7.583  14.530  0.00  0.00    +0.000 A 
ATOM     30  N   UNL     1      47.827   6.256  14.292  0.00  0.00    +0.000 N 
ATOM     31  C   UNL     1      46.847   5.821  13.433  0.00  0.00    +0.000 A 
ATOM     32  O   UNL     1      46.623   4.618  13.285  0.00  0.00    +0.000 OA
ATOM     33  C   UNL     1      46.111   6.878  12.771  0.00  0.00    +0.000 A 
ATOM     34  H   UNL     1      48.353   5.538  14.770  0.00  0.00    +0.000 HD
ENDBRANCH  21  24
ENDBRANCH  19  20
ENDBRANCH   4  19
TORSDOF 6
ENDMDL
MODEL 3
REMARK VINA RESULT:    -7.745      2.384      2.873
REMARK INTER + INTRA:         -11.581
REMARK INTER:                 -10.541
REMARK INTRA:                  -1.040
REMARK UNBOUND:                -1.119
REMARK  Name = 
REMARK  7 active torsions:
REMARK  status: ('A' for Active; 'I' for Inactive)
REMARK    1  A    between atoms: C_1  and  C_2
REMARK    2  A    between atoms: C_6  and  C_7
REMARK    3  A    between atoms: N_9  and  C_10
REMARK    4  A    between atoms: C_10  and  C_11
REMARK    5  A    between atoms: C_14  and  C_15
REMARK    6  A    between atoms: C_15  and  N_16
REMARK    7  A    between atoms: C_17  and  C_19
REMARK                            x       y       z     vdW  Elec       q    Type
REMARK                         _______ _______ _______ _____ _____    ______ ____
ROOT
ATOM      1  C   UNL     1      45.486   4.351  12.291  0.00  0.00    +0.000 A 
ATOM      2  C   UNL     1      46.105   3.756  13.399  0.00  0.00    +0.000 A 
ATOM      3  C   UNL     1      47.039   4.464  14.168  0.00  0.00    +0.000 A 
ATOM      4  C   UNL     1      47.359   5.793  13.858  0.00  0.00    +0.000 A 
ATOM      5  C   UNL     1      46.749   6.383  12.742  0.00  0.00    +0.000 A 
ATOM      6  C   UNL     1      45.813   5.676  11.975  0.00  0.00    +0.000 A 
ENDROOT
BRANCH   1   7
ATOM      7  C   UNL     1      44.521   3.566  11.439  0.00  0.00    +0.000 C 
BRANCH   7  10
ATOM      8  C   UNL     1      45.203   3.204   9.112  0.00  0.00    +0.000 C 
ATOM      9  O   UNL     1      44.716   4.266   8.737  0.00  0.00    +0.000 OA
ATOM     10  N   UNL     1      45.160   2.770  10.424  0.00  0.00    +0.000 N 
ATOM     11  H   UNL     1      45.578   1.869  10.636  0.00  0.00    +0.000 HD
BRANCH   8  17
ATOM     12  C   UNL     1      47.609   2.440   4.780  0.00  0.00    +0.000 C 
ATOM     13  C   UNL     1      47.053   1.927   6.074  0.00  0.00    +0.000 A 
ATOM     14  C   UNL     1      47.164   0.583   6.433  0.00  0.00    +0.000 A 
ATOM     15  C   UNL     1      46.629   0.166   7.645  0.00  0.00    +0.000 A 
ATOM     16  N   UNL     1      45.995   0.978   8.514  0.00  0.00    +0.000 NA
ATOM     17  C   UNL     1      45.899   2.286   8.149  0.00  0.00    +0.000 A 
ATOM     18  C   UNL     1      46.402   2.797   6.954  0.00  0.00    +0.000 A 
ENDBRANCH   8  17
ENDBRANCH   7  10
ENDBRANCH   1   7
BRANCH   4  19
ATOM     19  C   UNL     1      48.341   6.580  14.690  0.00  0.00    +0.000 C 
BRANCH  19  20
ATOM     20  N   UNL     1      48.155   6.357  16.102  0.00  0.00    +0.000 N 
ATOM     21  C   UNL     1      49.198   5.969  16.905  0.00  0.00    +0.000 C 
ATOM     22  O   UNL     1      50.339   5.829  16.473  0.00  0.00    +0.000 OA
ATOM     23  H   UNL     1      47.203   6.203  16.419  0.00  0.00    +0.000 HD
BRANCH  21  24
ATOM     24  C   UNL     1      48.891   5.786  18.332  0.00  0.00    +0.000 A 
ATOM     25  C   UNL     1      49.126   4.558  18.939  0.00  0.00    +0.000 A 
ATOM     26  S   UNL     1      48.761   4.542  20.606  0.00  0.00    +0.000 S 
ATOM     27  C   UNL     1      48.228   6.157  20.561  0.00  0.00    +0.000 A 
ATOM     28  N   UNL     1      47.747   6.771  21.679  0.00  0.00    +0.000 NA
ATOM     29  C   UNL     1      47.353   7.987  21.489  0.00  0.00    +0.000 A 
ATOM     30  N   UNL     1      47.409   8.649  20.291  0.00  0.00    +0.000 N 
ATOM     31  C   UNL     1      47.914   8.079  19.148  0.00  0.00    +0.000 A 
ATOM     32  O   UNL     1      47.996   8.724  18.101  0.00  0.00    +0.000 OA
ATOM     33  C   UNL     1      48.353   6.707  19.300  0.00  0.00    +0.000 A 
ATOM     34  H   UNL     1      47.099   9.607  20.212  0.00  0.00    +0.000 HD
ENDBRANCH  21  24
ENDBRANCH  19  20
ENDBRANCH   4  19
TORSDOF 6
ENDMDL
MODEL 4
REMARK VINA RESULT:    -7.255      3.044      5.056
REMARK INTER + INTRA:         -10.920
REMARK INTER:                 -10.041
REMARK INTRA:                  -0.879
REMARK UNBOUND:                -1.119
REMARK  Name = 
REMARK  7 active torsions:
REMARK  status: ('A' for Active; 'I' for Inactive)
REMARK    1  A    between atoms: C_1  and  C_2
REMARK    2  A    between atoms: C_6  and  C_7
REMARK    3  A    between atoms: N_9  and  C_10
REMARK    4  A    between atoms: C_10  and  C_11
REMARK    5  A    between atoms: C_14  and  C_15
REMARK    6  A    between atoms: C_15  and  N_16
REMARK    7  A    between atoms: C_17  and  C_19
REMARK                            x       y       z     vdW  Elec       q    Type
REMARK                         _______ _______ _______ _____ _____    ______ ____
ROOT
ATOM      1  C   UNL     1      46.111   3.423   7.440  0.00  0.00    +0.000 A 
ATOM      2  C   UNL     1      46.016   4.585   8.218  0.00  0.00    +0.000 A 
ATOM      3  C   UNL     1      45.488   4.540   9.516  0.00  0.00    +0.000 A 
ATOM      4  C   UNL     1      45.063   3.327  10.073  0.00  0.00    +0.000 A 
ATOM      5  C   UNL     1      45.147   2.168   9.289  0.00  0.00    +0.000 A 
ATOM      6  C   UNL     1      45.677   2.211   7.993  0.00  0.00    +0.000 A 
ENDROOT
BRANCH   1   7
ATOM      7  C   UNL     1      46.634   3.488   6.027  0.00  0.00    +0.000 C 
BRANCH   7  10
ATOM      8  C   UNL     1      47.349   1.391   4.975  0.00  0.00    +0.000 C 
ATOM      9  O   UNL     1      48.507   1.519   5.363  0.00  0.00    +0.000 OA
ATOM     10  N   UNL     1      46.352   2.308   5.252  0.00  0.00    +0.000 N 
ATOM     11  H   UNL     1      45.427   2.124   4.875  0.00  0.00    +0.000 HD
BRANCH   8  17
ATOM     12  C   UNL     1      46.527  -3.537   4.555  0.00  0.00    +0.000 C 
ATOM     13  C   UNL     1      46.535  -2.158   3.966  0.00  0.00    +0.000 A 
ATOM     14  C   UNL     1      46.151  -1.928   2.644  0.00  0.00    +0.000 A 
ATOM     15  C   UNL     1      46.178  -0.629   2.154  0.00  0.00    +0.000 A 
ATOM     16  N   UNL     1      46.561   0.446   2.873  0.00  0.00    +0.000 NA
ATOM     17  C   UNL     1      46.930   0.203   4.161  0.00  0.00    +0.000 A 
ATOM     18  C   UNL     1      46.937  -1.065   4.739  0.00  0.00    +0.000 A 
ENDBRANCH   8  17
ENDBRANCH   7  10
ENDBRANCH   1   7
BRANCH   4  19
ATOM     19  C   UNL     1      44.517   3.255  11.478  0.00  0.00    +0.000 C 
BRANCH  19  20
ATOM     20  N   UNL     1      45.516   3.582  12.465  0.00  0.00    +0.000 N 
ATOM     21  C   UNL     1      45.512   4.795  13.106  0.00  0.00    +0.000 C 
ATOM     22  O   UNL     1      44.646   5.641  12.901  0.00  0.00    +0.000 OA
ATOM     23  H   UNL     1      46.369   3.032  12.450  0.00  0.00    +0.000 HD
BRANCH  21  24
ATOM     24  C   UNL     1      46.573   5.010  14.103  0.00  0.00    +0.000 A 
ATOM     25  C   UNL     1      46.563   4.291  15.292  0.00  0.00    +0.000 A 
ATOM     26  S   UNL     1      47.894   4.631  16.304  0.00  0.00    +0.000 S 
ATOM     27  C   UNL     1      48.498   5.788  15.213  0.00  0.00    +0.000 A 
ATOM     28  N   UNL     1      49.634   6.491  15.489  0.00  0.00    +0.000 NA
ATOM     29  C   UNL     1      49.957   7.353  14.583  0.00  0.00    +0.000 A 
ATOM     30  N   UNL     1      49.261   7.567  13.423  0.00  0.00    +0.000 N 
ATOM     31  C   UNL     1      48.132   6.861  13.091  0.00  0.00    +0.000 A 
ATOM     32  O   UNL     1      47.563   7.046  12.014  0.00  0.00    +0.000 OA
ATOM     33  C   UNL     1      47.712   5.892  14.082  0.00  0.00    +0.000 A 
ATOM     34  H   UNL     1      49.578   8.247  12.746  0.00  0.00    +0.000 HD
ENDBRANCH  21  24
ENDBRANCH  19  20
ENDBRANCH   4  19
TORSDOF 6
ENDMDL
MODEL 5
REMARK VINA RESULT:    -7.127      1.982      2.331
REMARK INTER + INTRA:         -10.746
REMARK INTER:                  -9.771
REMARK INTRA:                  -0.975
REMARK UNBOUND:                -1.119
REMARK  Name = 
REMARK  7 active torsions:
REMARK  status: ('A' for Active; 'I' for Inactive)
REMARK    1  A    between atoms: C_1  and  C_2
REMARK    2  A    between atoms: C_6  and  C_7
REMARK    3  A    between atoms: N_9  and  C_10
REMARK    4  A    between atoms: C_10  and  C_11
REMARK    5  A    between atoms: C_14  and  C_15
REMARK    6  A    between atoms: C_15  and  N_16
REMARK    7  A    between atoms: C_17  and  C_19
REMARK                            x       y       z     vdW  Elec       q    Type
REMARK                         _______ _______ _______ _____ _____    ______ ____
ROOT
ATOM      1  C   UNL     1      45.371   4.861  12.027  0.00  0.00    +0.000 A 
ATOM      2  C   UNL     1      45.306   6.237  11.773  0.00  0.00    +0.000 A 
ATOM      3  C   UNL     1      46.145   7.134  12.449  0.00  0.00    +0.000 A 
ATOM      4  C   UNL     1      47.084   6.669  13.380  0.00  0.00    +0.000 A 
ATOM      5  C   UNL     1      47.140   5.294  13.642  0.00  0.00    +0.000 A 
ATOM      6  C   UNL     1      46.303   4.397  12.965  0.00  0.00    +0.000 A 
ENDROOT
BRANCH   1   7
ATOM      7  C   UNL     1      44.431   3.908  11.333  0.00  0.00    +0.000 C 
BRANCH   7  10
ATOM      8  C   UNL     1      45.200   3.471   9.046  0.00  0.00    +0.000 C 
ATOM      9  O   UNL     1      44.783   4.548   8.632  0.00  0.00    +0.000 OA
ATOM     10  N   UNL     1      45.075   3.064  10.361  0.00  0.00    +0.000 N 
ATOM     11  H   UNL     1      45.438   2.148  10.606  0.00  0.00    +0.000 HD
BRANCH   8  17
ATOM     12  C   UNL     1      47.608   2.482   4.761  0.00  0.00    +0.000 C 
ATOM     13  C   UNL     1      47.048   2.036   6.078  0.00  0.00    +0.000 A 
ATOM     14  C   UNL     1      47.152   0.711   6.504  0.00  0.00    +0.000 A 
ATOM     15  C   UNL     1      46.615   0.358   7.735  0.00  0.00    +0.000 A 
ATOM     16  N   UNL     1      45.983   1.215   8.561  0.00  0.00    +0.000 NA
ATOM     17  C   UNL     1      45.893   2.504   8.131  0.00  0.00    +0.000 A 
ATOM     18  C   UNL     1      46.400   2.951   6.913  0.00  0.00    +0.000 A 
ENDBRANCH   8  17
ENDBRANCH   7  10
ENDBRANCH   1   7
BRANCH   4  19
ATOM     19  C   UNL     1      48.015   7.617  14.097  0.00  0.00    +0.000 C 
BRANCH  19  20
ATOM     20  N   UNL     1      48.219   7.238  15.473  0.00  0.00    +0.000 N 
ATOM     21  C   UNL     1      48.468   8.178  16.441  0.00  0.00    +0.000 C 
ATOM     22  O   UNL     1      48.494   9.381  16.193  0.00  0.00    +0.000 OA
ATOM     23  H   UNL     1      48.469   6.270  15.648  0.00  0.00    +0.000 HD
BRANCH  21  24
ATOM     24  C   UNL     1      48.647   7.674  17.811  0.00  0.00    +0.000 A 
ATOM     25  C   UNL     1      47.901   8.216  18.851  0.00  0.00    +0.000 A 
ATOM     26  S   UNL     1      48.200   7.477  20.360  0.00  0.00    +0.000 S 
ATOM     27  C   UNL     1      49.372   6.446  19.685  0.00  0.00    +0.000 A 
ATOM     28  N   UNL     1      50.053   5.552  20.457  0.00  0.00    +0.000 NA
ATOM     29  C   UNL     1      50.930   4.855  19.814  0.00  0.00    +0.000 A 
ATOM     30  N   UNL     1      51.180   4.959  18.471  0.00  0.00    +0.000 N 
ATOM     31  C   UNL     1      50.497   5.823  17.651  0.00  0.00    +0.000 A 
ATOM     32  O   UNL     1      50.714   5.851  16.438  0.00  0.00    +0.000 OA
ATOM     33  C   UNL     1      49.512   6.644  18.324  0.00  0.00    +0.000 A 
ATOM     34  H   UNL     1      51.871   4.372  18.025  0.00  0.00    +0.000 HD
ENDBRANCH  21  24
ENDBRANCH  19  20
ENDBRANCH   4  19
TORSDOF 6
ENDMDL
MODEL 6
REMARK VINA RESULT:    -6.775      2.778      4.229
REMARK INTER + INTRA:         -10.271
REMARK INTER:                  -9.348
REMARK INTRA:                  -0.923
REMARK UNBOUND:                -1.119
REMARK  Name = 
REMARK  7 active torsions:
REMARK  status: ('A' for Active; 'I' for Inactive)
REMARK    1  A    between atoms: C_1  and  C_2
REMARK    2  A    between atoms: C_6  and  C_7
REMARK    3  A    between atoms: N_9  and  C_10
REMARK    4  A    between atoms: C_10  and  C_11
REMARK    5  A    between atoms: C_14  and  C_15
REMARK    6  A    between atoms: C_15  and  N_16
REMARK    7  A    between atoms: C_17  and  C_19
REMARK                            x       y       z     vdW  Elec       q    Type
REMARK                         _______ _______ _______ _____ _____    ______ ____
ROOT
ATOM      1  C   UNL     1      47.929   7.921  13.504  0.00  0.00    +0.000 A 
ATOM      2  C   UNL     1      48.322   6.690  14.048  0.00  0.00    +0.000 A 
ATOM      3  C   UNL     1      48.749   6.596  15.379  0.00  0.00    +0.000 A 
ATOM      4  C   UNL     1      48.772   7.728  16.204  0.00  0.00    +0.000 A 
ATOM      5  C   UNL     1      48.392   8.961  15.656  0.00  0.00    +0.000 A 
ATOM      6  C   UNL     1      47.962   9.055  14.326  0.00  0.00    +0.000 A 
ENDROOT
BRANCH   1   7
ATOM      7  C   UNL     1      47.519   8.023  12.057  0.00  0.00    +0.000 C 
BRANCH   7  10
ATOM      8  C   UNL     1      45.639   6.622  11.339  0.00  0.00    +0.000 C 
ATOM      9  O   UNL     1      44.808   7.480  11.625  0.00  0.00    +0.000 OA
ATOM     10  N   UNL     1      46.999   6.795  11.514  0.00  0.00    +0.000 N 
ATOM     11  H   UNL     1      47.608   6.023  11.262  0.00  0.00    +0.000 HD
BRANCH   8  17
ATOM     12  C   UNL     1      45.484   3.389   7.510  0.00  0.00    +0.000 C 
ATOM     13  C   UNL     1      45.154   3.755   8.926  0.00  0.00    +0.000 A 
ATOM     14  C   UNL     1      44.453   2.882   9.760  0.00  0.00    +0.000 A 
ATOM     15  C   UNL     1      44.176   3.276  11.063  0.00  0.00    +0.000 A 
ATOM     16  N   UNL     1      44.537   4.464  11.589  0.00  0.00    +0.000 NA
ATOM     17  C   UNL     1      45.223   5.301  10.762  0.00  0.00    +0.000 A 
ATOM     18  C   UNL     1      45.544   4.994   9.442  0.00  0.00    +0.000 A 
ENDBRANCH   8  17
ENDBRANCH   7  10
ENDBRANCH   1   7
BRANCH   4  19
ATOM     19  C   UNL     1      49.203   7.641  17.648  0.00  0.00    +0.000 C 
BRANCH  19  20
ATOM     20  N   UNL     1      50.249   6.667  17.843  0.00  0.00    +0.000 N 
ATOM     21  C   UNL     1      50.075   5.595  18.682  0.00  0.00    +0.000 C 
ATOM     22  O   UNL     1      49.019   5.393  19.275  0.00  0.00    +0.000 OA
ATOM     23  H   UNL     1      51.190   6.952  17.591  0.00  0.00    +0.000 HD
BRANCH  21  24
ATOM     24  C   UNL     1      51.207   4.662  18.791  0.00  0.00    +0.000 A 
ATOM     25  C   UNL     1      52.324   5.012  19.539  0.00  0.00    +0.000 A 
ATOM     26  S   UNL     1      53.514   3.789  19.597  0.00  0.00    +0.000 S 
ATOM     27  C   UNL     1      52.600   2.775  18.584  0.00  0.00    +0.000 A 
ATOM     28  N   UNL     1      53.067   1.550  18.208  0.00  0.00    +0.000 NA
ATOM     29  C   UNL     1      52.278   0.903  17.415  0.00  0.00    +0.000 A 
ATOM     30  N   UNL     1      51.063   1.358  16.976  0.00  0.00    +0.000 N 
ATOM     31  C   UNL     1      50.542   2.571  17.355  0.00  0.00    +0.000 A 
ATOM     32  O   UNL     1      49.422   2.923  16.981  0.00  0.00    +0.000 OA
ATOM     33  C   UNL     1      51.394   3.348  18.230  0.00  0.00    +0.000 A 
ATOM     34  H   UNL     1      50.486   0.794  16.368  0.00  0.00    +0.000 HD
ENDBRANCH  21  24
ENDBRANCH  19  20
ENDBRANCH   4  19
TORSDOF 6
ENDMDL
MODEL 7
REMARK VINA RESULT:    -6.672      4.608     11.065
REMARK INTER + INTRA:         -10.132
REMARK INTER:                  -9.395
REMARK INTRA:                  -0.738
REMARK UNBOUND:                -1.119
REMARK  Name = 
REMARK  7 active torsions:
REMARK  status: ('A' for Active; 'I' for Inactive)
REMARK    1  A    between atoms: C_1  and  C_2
REMARK    2  A    between atoms: C_6  and  C_7
REMARK    3  A    between atoms: N_9  and  C_10
REMARK    4  A    between atoms: C_10  and  C_11
REMARK    5  A    between atoms: C_14  and  C_15
REMARK    6  A    between atoms: C_15  and  N_16
REMARK    7  A    between atoms: C_17  and  C_19
REMARK                            x       y       z     vdW  Elec       q    Type
REMARK                         _______ _______ _______ _____ _____    ______ ____
ROOT
ATOM      1  C   UNL     1      48.345   5.659  20.337  0.00  0.00    +0.000 A 
ATOM      2  C   UNL     1      49.208   4.662  19.861  0.00  0.00    +0.000 A 
ATOM      3  C   UNL     1      48.964   4.022  18.638  0.00  0.00    +0.000 A 
ATOM      4  C   UNL     1      47.861   4.380  17.852  0.00  0.00    +0.000 A 
ATOM      5  C   UNL     1      46.990   5.368  18.334  0.00  0.00    +0.000 A 
ATOM      6  C   UNL     1      47.236   6.010  19.555  0.00  0.00    +0.000 A 
ENDROOT
BRANCH   1   7
ATOM      7  C   UNL     1      48.586   6.307  21.676  0.00  0.00    +0.000 C 
BRANCH   7  10
ATOM      8  C   UNL     1      48.577   8.734  21.324  0.00  0.00    +0.000 C 
ATOM      9  O   UNL     1      49.662   8.718  20.751  0.00  0.00    +0.000 OA
ATOM     10  N   UNL     1      47.962   7.597  21.815  0.00  0.00    +0.000 N 
ATOM     11  H   UNL     1      47.071   7.712  22.288  0.00  0.00    +0.000 HD
BRANCH   8  17
ATOM     12  C   UNL     1      44.371  11.434  20.935  0.00  0.00    +0.000 C 
ATOM     13  C   UNL     1      45.807  11.305  21.342  0.00  0.00    +0.000 A 
ATOM     14  C   UNL     1      46.498  12.367  21.928  0.00  0.00    +0.000 A 
ATOM     15  C   UNL     1      47.828  12.187  22.285  0.00  0.00    +0.000 A 
ATOM     16  N   UNL     1      48.516  11.043  22.098  0.00  0.00    +0.000 NA
ATOM     17  C   UNL     1      47.826  10.017  21.528  0.00  0.00    +0.000 A 
ATOM     18  C   UNL     1      46.491  10.103  21.136  0.00  0.00    +0.000 A 
ENDBRANCH   8  17
ENDBRANCH   7  10
ENDBRANCH   1   7
BRANCH   4  19
ATOM     19  C   UNL     1      47.597   3.721  16.520  0.00  0.00    +0.000 C 
BRANCH  19  20
ATOM     20  N   UNL     1      46.987   4.627  15.579  0.00  0.00    +0.000 N 
ATOM     21  C   UNL     1      46.805   4.272  14.266  0.00  0.00    +0.000 C 
ATOM     22  O   UNL     1      47.116   3.163  13.839  0.00  0.00    +0.000 OA
ATOM     23  H   UNL     1      46.977   5.610  15.832  0.00  0.00    +0.000 HD
BRANCH  21  24
ATOM     24  C   UNL     1      46.160   5.272  13.402  0.00  0.00    +0.000 A 
ATOM     25  C   UNL     1      46.826   6.451  13.090  0.00  0.00    +0.000 A 
ATOM     26  S   UNL     1      45.951   7.470  12.037  0.00  0.00    +0.000 S 
ATOM     27  C   UNL     1      44.632   6.396  12.006  0.00  0.00    +0.000 A 
ATOM     28  N   UNL     1      43.506   6.684  11.292  0.00  0.00    +0.000 NA
ATOM     29  C   UNL     1      42.578   5.790  11.384  0.00  0.00    +0.000 A 
ATOM     30  N   UNL     1      42.675   4.632  12.109  0.00  0.00    +0.000 N 
ATOM     31  C   UNL     1      43.800   4.289  12.817  0.00  0.00    +0.000 A 
ATOM     32  O   UNL     1      43.869   3.214  13.415  0.00  0.00    +0.000 OA
ATOM     33  C   UNL     1      44.868   5.265  12.765  0.00  0.00    +0.000 A 
ATOM     34  H   UNL     1      41.916   3.966  12.127  0.00  0.00    +0.000 HD
ENDBRANCH  21  24
ENDBRANCH  19  20
ENDBRANCH   4  19
TORSDOF 6
ENDMDL
MODEL 8
REMARK VINA RESULT:    -6.588      5.651      8.062
REMARK INTER + INTRA:         -10.018
REMARK INTER:                  -9.155
REMARK INTRA:                  -0.863
REMARK UNBOUND:                -1.119
REMARK  Name = 
REMARK  7 active torsions:
REMARK  status: ('A' for Active; 'I' for Inactive)
REMARK    1  A    between atoms: C_1  and  C_2
REMARK    2  A    between atoms: C_6  and  C_7
REMARK    3  A    between atoms: N_9  and  C_10
REMARK    4  A    between atoms: C_10  and  C_11
REMARK    5  A    between atoms: C_14  and  C_15
REMARK    6  A    between atoms: C_15  and  N_16
REMARK    7  A    between atoms: C_17  and  C_19
REMARK                            x       y       z     vdW  Elec       q    Type
REMARK                         _______ _______ _______ _____ _____    ______ ____
ROOT
ATOM      1  C   UNL     1      49.164   7.149  13.912  0.00  0.00    +0.000 A 
ATOM      2  C   UNL     1      49.047   7.232  12.518  0.00  0.00    +0.000 A 
ATOM      3  C   UNL     1      49.957   7.984  11.763  0.00  0.00    +0.000 A 
ATOM      4  C   UNL     1      51.019   8.654  12.386  0.00  0.00    +0.000 A 
ATOM      5  C   UNL     1      51.128   8.581  13.781  0.00  0.00    +0.000 A 
ATOM      6  C   UNL     1      50.220   7.827  14.535  0.00  0.00    +0.000 A 
ENDROOT
BRANCH   1   7
ATOM      7  C   UNL     1      48.152   6.379  14.722  0.00  0.00    +0.000 C 
BRANCH   7  10
ATOM      8  C   UNL     1      46.610   4.707  13.807  0.00  0.00    +0.000 C 
ATOM      9  O   UNL     1      47.263   3.768  14.252  0.00  0.00    +0.000 OA
ATOM     10  N   UNL     1      46.965   6.031  13.986  0.00  0.00    +0.000 N 
ATOM     11  H   UNL     1      46.370   6.738  13.566  0.00  0.00    +0.000 HD
BRANCH   8  17
ATOM     12  C   UNL     1      44.207   2.625   9.929  0.00  0.00    +0.000 C 
ATOM     13  C   UNL     1      44.205   3.472  11.166  0.00  0.00    +0.000 A 
ATOM     14  C   UNL     1      43.035   4.071  11.637  0.00  0.00    +0.000 A 
ATOM     15  C   UNL     1      43.094   4.844  12.790  0.00  0.00    +0.000 A 
ATOM     16  N   UNL     1      44.220   5.067  13.496  0.00  0.00    +0.000 NA
ATOM     17  C   UNL     1      45.351   4.474  13.024  0.00  0.00    +0.000 A 
ATOM     18  C   UNL     1      45.390   3.683  11.877  0.00  0.00    +0.000 A 
ENDBRANCH   8  17
ENDBRANCH   7  10
ENDBRANCH   1   7
BRANCH   4  19
ATOM     19  C   UNL     1      52.025   9.447  11.586  0.00  0.00    +0.000 C 
BRANCH  19  20
ATOM     20  N   UNL     1      52.183   8.930  10.250  0.00  0.00    +0.000 N 
ATOM     21  C   UNL     1      53.425   8.652   9.737  0.00  0.00    +0.000 C 
ATOM     22  O   UNL     1      54.451   8.792  10.396  0.00  0.00    +0.000 OA
ATOM     23  H   UNL     1      51.403   9.063   9.613  0.00  0.00    +0.000 HD
BRANCH  21  24
ATOM     24  C   UNL     1      53.461   8.116   8.367  0.00  0.00    +0.000 A 
ATOM     25  C   UNL     1      53.341   8.978   7.283  0.00  0.00    +0.000 A 
ATOM     26  S   UNL     1      53.457   8.191   5.773  0.00  0.00    +0.000 S 
ATOM     27  C   UNL     1      53.617   6.669   6.516  0.00  0.00    +0.000 A 
ATOM     28  N   UNL     1      53.735   5.532   5.773  0.00  0.00    +0.000 NA
ATOM     29  C   UNL     1      53.821   4.449   6.472  0.00  0.00    +0.000 A 
ATOM     30  N   UNL     1      53.814   4.398   7.841  0.00  0.00    +0.000 N 
ATOM     31  C   UNL     1      53.729   5.521   8.627  0.00  0.00    +0.000 A 
ATOM     32  O   UNL     1      53.779   5.439   9.856  0.00  0.00    +0.000 OA
ATOM     33  C   UNL     1      53.611   6.764   7.895  0.00  0.00    +0.000 A 
ATOM     34  H   UNL     1      53.901   3.517   8.328  0.00  0.00    +0.000 HD
ENDBRANCH  21  24
ENDBRANCH  19  20
ENDBRANCH   4  19
TORSDOF 6
ENDMDL
MODEL 9
REMARK VINA RESULT:    -6.361      3.547      9.225
REMARK INTER + INTRA:          -9.712
REMARK INTER:                  -8.733
REMARK INTRA:                  -0.978
REMARK UNBOUND:                -1.119
REMARK  Name = 
REMARK  7 active torsions:
REMARK  status: ('A' for Active; 'I' for Inactive)
REMARK    1  A    between atoms: C_1  and  C_2
REMARK    2  A    between atoms: C_6  and  C_7
REMARK    3  A    between atoms: N_9  and  C_10
REMARK    4  A    between atoms: C_10  and  C_11
REMARK    5  A    between atoms: C_14  and  C_15
REMARK    6  A    between atoms: C_15  and  N_16
REMARK    7  A    between atoms: C_17  and  C_19
REMARK                            x       y       z     vdW  Elec       q    Type
REMARK                         _______ _______ _______ _____ _____    ______ ____
ROOT
ATOM      1  C   UNL     1      50.747   7.844  14.950  0.00  0.00    +0.000 A 
ATOM      2  C   UNL     1      50.928   8.700  13.855  0.00  0.00    +0.000 A 
ATOM      3  C   UNL     1      49.994   8.739  12.810  0.00  0.00    +0.000 A 
ATOM      4  C   UNL     1      48.846   7.938  12.849  0.00  0.00    +0.000 A 
ATOM      5  C   UNL     1      48.672   7.073  13.938  0.00  0.00    +0.000 A 
ATOM      6  C   UNL     1      49.603   7.035  14.983  0.00  0.00    +0.000 A 
ENDROOT
BRANCH   1   7
ATOM      7  C   UNL     1      51.781   7.770  16.044  0.00  0.00    +0.000 C 
BRANCH   7  10
ATOM      8  C   UNL     1      52.501   6.145  17.733  0.00  0.00    +0.000 C 
ATOM      9  O   UNL     1      52.581   6.998  18.612  0.00  0.00    +0.000 OA
ATOM     10  N   UNL     1      52.115   6.425  16.436  0.00  0.00    +0.000 N 
ATOM     11  H   UNL     1      52.093   5.655  15.774  0.00  0.00    +0.000 HD
BRANCH   8  17
ATOM     12  C   UNL     1      51.341   1.277  17.423  0.00  0.00    +0.000 C 
ATOM     13  C   UNL     1      52.261   2.375  17.863  0.00  0.00    +0.000 A 
ATOM     14  C   UNL     1      53.446   2.103  18.549  0.00  0.00    +0.000 A 
ATOM     15  C   UNL     1      54.258   3.163  18.931  0.00  0.00    +0.000 A 
ATOM     16  N   UNL     1      53.979   4.459  18.689  0.00  0.00    +0.000 NA
ATOM     17  C   UNL     1      52.820   4.706  18.017  0.00  0.00    +0.000 A 
ATOM     18  C   UNL     1      51.942   3.710  17.595  0.00  0.00    +0.000 A 
ENDBRANCH   8  17
ENDBRANCH   7  10
ENDBRANCH   1   7
BRANCH   4  19
ATOM     19  C   UNL     1      47.816   7.987  11.747  0.00  0.00    +0.000 C 
BRANCH  19  20
ATOM     20  N   UNL     1      47.062   6.762  11.654  0.00  0.00    +0.000 N 
ATOM     21  C   UNL     1      45.694   6.757  11.769  0.00  0.00    +0.000 C 
ATOM     22  O   UNL     1      45.047   7.790  11.919  0.00  0.00    +0.000 OA
ATOM     23  H   UNL     1      47.574   5.898  11.804  0.00  0.00    +0.000 HD
BRANCH  21  24
ATOM     24  C   UNL     1      45.033   5.450  11.645  0.00  0.00    +0.000 A 
ATOM     25  C   UNL     1      44.335   4.920  12.724  0.00  0.00    +0.000 A 
ATOM     26  S   UNL     1      43.589   3.423  12.384  0.00  0.00    +0.000 S 
ATOM     27  C   UNL     1      44.218   3.406  10.804  0.00  0.00    +0.000 A 
ATOM     28  N   UNL     1      43.973   2.364   9.960  0.00  0.00    +0.000 NA
ATOM     29  C   UNL     1      44.537   2.475   8.803  0.00  0.00    +0.000 A 
ATOM     30  N   UNL     1      45.308   3.535   8.406  0.00  0.00    +0.000 N 
ATOM     31  C   UNL     1      45.554   4.619   9.212  0.00  0.00    +0.000 A 
ATOM     32  O   UNL     1      46.210   5.579   8.801  0.00  0.00    +0.000 OA
ATOM     33  C   UNL     1      44.961   4.539  10.531  0.00  0.00    +0.000 A 
ATOM     34  H   UNL     1      45.708   3.568   7.479  0.00  0.00    +0.000 HD
ENDBRANCH  21  24
ENDBRANCH  19  20
ENDBRANCH   4  19
TORSDOF 6
ENDMDL
