MODEL 1
REMARK VINA RESULT:    -8.532      0.000      0.000
REMARK INTER + INTRA:         -12.144
REMARK INTER:                 -11.275
REMARK INTRA:                  -0.869
REMARK UNBOUND:                -0.869
REMARK  Name = 
REMARK  6 active torsions:
REMARK  status: ('A' for Active; 'I' for Inactive)
REMARK    1  A    between atoms: C_2  and  C_19
REMARK    2  A    between atoms: N_3  and  C_4
REMARK    3  A    between atoms: C_4  and  C_5
REMARK    4  A    between atoms: C_8  and  C_9
REMARK    5  A    between atoms: C_9  and  O_10
REMARK    6  A    between atoms: C_9  and  C_11
REMARK                            x       y       z     vdW  Elec       q    Type
REMARK                         _______ _______ _______ _____ _____    ______ ____
ROOT
ATOM      1  C   UNL     1      44.479   2.955  10.214  0.00  0.00    +0.000 C 
ENDROOT
BRANCH   1   2
ATOM      2  C   UNL     1      45.219   2.697   8.925  0.00  0.00    +0.000 A 
ATOM      3  C   UNL     1      45.308   3.698   7.955  0.00  0.00    +0.000 A 
ATOM      4  C   UNL     1      46.014   3.477   6.770  0.00  0.00    +0.000 A 
ATOM      5  C   UNL     1      46.634   2.241   6.525  0.00  0.00    +0.000 A 
ATOM      6  C   UNL     1      46.495   1.221   7.479  0.00  0.00    +0.000 A 
ATOM      7  C   UNL     1      45.793   1.446   8.666  0.00  0.00    +0.000 A 
BRANCH   5   8
ATOM      8  C   UNL     1      47.443   2.038   5.256  0.00  0.00    +0.000 C 
BRANCH   8   9
ATOM      9  C   UNL     1      46.866   1.082   4.237  0.00  0.00    +0.000 A 
ATOM     10  C   UNL     1      45.975   1.524   3.248  0.00  0.00    +0.000 A 
ATOM     11  C   UNL     1      45.372   0.614   2.385  0.00  0.00    +0.000 A 
ATOM     12  C   UNL     1      45.675  -0.726   2.537  0.00  0.00    +0.000 A 
ATOM     13  N   UNL     1      46.531  -1.200   3.467  0.00  0.00    +0.000 NA
ATOM     14  C   UNL     1      47.098  -0.291   4.297  0.00  0.00    +0.000 A 
ENDBRANCH   8   9
BRANCH   8  15
ATOM     15  O   UNL     1      48.773   1.624   5.594  0.00  0.00    +0.000 OA
ATOM     16  H   UNL     1      48.823   0.660   5.493  0.00  0.00    +0.000 HD
ENDBRANCH   8  15
ENDBRANCH   5   8
ENDBRANCH   1   2
BRANCH   1  19
ATOM     17  O   UNL     1      45.493   3.100  12.839  0.00  0.00    +0.000 OA
ATOM     18  C   UNL     1      45.509   4.107  12.135  0.00  0.00    +0.000 C 
ATOM     19  N   UNL     1      44.977   4.130  10.874  0.00  0.00    +0.000 N 
ATOM     20  H   UNL     1      45.180   4.921  10.268  0.00  0.00    +0.000 HD
BRANCH  18  21
ATOM     21  C   UNL     1      46.061   5.374  12.622  0.00  0.00    +0.000 A 
ATOM     22  C   UNL     1      47.241   5.379  13.355  0.00  0.00    +0.000 A 
ATOM     23  S   UNL     1      47.733   6.937  13.845  0.00  0.00    +0.000 S 
ATOM     24  C   UNL     1      46.412   7.663  13.051  0.00  0.00    +0.000 A 
ATOM     25  N   UNL     1      46.256   9.013  13.047  0.00  0.00    +0.000 NA
ATOM     26  C   UNL     1      45.239   9.433  12.366  0.00  0.00    +0.000 A 
ATOM     27  N   UNL     1      44.354   8.619  11.709  0.00  0.00    +0.000 N 
ATOM     28  C   UNL     1      44.424   7.250  11.760  0.00  0.00    +0.000 A 
ATOM     29  O   UNL     1      43.530   6.552  11.290  0.00  0.00    +0.000 OA
ATOM     30  C   UNL     1      45.584   6.731  12.458  0.00  0.00    +0.000 A 
ATOM     31  H   UNL     1      43.555   9.009  11.227  0.00  0.00    +0.000 HD
ENDBRANCH  18  21
ENDBRANCH   1  19
TORSDOF 6
ENDMDL
MODEL 2
REMARK VINA RESULT:    -8.292      3.471      5.739
REMARK INTER + INTRA:         -11.827
REMARK INTER:                 -10.846
REMARK INTRA:                  -0.982
REMARK UNBOUND:                -0.869
REMARK  Name = 
REMARK  6 active torsions:
REMARK  status: ('A' for Active; 'I' for Inactive)
REMARK    1  A    between atoms: C_2  and  C_19
REMARK    2  A    between atoms: N_3  and  C_4
REMARK    3  A    between atoms: C_4  and  C_5
REMARK    4  A    between atoms: C_8  and  C_9
REMARK    5  A    between atoms: C_9  and  O_10
REMARK    6  A    between atoms: C_9  and  C_11
REMARK                            x       y       z     vdW  Elec       q    Type
REMARK                         _______ _______ _______ _____ _____    ______ ____
ROOT
ATOM      1  C   UNL     1      46.618   7.728  13.250  0.00  0.00    +0.000 C 
ENDROOT
BRANCH   1   2
ATOM      2  C   UNL     1      46.092   6.712  12.265  0.00  0.00    +0.000 A 
ATOM      3  C   UNL     1      45.154   5.761  12.674  0.00  0.00    +0.000 A 
ATOM      4  C   UNL     1      44.643   4.834  11.763  0.00  0.00    +0.000 A 
ATOM      5  C   UNL     1      45.072   4.831  10.426  0.00  0.00    +0.000 A 
ATOM      6  C   UNL     1      46.054   5.754  10.035  0.00  0.00    +0.000 A 
ATOM      7  C   UNL     1      46.561   6.684  10.946  0.00  0.00    +0.000 A 
BRANCH   5   8
ATOM      8  C   UNL     1      44.463   3.851   9.437  0.00  0.00    +0.000 C 
BRANCH   8   9
ATOM      9  C   UNL     1      45.435   3.003   8.648  0.00  0.00    +0.000 A 
ATOM     10  C   UNL     1      46.197   3.550   7.606  0.00  0.00    +0.000 A 
ATOM     11  C   UNL     1      47.006   2.733   6.822  0.00  0.00    +0.000 A 
ATOM     12  C   UNL     1      47.029   1.379   7.100  0.00  0.00    +0.000 A 
ATOM     13  N   UNL     1      46.321   0.807   8.096  0.00  0.00    +0.000 NA
ATOM     14  C   UNL     1      45.537   1.626   8.838  0.00  0.00    +0.000 A 
ENDBRANCH   8   9
BRANCH   8  15
ATOM     15  O   UNL     1      43.602   4.553   8.532  0.00  0.00    +0.000 OA
ATOM     16  H   UNL     1      43.124   3.896   8.001  0.00  0.00    +0.000 HD
ENDBRANCH   8  15
ENDBRANCH   5   8
ENDBRANCH   1   2
BRANCH   1  19
ATOM     17  O   UNL     1      49.266   6.795  13.496  0.00  0.00    +0.000 OA
ATOM     18  C   UNL     1      48.511   6.716  14.462  0.00  0.00    +0.000 C 
ATOM     19  N   UNL     1      47.195   7.088  14.400  0.00  0.00    +0.000 N 
ATOM     20  H   UNL     1      46.667   7.180  15.264  0.00  0.00    +0.000 HD
BRANCH  18  21
ATOM     21  C   UNL     1      48.962   6.165  15.743  0.00  0.00    +0.000 A 
ATOM     22  C   UNL     1      49.990   6.786  16.440  0.00  0.00    +0.000 A 
ATOM     23  S   UNL     1      50.388   6.009  17.905  0.00  0.00    +0.000 S 
ATOM     24  C   UNL     1      49.166   4.844  17.682  0.00  0.00    +0.000 A 
ATOM     25  N   UNL     1      48.940   3.882  18.615  0.00  0.00    +0.000 NA
ATOM     26  C   UNL     1      47.951   3.093  18.343  0.00  0.00    +0.000 A 
ATOM     27  N   UNL     1      47.185   3.170  17.209  0.00  0.00    +0.000 N 
ATOM     28  C   UNL     1      47.434   4.068  16.203  0.00  0.00    +0.000 A 
ATOM     29  O   UNL     1      46.828   4.009  15.137  0.00  0.00    +0.000 OA
ATOM     30  C   UNL     1      48.492   5.016  16.490  0.00  0.00    +0.000 A 
ATOM     31  H   UNL     1      46.451   2.497  17.037  0.00  0.00    +0.000 HD
ENDBRANCH  18  21
ENDBRANCH   1  19
TORSDOF 6
ENDMDL
MODEL 3
REMARK VINA RESULT:    -8.120      1.309      2.043
REMARK INTER + INTRA:         -11.599
REMARK INTER:                 -10.842
REMARK INTRA:                  -0.758
REMARK UNBOUND:                -0.869
REMARK  Name = 
REMARK  6 active torsions:
REMARK  status: ('A' for Active; 'I' for Inactive)
REMARK    1  A    between atoms: C_2  and  C_19
REMARK    2  A    between atoms: N_3  and  C_4
REMARK    3  A    between atoms: C_4  and  C_5
REMARK    4  A    between atoms: C_8  and  C_9
REMARK    5  A    between atoms: C_9  and  O_10
REMARK    6  A    between atoms: C_9  and  C_11
REMARK                            x       y       z     vdW  Elec       q    Type
REMARK                         _______ _______ _______ _____ _____    ______ ____
ROOT
ATOM      1  C   UNL     1      44.419   3.019  10.019  0.00  0.00    +0.000 C 
ENDROOT
BRANCH   1   2
ATOM      2  C   UNL     1      45.187   2.710   8.758  0.00  0.00    +0.000 A 
ATOM      3  C   UNL     1      45.221   3.637   7.714  0.00  0.00    +0.000 A 
ATOM      4  C   UNL     1      45.951   3.371   6.553  0.00  0.00    +0.000 A 
ATOM      5  C   UNL     1      46.650   2.162   6.407  0.00  0.00    +0.000 A 
ATOM      6  C   UNL     1      46.567   1.212   7.437  0.00  0.00    +0.000 A 
ATOM      7  C   UNL     1      45.841   1.482   8.600  0.00  0.00    +0.000 A 
BRANCH   5   8
ATOM      8  C   UNL     1      47.483   1.914   5.161  0.00  0.00    +0.000 C 
BRANCH   8   9
ATOM      9  C   UNL     1      46.888   0.981   4.130  0.00  0.00    +0.000 A 
ATOM     10  C   UNL     1      45.949   1.437   3.193  0.00  0.00    +0.000 A 
ATOM     11  C   UNL     1      45.334   0.544   2.322  0.00  0.00    +0.000 A 
ATOM     12  C   UNL     1      45.673  -0.793   2.413  0.00  0.00    +0.000 A 
ATOM     13  N   UNL     1      46.575  -1.279   3.291  0.00  0.00    +0.000 NA
ATOM     14  C   UNL     1      47.153  -0.387   4.131  0.00  0.00    +0.000 A 
ENDBRANCH   8   9
BRANCH   8  15
ATOM     15  O   UNL     1      48.781   1.438   5.537  0.00  0.00    +0.000 OA
ATOM     16  H   UNL     1      49.353   1.473   4.754  0.00  0.00    +0.000 HD
ENDBRANCH   8  15
ENDBRANCH   5   8
ENDBRANCH   1   2
BRANCH   1  19
ATOM     17  O   UNL     1      44.695   3.747  12.728  0.00  0.00    +0.000 OA
ATOM     18  C   UNL     1      44.925   4.583  11.857  0.00  0.00    +0.000 C 
ATOM     19  N   UNL     1      44.751   4.323  10.524  0.00  0.00    +0.000 N 
ATOM     20  H   UNL     1      45.128   4.974   9.841  0.00  0.00    +0.000 HD
BRANCH  18  21
ATOM     21  C   UNL     1      45.357   5.942  12.194  0.00  0.00    +0.000 A 
ATOM     22  C   UNL     1      44.690   7.035  11.657  0.00  0.00    +0.000 A 
ATOM     23  S   UNL     1      45.330   8.536  12.152  0.00  0.00    +0.000 S 
ATOM     24  C   UNL     1      46.490   7.777  13.141  0.00  0.00    +0.000 A 
ATOM     25  N   UNL     1      47.354   8.510  13.892  0.00  0.00    +0.000 NA
ATOM     26  C   UNL     1      48.148   7.808  14.634  0.00  0.00    +0.000 A 
ATOM     27  N   UNL     1      48.168   6.437  14.672  0.00  0.00    +0.000 N 
ATOM     28  C   UNL     1      47.374   5.660  13.867  0.00  0.00    +0.000 A 
ATOM     29  O   UNL     1      47.525   4.443  13.816  0.00  0.00    +0.000 OA
ATOM     30  C   UNL     1      46.421   6.401  13.064  0.00  0.00    +0.000 A 
ATOM     31  H   UNL     1      48.841   5.948  15.244  0.00  0.00    +0.000 HD
ENDBRANCH  18  21
ENDBRANCH   1  19
TORSDOF 6
ENDMDL
MODEL 4
REMARK VINA RESULT:    -7.902      4.336      6.180
REMARK INTER + INTRA:         -11.311
REMARK INTER:                 -10.479
REMARK INTRA:                  -0.832
REMARK UNBOUND:                -0.869
REMARK  Name = 
REMARK  6 active torsions:
REMARK  status: ('A' for Active; 'I' for Inactive)
REMARK    1  A    between atoms: C_2  and  C_19
REMARK    2  A    between atoms: N_3  and  C_4
REMARK    3  A    between atoms: C_4  and  C_5
REMARK    4  A    between atoms: C_8  and  C_9
REMARK    5  A    between atoms: C_9  and  O_10
REMARK    6  A    between atoms: C_9  and  C_11
REMARK                            x       y       z     vdW  Elec       q    Type
REMARK                         _______ _______ _______ _____ _____    ______ ____
ROOT
ATOM      1  C   UNL     1      47.246   6.790  13.635  0.00  0.00    +0.000 C 
ENDROOT
BRANCH   1   2
ATOM      2  C   UNL     1      46.506   6.010  12.576  0.00  0.00    +0.000 A 
ATOM      3  C   UNL     1      46.417   6.508  11.274  0.00  0.00    +0.000 A 
ATOM      4  C   UNL     1      45.758   5.781  10.281  0.00  0.00    +0.000 A 
ATOM      5  C   UNL     1      45.160   4.545  10.575  0.00  0.00    +0.000 A 
ATOM      6  C   UNL     1      45.206   4.075  11.896  0.00  0.00    +0.000 A 
ATOM      7  C   UNL     1      45.871   4.802  12.888  0.00  0.00    +0.000 A 
BRANCH   5   8
ATOM      8  C   UNL     1      44.495   3.743   9.469  0.00  0.00    +0.000 C 
BRANCH   8   9
ATOM      9  C   UNL     1      45.418   2.974   8.549  0.00  0.00    +0.000 A 
ATOM     10  C   UNL     1      45.910   3.548   7.368  0.00  0.00    +0.000 A 
ATOM     11  C   UNL     1      46.670   2.792   6.482  0.00  0.00    +0.000 A 
ATOM     12  C   UNL     1      46.918   1.470   6.800  0.00  0.00    +0.000 A 
ATOM     13  N   UNL     1      46.474   0.875   7.927  0.00  0.00    +0.000 NA
ATOM     14  C   UNL     1      45.731   1.635   8.768  0.00  0.00    +0.000 A 
ENDBRANCH   8   9
BRANCH   8  15
ATOM     15  O   UNL     1      43.656   4.603   8.688  0.00  0.00    +0.000 OA
ATOM     16  H   UNL     1      44.156   4.881   7.905  0.00  0.00    +0.000 HD
ENDBRANCH   8  15
ENDBRANCH   5   8
ENDBRANCH   1   2
BRANCH   1  19
ATOM     17  O   UNL     1      49.601   6.540  15.163  0.00  0.00    +0.000 OA
ATOM     18  C   UNL     1      48.573   5.992  15.553  0.00  0.00    +0.000 C 
ATOM     19  N   UNL     1      47.409   6.015  14.834  0.00  0.00    +0.000 N 
ATOM     20  H   UNL     1      46.547   5.712  15.281  0.00  0.00    +0.000 HD
BRANCH  18  21
ATOM     21  C   UNL     1      48.540   5.228  16.804  0.00  0.00    +0.000 A 
ATOM     22  C   UNL     1      48.350   3.853  16.771  0.00  0.00    +0.000 A 
ATOM     23  S   UNL     1      48.334   3.130  18.316  0.00  0.00    +0.000 S 
ATOM     24  C   UNL     1      48.629   4.624  19.078  0.00  0.00    +0.000 A 
ATOM     25  N   UNL     1      48.768   4.703  20.428  0.00  0.00    +0.000 NA
ATOM     26  C   UNL     1      49.038   5.889  20.870  0.00  0.00    +0.000 A 
ATOM     27  N   UNL     1      49.158   7.004  20.082  0.00  0.00    +0.000 N 
ATOM     28  C   UNL     1      48.940   6.984  18.728  0.00  0.00    +0.000 A 
ATOM     29  O   UNL     1      48.904   8.025  18.078  0.00  0.00    +0.000 OA
ATOM     30  C   UNL     1      48.697   5.666  18.176  0.00  0.00    +0.000 A 
ATOM     31  H   UNL     1      49.331   7.910  20.495  0.00  0.00    +0.000 HD
ENDBRANCH  18  21
ENDBRANCH   1  19
TORSDOF 6
ENDMDL
MODEL 5
REMARK VINA RESULT:    -7.552      3.966      6.780
REMARK INTER + INTRA:         -10.849
REMARK INTER:                  -9.787
REMARK INTRA:                  -1.062
REMARK UNBOUND:                -0.869
REMARK  Name = 
REMARK  6 active torsions:
REMARK  status: ('A' for Active; 'I' for Inactive)
REMARK    1  A    between atoms: C_2  and  C_19
REMARK    2  A    between atoms: N_3  and  C_4
REMARK    3  A    between atoms: C_4  and  C_5
REMARK    4  A    between atoms: C_8  and  C_9
REMARK    5  A    between atoms: C_9  and  O_10
REMARK    6  A    between atoms: C_9  and  C_11
REMARK                            x       y       z     vdW  Elec       q    Type
REMARK                         _______ _______ _______ _____ _____    ______ ____
ROOT
ATOM      1  C   UNL     1      47.713   8.217  13.807  0.00  0.00    +0.000 C 
ENDROOT
BRANCH   1   2
ATOM      2  C   UNL     1      46.808   7.282  13.042  0.00  0.00    +0.000 A 
ATOM      3  C   UNL     1      45.712   7.787  12.341  0.00  0.00    +0.000 A 
ATOM      4  C   UNL     1      44.885   6.933  11.608  0.00  0.00    +0.000 A 
ATOM      5  C   UNL     1      45.130   5.550  11.576  0.00  0.00    +0.000 A 
ATOM      6  C   UNL     1      46.201   5.043  12.327  0.00  0.00    +0.000 A 
ATOM      7  C   UNL     1      47.031   5.899  13.055  0.00  0.00    +0.000 A 
BRANCH   5   8
ATOM      8  C   UNL     1      44.252   4.645  10.729  0.00  0.00    +0.000 C 
BRANCH   8   9
ATOM      9  C   UNL     1      44.932   3.932   9.582  0.00  0.00    +0.000 A 
ATOM     10  C   UNL     1      45.001   2.532   9.535  0.00  0.00    +0.000 A 
ATOM     11  C   UNL     1      45.722   1.896   8.529  0.00  0.00    +0.000 A 
ATOM     12  C   UNL     1      46.362   2.683   7.590  0.00  0.00    +0.000 A 
ATOM     13  N   UNL     1      46.319   4.032   7.588  0.00  0.00    +0.000 NA
ATOM     14  C   UNL     1      45.615   4.623   8.584  0.00  0.00    +0.000 A 
ENDBRANCH   8   9
BRANCH   8  15
ATOM     15  O   UNL     1      43.134   5.388  10.229  0.00  0.00    +0.000 OA
ATOM     16  H   UNL     1      43.475   6.114   9.682  0.00  0.00    +0.000 HD
ENDBRANCH   8  15
ENDBRANCH   5   8
ENDBRANCH   1   2
BRANCH   1  19
ATOM     17  O   UNL     1      50.299   7.454  14.629  0.00  0.00    +0.000 OA
ATOM     18  C   UNL     1      49.369   7.372  15.427  0.00  0.00    +0.000 C 
ATOM     19  N   UNL     1      48.076   7.663  15.083  0.00  0.00    +0.000 N 
ATOM     20  H   UNL     1      47.380   7.761  15.816  0.00  0.00    +0.000 HD
BRANCH  18  21
ATOM     21  C   UNL     1      49.577   6.906  16.801  0.00  0.00    +0.000 A 
ATOM     22  C   UNL     1      50.277   7.697  17.702  0.00  0.00    +0.000 A 
ATOM     23  S   UNL     1      50.428   6.997  19.250  0.00  0.00    +0.000 S 
ATOM     24  C   UNL     1      49.520   5.635  18.783  0.00  0.00    +0.000 A 
ATOM     25  N   UNL     1      49.240   4.645  19.670  0.00  0.00    +0.000 NA
ATOM     26  C   UNL     1      48.500   3.694  19.197  0.00  0.00    +0.000 A 
ATOM     27  N   UNL     1      48.036   3.638  17.908  0.00  0.00    +0.000 N 
ATOM     28  C   UNL     1      48.367   4.570  16.958  0.00  0.00    +0.000 A 
ATOM     29  O   UNL     1      48.063   4.408  15.780  0.00  0.00    +0.000 OA
ATOM     30  C   UNL     1      49.142   5.689  17.456  0.00  0.00    +0.000 A 
ATOM     31  H   UNL     1      47.495   2.846  17.590  0.00  0.00    +0.000 HD
ENDBRANCH  18  21
ENDBRANCH   1  19
TORSDOF 6
ENDMDL
MODEL 6
REMARK VINA RESULT:    -7.517      3.150      4.892
REMARK INTER + INTRA:         -10.802
REMARK INTER:                  -9.674
REMARK INTRA:                  -1.128
REMARK UNBOUND:                -0.869
REMARK  Name = 
REMARK  6 active torsions:
REMARK  status: ('A' for Active; 'I' for Inactive)
REMARK    1  A    between atoms: C_2  and  C_19
REMARK    2  A    between atoms: N_3  and  C_4
REMARK    3  A    between atoms: C_4  and  C_5
REMARK    4  A    between atoms: C_8  and  C_9
REMARK    5  A    between atoms: C_9  and  O_10
REMARK    6  A    between atoms: C_9  and  C_11
REMARK                            x       y       z     vdW  Elec       q    Type
REMARK                         _______ _______ _______ _____ _____    ______ ____
ROOT
ATOM      1  C   UNL     1      46.922   5.141  14.459  0.00  0.00    +0.000 C 
ENDROOT
BRANCH   1   2
ATOM      2  C   UNL     1      46.269   4.710  13.169  0.00  0.00    +0.000 A 
ATOM      3  C   UNL     1      46.075   5.634  12.140  0.00  0.00    +0.000 A 
ATOM      4  C   UNL     1      45.496   5.238  10.932  0.00  0.00    +0.000 A 
ATOM      5  C   UNL     1      45.083   3.911  10.736  0.00  0.00    +0.000 A 
ATOM      6  C   UNL     1      45.231   3.000  11.793  0.00  0.00    +0.000 A 
ATOM      7  C   UNL     1      45.815   3.396  12.998  0.00  0.00    +0.000 A 
BRANCH   5   8
ATOM      8  C   UNL     1      44.506   3.487   9.396  0.00  0.00    +0.000 C 
BRANCH   8   9
ATOM      9  C   UNL     1      45.484   2.918   8.393  0.00  0.00    +0.000 A 
ATOM     10  C   UNL     1      45.893   3.660   7.274  0.00  0.00    +0.000 A 
ATOM     11  C   UNL     1      46.710   3.082   6.307  0.00  0.00    +0.000 A 
ATOM     12  C   UNL     1      47.097   1.768   6.483  0.00  0.00    +0.000 A 
ATOM     13  N   UNL     1      46.738   1.015   7.544  0.00  0.00    +0.000 NA
ATOM     14  C   UNL     1      45.937   1.603   8.466  0.00  0.00    +0.000 A 
ENDBRANCH   8   9
BRANCH   8  15
ATOM     15  O   UNL     1      43.806   4.588   8.803  0.00  0.00    +0.000 OA
ATOM     16  H   UNL     1      43.985   5.380   9.335  0.00  0.00    +0.000 HD
ENDBRANCH   8  15
ENDBRANCH   5   8
ENDBRANCH   1   2
BRANCH   1  19
ATOM     17  O   UNL     1      49.288   6.232  15.534  0.00  0.00    +0.000 OA
ATOM     18  C   UNL     1      48.528   6.959  14.899  0.00  0.00    +0.000 C 
ATOM     19  N   UNL     1      47.331   6.517  14.402  0.00  0.00    +0.000 N 
ATOM     20  H   UNL     1      46.831   7.095  13.732  0.00  0.00    +0.000 HD
BRANCH  18  21
ATOM     21  C   UNL     1      48.833   8.374  14.671  0.00  0.00    +0.000 A 
ATOM     22  C   UNL     1      48.936   9.243  15.749  0.00  0.00    +0.000 A 
ATOM     23  S   UNL     1      49.291  10.849  15.300  0.00  0.00    +0.000 S 
ATOM     24  C   UNL     1      49.367  10.429  13.652  0.00  0.00    +0.000 A 
ATOM     25  N   UNL     1      49.674  11.358  12.708  0.00  0.00    +0.000 NA
ATOM     26  C   UNL     1      49.747  10.893  11.502  0.00  0.00    +0.000 A 
ATOM     27  N   UNL     1      49.516   9.586  11.157  0.00  0.00    +0.000 N 
ATOM     28  C   UNL     1      49.118   8.637  12.064  0.00  0.00    +0.000 A 
ATOM     29  O   UNL     1      48.771   7.518  11.698  0.00  0.00    +0.000 OA
ATOM     30  C   UNL     1      49.085   9.094  13.439  0.00  0.00    +0.000 A 
ATOM     31  H   UNL     1      49.549   9.295  10.190  0.00  0.00    +0.000 HD
ENDBRANCH  18  21
ENDBRANCH   1  19
TORSDOF 6
ENDMDL
MODEL 7
REMARK VINA RESULT:    -7.445      4.465      6.866
REMARK INTER + INTRA:         -10.707
REMARK INTER:                  -9.724
REMARK INTRA:                  -0.983
REMARK UNBOUND:                -0.869
REMARK  Name = 
REMARK  6 active torsions:
REMARK  status: ('A' for Active; 'I' for Inactive)
REMARK    1  A    between atoms: C_2  and  C_19
REMARK    2  A    between atoms: N_3  and  C_4
REMARK    3  A    between atoms: C_4  and  C_5
REMARK    4  A    between atoms: C_8  and  C_9
REMARK    5  A    between atoms: C_9  and  O_10
REMARK    6  A    between atoms: C_9  and  C_11
REMARK                            x       y       z     vdW  Elec       q    Type
REMARK                         _______ _______ _______ _____ _____    ______ ____
ROOT
ATOM      1  C   UNL     1      48.207   7.420  14.213  0.00  0.00    +0.000 C 
ENDROOT
BRANCH   1   2
ATOM      2  C   UNL     1      47.260   6.683  13.297  0.00  0.00    +0.000 A 
ATOM      3  C   UNL     1      46.864   5.379  13.602  0.00  0.00    +0.000 A 
ATOM      4  C   UNL     1      45.967   4.700  12.775  0.00  0.00    +0.000 A 
ATOM      5  C   UNL     1      45.460   5.307  11.615  0.00  0.00    +0.000 A 
ATOM      6  C   UNL     1      45.904   6.597  11.286  0.00  0.00    +0.000 A 
ATOM      7  C   UNL     1      46.797   7.277  12.117  0.00  0.00    +0.000 A 
BRANCH   5   8
ATOM      8  C   UNL     1      44.443   4.573  10.758  0.00  0.00    +0.000 C 
BRANCH   8   9
ATOM      9  C   UNL     1      44.988   3.829   9.559  0.00  0.00    +0.000 A 
ATOM     10  C   UNL     1      45.145   2.436   9.577  0.00  0.00    +0.000 A 
ATOM     11  C   UNL     1      45.745   1.781   8.506  0.00  0.00    +0.000 A 
ATOM     12  C   UNL     1      46.180   2.542   7.438  0.00  0.00    +0.000 A 
ATOM     13  N   UNL     1      46.045   3.884   7.369  0.00  0.00    +0.000 NA
ATOM     14  C   UNL     1      45.462   4.494   8.430  0.00  0.00    +0.000 A 
ENDBRANCH   8   9
BRANCH   8  15
ATOM     15  O   UNL     1      43.427   5.487  10.327  0.00  0.00    +0.000 OA
ATOM     16  H   UNL     1      43.640   5.771   9.424  0.00  0.00    +0.000 HD
ENDBRANCH   8  15
ENDBRANCH   5   8
ENDBRANCH   1   2
BRANCH   1  19
ATOM     17  O   UNL     1      50.185   6.236  15.834  0.00  0.00    +0.000 OA
ATOM     18  C   UNL     1      49.082   6.477  16.317  0.00  0.00    +0.000 C 
ATOM     19  N   UNL     1      48.052   6.991  15.576  0.00  0.00    +0.000 N 
ATOM     20  H   UNL     1      47.228   7.345  16.055  0.00  0.00    +0.000 HD
BRANCH  18  21
ATOM     21  C   UNL     1      48.778   6.182  17.720  0.00  0.00    +0.000 A 
ATOM     22  C   UNL     1      49.036   4.918  18.233  0.00  0.00    +0.000 A 
ATOM     23  S   UNL     1      48.617   4.751  19.878  0.00  0.00    +0.000 S 
ATOM     24  C   UNL     1      48.122   6.377  19.973  0.00  0.00    +0.000 A 
ATOM     25  N   UNL     1      47.677   6.904  21.145  0.00  0.00    +0.000 NA
ATOM     26  C   UNL     1      47.382   8.163  21.088  0.00  0.00    +0.000 A 
ATOM     27  N   UNL     1      47.470   8.932  19.957  0.00  0.00    +0.000 N 
ATOM     28  C   UNL     1      47.830   8.421  18.736  0.00  0.00    +0.000 A 
ATOM     29  O   UNL     1      47.751   9.100  17.717  0.00  0.00    +0.000 OA
ATOM     30  C   UNL     1      48.233   7.029  18.761  0.00  0.00    +0.000 A 
ATOM     31  H   UNL     1      47.185   9.902  19.970  0.00  0.00    +0.000 HD
ENDBRANCH  18  21
ENDBRANCH   1  19
TORSDOF 6
ENDMDL
MODEL 8
REMARK VINA RESULT:    -7.206      3.522      5.607
REMARK INTER + INTRA:         -10.392
REMARK INTER:                  -9.483
REMARK INTRA:                  -0.909
REMARK UNBOUND:                -0.869
REMARK  Name = 
REMARK  6 active torsions:
REMARK  status: ('A' for Active; 'I' for Inactive)
REMARK    1  A    between atoms: C_2  and  C_19
REMARK    2  A    between atoms: N_3  and  C_4
REMARK    3  A    between atoms: C_4  and  C_5
REMARK    4  A    between atoms: C_8  and  C_9
REMARK    5  A    between atoms: C_9  and  O_10
REMARK    6  A    between atoms: C_9  and  C_11
REMARK                            x       y       z     vdW  Elec       q    Type
REMARK                         _______ _______ _______ _____ _____    ______ ____
ROOT
ATOM      1  C   UNL     1      47.308   5.381  14.596  0.00  0.00    +0.000 C 
ENDROOT
BRANCH   1   2
ATOM      2  C   UNL     1      46.529   4.929  13.385  0.00  0.00    +0.000 A 
ATOM      3  C   UNL     1      46.233   5.836  12.365  0.00  0.00    +0.000 A 
ATOM      4  C   UNL     1      45.536   5.421  11.228  0.00  0.00    +0.000 A 
ATOM      5  C   UNL     1      45.106   4.090  11.096  0.00  0.00    +0.000 A 
ATOM      6  C   UNL     1      45.359   3.198  12.149  0.00  0.00    +0.000 A 
ATOM      7  C   UNL     1      46.062   3.613  13.283  0.00  0.00    +0.000 A 
BRANCH   5   8
ATOM      8  C   UNL     1      44.398   3.645   9.828  0.00  0.00    +0.000 C 
BRANCH   8   9
ATOM      9  C   UNL     1      45.273   3.070   8.737  0.00  0.00    +0.000 A 
ATOM     10  C   UNL     1      45.603   1.707   8.713  0.00  0.00    +0.000 A 
ATOM     11  C   UNL     1      46.494   1.216   7.763  0.00  0.00    +0.000 A 
ATOM     12  C   UNL     1      47.038   2.108   6.858  0.00  0.00    +0.000 A 
ATOM     13  N   UNL     1      46.746   3.425   6.835  0.00  0.00    +0.000 NA
ATOM     14  C   UNL     1      45.880   3.875   7.776  0.00  0.00    +0.000 A 
ENDBRANCH   8   9
BRANCH   8  15
ATOM     15  O   UNL     1      43.631   4.733   9.298  0.00  0.00    +0.000 OA
ATOM     16  H   UNL     1      43.951   4.917   8.400  0.00  0.00    +0.000 HD
ENDBRANCH   8  15
ENDBRANCH   5   8
ENDBRANCH   1   2
BRANCH   1  19
ATOM     17  O   UNL     1      49.764   6.414  15.515  0.00  0.00    +0.000 OA
ATOM     18  C   UNL     1      49.016   7.139  14.863  0.00  0.00    +0.000 C 
ATOM     19  N   UNL     1      47.781   6.729  14.438  0.00  0.00    +0.000 N 
ATOM     20  H   UNL     1      47.285   7.289  13.751  0.00  0.00    +0.000 HD
BRANCH  18  21
ATOM     21  C   UNL     1      49.381   8.520  14.536  0.00  0.00    +0.000 A 
ATOM     22  C   UNL     1      50.041   8.799  13.347  0.00  0.00    +0.000 A 
ATOM     23  S   UNL     1      50.391  10.455  13.133  0.00  0.00    +0.000 S 
ATOM     24  C   UNL     1      49.629  10.861  14.601  0.00  0.00    +0.000 A 
ATOM     25  N   UNL     1      49.541  12.155  15.007  0.00  0.00    +0.000 NA
ATOM     26  C   UNL     1      48.893  12.327  16.114  0.00  0.00    +0.000 A 
ATOM     27  N   UNL     1      48.347  11.315  16.861  0.00  0.00    +0.000 N 
ATOM     28  C   UNL     1      48.489   9.990  16.533  0.00  0.00    +0.000 A 
ATOM     29  O   UNL     1      48.122   9.105  17.301  0.00  0.00    +0.000 OA
ATOM     30  C   UNL     1      49.151   9.750  15.266  0.00  0.00    +0.000 A 
ATOM     31  H   UNL     1      47.888  11.512  17.738  0.00  0.00    +0.000 HD
ENDBRANCH  18  21
ENDBRANCH   1  19
TORSDOF 6
ENDMDL
MODEL 9
REMARK VINA RESULT:    -7.155      5.783     10.055
REMARK INTER + INTRA:         -10.324
REMARK INTER:                  -9.241
REMARK INTRA:                  -1.083
REMARK UNBOUND:                -0.869
REMARK  Name = 
REMARK  6 active torsions:
REMARK  status: ('A' for Active; 'I' for Inactive)
REMARK    1  A    between atoms: C_2  and  C_19
REMARK    2  A    between atoms: N_3  and  C_4
REMARK    3  A    between atoms: C_4  and  C_5
REMARK    4  A    between atoms: C_8  and  C_9
REMARK    5  A    between atoms: C_9  and  O_10
REMARK    6  A    between atoms: C_9  and  C_11
REMARK                            x       y       z     vdW  Elec       q    Type
REMARK                         _______ _______ _______ _____ _____    ______ ____
ROOT
ATOM      1  C   UNL     1      48.428   7.724  14.203  0.00  0.00    +0.000 C 
ENDROOT
BRANCH   1   2
ATOM      2  C   UNL     1      48.944   6.833  15.306  0.00  0.00    +0.000 A 
ATOM      3  C   UNL     1      50.254   6.979  15.769  0.00  0.00    +0.000 A 
ATOM      4  C   UNL     1      50.732   6.177  16.808  0.00  0.00    +0.000 A 
ATOM      5  C   UNL     1      49.911   5.200  17.395  0.00  0.00    +0.000 A 
ATOM      6  C   UNL     1      48.614   5.022  16.890  0.00  0.00    +0.000 A 
ATOM      7  C   UNL     1      48.136   5.829  15.854  0.00  0.00    +0.000 A 
BRANCH   5   8
ATOM      8  C   UNL     1      50.431   4.376  18.560  0.00  0.00    +0.000 C 
BRANCH   8   9
ATOM      9  C   UNL     1      51.275   3.172  18.208  0.00  0.00    +0.000 A 
ATOM     10  C   UNL     1      52.650   3.143  18.481  0.00  0.00    +0.000 A 
ATOM     11  C   UNL     1      53.430   2.072  18.055  0.00  0.00    +0.000 A 
ATOM     12  C   UNL     1      52.811   1.052  17.358  0.00  0.00    +0.000 A 
ATOM     13  N   UNL     1      51.490   1.030  17.077  0.00  0.00    +0.000 NA
ATOM     14  C   UNL     1      50.758   2.089  17.500  0.00  0.00    +0.000 A 
ENDBRANCH   8   9
BRANCH   8  15
ATOM     15  O   UNL     1      49.333   3.961  19.383  0.00  0.00    +0.000 OA
ATOM     16  H   UNL     1      48.786   3.346  18.868  0.00  0.00    +0.000 HD
ENDBRANCH   8  15
ENDBRANCH   5   8
ENDBRANCH   1   2
BRANCH   1  19
ATOM     17  O   UNL     1      47.766   7.202  11.514  0.00  0.00    +0.000 OA
ATOM     18  C   UNL     1      46.936   6.974  12.390  0.00  0.00    +0.000 C 
ATOM     19  N   UNL     1      47.161   7.261  13.709  0.00  0.00    +0.000 N 
ATOM     20  H   UNL     1      46.528   6.887  14.411  0.00  0.00    +0.000 HD
BRANCH  18  21
ATOM     21  C   UNL     1      45.618   6.419  12.070  0.00  0.00    +0.000 A 
ATOM     22  C   UNL     1      44.646   7.229  11.498  0.00  0.00    +0.000 A 
ATOM     23  S   UNL     1      43.174   6.421  11.199  0.00  0.00    +0.000 S 
ATOM     24  C   UNL     1      43.802   4.948  11.779  0.00  0.00    +0.000 A 
ATOM     25  N   UNL     1      43.050   3.815  11.767  0.00  0.00    +0.000 NA
ATOM     26  C   UNL     1      43.666   2.759  12.189  0.00  0.00    +0.000 A 
ATOM     27  N   UNL     1      44.959   2.742  12.644  0.00  0.00    +0.000 N 
ATOM     28  C   UNL     1      45.722   3.877  12.756  0.00  0.00    +0.000 A 
ATOM     29  O   UNL     1      46.818   3.851  13.309  0.00  0.00    +0.000 OA
ATOM     30  C   UNL     1      45.099   5.077  12.234  0.00  0.00    +0.000 A 
ATOM     31  H   UNL     1      45.370   1.890  12.999  0.00  0.00    +0.000 HD
ENDBRANCH  18  21
ENDBRANCH   1  19
TORSDOF 6
ENDMDL
