MODEL 1
REMARK VINA RESULT:    -8.446      0.000      0.000
REMARK INTER + INTRA:         -12.708
REMARK INTER:                 -11.409
REMARK INTRA:                  -1.300
REMARK UNBOUND:                -1.300
REMARK  Name = 
REMARK  6 active torsions:
REMARK  status: ('A' for Active; 'I' for Inactive)
REMARK    1  A    between atoms: C_2  and  C_19
REMARK    2  A    between atoms: N_3  and  C_4
REMARK    3  A    between atoms: C_4  and  C_5
REMARK    4  A    between atoms: C_8  and  C_9
REMARK    5  A    between atoms: C_9  and  C_10
REMARK    6  A    between atoms: C_10  and  C_11
REMARK                            x       y       z     vdW  Elec       q    Type
REMARK                         _______ _______ _______ _____ _____    ______ ____
ROOT
ATOM      1  O   UNL     1      49.494   6.951  13.987  0.00  0.00    +0.000 OA
ATOM      2  C   UNL     1      48.546   6.696  14.725  0.00  0.00    +0.000 C 
ATOM      3  N   UNL     1      47.245   6.821  14.309  0.00  0.00    +0.000 N 
ATOM      4  H   UNL     1      46.496   6.809  14.994  0.00  0.00    +0.000 HD
ENDROOT
BRANCH   2   5
ATOM      5  C   UNL     1      48.756   6.200  16.089  0.00  0.00    +0.000 A 
ATOM      6  C   UNL     1      49.401   6.998  17.026  0.00  0.00    +0.000 A 
ATOM      7  S   UNL     1      49.569   6.255  18.554  0.00  0.00    +0.000 S 
ATOM      8  C   UNL     1      48.747   4.864  18.024  0.00  0.00    +0.000 A 
ATOM      9  N   UNL     1      48.507   3.815  18.849  0.00  0.00    +0.000 NA
ATOM     10  N   UNL     1      47.869   2.822  18.417  0.00  0.00    +0.000 NA
ATOM     11  N   UNL     1      47.445   2.818  17.118  0.00  0.00    +0.000 N 
ATOM     12  C   UNL     1      47.655   3.811  16.194  0.00  0.00    +0.000 A 
ATOM     13  O   UNL     1      47.264   3.716  15.035  0.00  0.00    +0.000 OA
ATOM     14  C   UNL     1      48.375   4.955  16.702  0.00  0.00    +0.000 A 
ATOM     15  H   UNL     1      46.943   1.991  16.820  0.00  0.00    +0.000 HD
ENDBRANCH   2   5
BRANCH   3  16
ATOM     16  C   UNL     1      46.940   7.400  13.026  0.00  0.00    +0.000 C 
BRANCH  16  17
ATOM     17  C   UNL     1      46.236   6.422  12.127  0.00  0.00    +0.000 A 
ATOM     18  C   UNL     1      46.443   6.463  10.745  0.00  0.00    +0.000 A 
ATOM     19  C   UNL     1      45.822   5.538   9.902  0.00  0.00    +0.000 A 
ATOM     20  C   UNL     1      44.985   4.537  10.416  0.00  0.00    +0.000 A 
ATOM     21  C   UNL     1      44.730   4.539  11.795  0.00  0.00    +0.000 A 
ATOM     22  C   UNL     1      45.346   5.472  12.641  0.00  0.00    +0.000 A 
BRANCH  20  23
ATOM     23  C   UNL     1      44.312   3.507   9.528  0.00  0.00    +0.000 C 
BRANCH  23  24
ATOM     24  C   UNL     1      45.123   2.219   9.324  0.00  0.00    +0.000 C 
BRANCH  24  25
ATOM     25  C   UNL     1      45.959   2.209   8.066  0.00  0.00    +0.000 A 
ATOM     26  C   UNL     1      46.758   1.098   7.761  0.00  0.00    +0.000 A 
ATOM     27  C   UNL     1      47.460   1.040   6.556  0.00  0.00    +0.000 A 
ATOM     28  C   UNL     1      47.379   2.095   5.650  0.00  0.00    +0.000 A 
ATOM     29  C   UNL     1      46.610   3.216   5.957  0.00  0.00    +0.000 A 
ATOM     30  C   UNL     1      45.906   3.277   7.161  0.00  0.00    +0.000 A 
ENDBRANCH  24  25
ENDBRANCH  23  24
ENDBRANCH  20  23
ENDBRANCH  16  17
ENDBRANCH   3  16
TORSDOF 6
ENDMDL
MODEL 2
REMARK VINA RESULT:    -8.191      1.750      2.381
REMARK INTER + INTRA:         -12.364
REMARK INTER:                 -11.290
REMARK INTRA:                  -1.074
REMARK UNBOUND:                -1.300
REMARK  Name = 
REMARK  6 active torsions:
REMARK  status: ('A' for Active; 'I' for Inactive)
REMARK    1  A    between atoms: C_2  and  C_19
REMARK    2  A    between atoms: N_3  and  C_4
REMARK    3  A    between atoms: C_4  and  C_5
REMARK    4  A    between atoms: C_8  and  C_9
REMARK    5  A    between atoms: C_9  and  C_10
REMARK    6  A    between atoms: C_10  and  C_11
REMARK                            x       y       z     vdW  Elec       q    Type
REMARK                         _______ _______ _______ _____ _____    ______ ____
ROOT
ATOM      1  O   UNL     1      50.095   5.832  16.186  0.00  0.00    +0.000 OA
ATOM      2  C   UNL     1      49.000   6.320  16.453  0.00  0.00    +0.000 C 
ATOM      3  N   UNL     1      48.075   6.610  15.482  0.00  0.00    +0.000 N 
ATOM      4  H   UNL     1      47.279   7.198  15.707  0.00  0.00    +0.000 HD
ENDROOT
BRANCH   2   5
ATOM      5  C   UNL     1      48.603   6.583  17.840  0.00  0.00    +0.000 A 
ATOM      6  C   UNL     1      48.174   7.852  18.210  0.00  0.00    +0.000 A 
ATOM      7  S   UNL     1      47.764   7.978  19.863  0.00  0.00    +0.000 S 
ATOM      8  C   UNL     1      48.104   6.333  20.124  0.00  0.00    +0.000 A 
ATOM      9  N   UNL     1      47.939   5.750  21.338  0.00  0.00    +0.000 NA
ATOM     10  N   UNL     1      48.177   4.523  21.472  0.00  0.00    +0.000 NA
ATOM     11  N   UNL     1      48.610   3.807  20.391  0.00  0.00    +0.000 N 
ATOM     12  C   UNL     1      48.834   4.301  19.130  0.00  0.00    +0.000 A 
ATOM     13  O   UNL     1      49.253   3.593  18.220  0.00  0.00    +0.000 OA
ATOM     14  C   UNL     1      48.544   5.707  18.980  0.00  0.00    +0.000 A 
ATOM     15  H   UNL     1      48.794   2.826  20.557  0.00  0.00    +0.000 HD
ENDBRANCH   2   5
BRANCH   3  16
ATOM     16  C   UNL     1      48.415   6.484  14.088  0.00  0.00    +0.000 C 
BRANCH  16  17
ATOM     17  C   UNL     1      47.331   5.790  13.311  0.00  0.00    +0.000 A 
ATOM     18  C   UNL     1      46.793   6.389  12.168  0.00  0.00    +0.000 A 
ATOM     19  C   UNL     1      45.810   5.740  11.417  0.00  0.00    +0.000 A 
ATOM     20  C   UNL     1      45.343   4.468  11.780  0.00  0.00    +0.000 A 
ATOM     21  C   UNL     1      45.839   3.900  12.962  0.00  0.00    +0.000 A 
ATOM     22  C   UNL     1      46.820   4.553  13.721  0.00  0.00    +0.000 A 
BRANCH  20  23
ATOM     23  C   UNL     1      44.289   3.730  10.974  0.00  0.00    +0.000 C 
BRANCH  23  24
ATOM     24  C   UNL     1      44.257   4.099   9.484  0.00  0.00    +0.000 C 
BRANCH  24  25
ATOM     25  C   UNL     1      45.231   3.318   8.634  0.00  0.00    +0.000 A 
ATOM     26  C   UNL     1      46.042   3.983   7.703  0.00  0.00    +0.000 A 
ATOM     27  C   UNL     1      47.010   3.284   6.980  0.00  0.00    +0.000 A 
ATOM     28  C   UNL     1      47.170   1.913   7.173  0.00  0.00    +0.000 A 
ATOM     29  C   UNL     1      46.350   1.239   8.076  0.00  0.00    +0.000 A 
ATOM     30  C   UNL     1      45.381   1.936   8.801  0.00  0.00    +0.000 A 
ENDBRANCH  24  25
ENDBRANCH  23  24
ENDBRANCH  20  23
ENDBRANCH  16  17
ENDBRANCH   3  16
TORSDOF 6
ENDMDL
MODEL 3
REMARK VINA RESULT:    -7.648      2.501      3.338
REMARK INTER + INTRA:         -11.631
REMARK INTER:                 -10.304
REMARK INTRA:                  -1.327
REMARK UNBOUND:                -1.300
REMARK  Name = 
REMARK  6 active torsions:
REMARK  status: ('A' for Active; 'I' for Inactive)
REMARK    1  A    between atoms: C_2  and  C_19
REMARK    2  A    between atoms: N_3  and  C_4
REMARK    3  A    between atoms: C_4  and  C_5
REMARK    4  A    between atoms: C_8  and  C_9
REMARK    5  A    between atoms: C_9  and  C_10
REMARK    6  A    between atoms: C_10  and  C_11
REMARK                            x       y       z     vdW  Elec       q    Type
REMARK                         _______ _______ _______ _____ _____    ______ ____
ROOT
ATOM      1  O   UNL     1      49.680   5.323  16.321  0.00  0.00    +0.000 OA
ATOM      2  C   UNL     1      48.703   6.043  16.511  0.00  0.00    +0.000 C 
ATOM      3  N   UNL     1      47.944   6.530  15.477  0.00  0.00    +0.000 N 
ATOM      4  H   UNL     1      47.284   7.281  15.650  0.00  0.00    +0.000 HD
ENDROOT
BRANCH   2   5
ATOM      5  C   UNL     1      48.267   6.390  17.867  0.00  0.00    +0.000 A 
ATOM      6  C   UNL     1      48.071   5.388  18.811  0.00  0.00    +0.000 A 
ATOM      7  S   UNL     1      47.553   5.974  20.329  0.00  0.00    +0.000 S 
ATOM      8  C   UNL     1      47.617   7.584  19.786  0.00  0.00    +0.000 A 
ATOM      9  N   UNL     1      47.319   8.628  20.600  0.00  0.00    +0.000 NA
ATOM     10  N   UNL     1      47.410   9.801  20.158  0.00  0.00    +0.000 NA
ATOM     11  N   UNL     1      47.794   9.996  18.861  0.00  0.00    +0.000 N 
ATOM     12  C   UNL     1      48.093   9.015  17.949  0.00  0.00    +0.000 A 
ATOM     13  O   UNL     1      48.403   9.276  16.791  0.00  0.00    +0.000 OA
ATOM     14  C   UNL     1      48.001   7.671  18.468  0.00  0.00    +0.000 A 
ATOM     15  H   UNL     1      47.843  10.960  18.556  0.00  0.00    +0.000 HD
ENDBRANCH   2   5
BRANCH   3  16
ATOM     16  C   UNL     1      48.356   6.329  14.111  0.00  0.00    +0.000 C 
BRANCH  16  17
ATOM     17  C   UNL     1      47.272   5.684  13.292  0.00  0.00    +0.000 A 
ATOM     18  C   UNL     1      46.694   6.376  12.224  0.00  0.00    +0.000 A 
ATOM     19  C   UNL     1      45.711   5.776  11.433  0.00  0.00    +0.000 A 
ATOM     20  C   UNL     1      45.284   4.463  11.680  0.00  0.00    +0.000 A 
ATOM     21  C   UNL     1      45.821   3.796  12.791  0.00  0.00    +0.000 A 
ATOM     22  C   UNL     1      46.802   4.400  13.590  0.00  0.00    +0.000 A 
BRANCH  20  23
ATOM     23  C   UNL     1      44.232   3.778  10.827  0.00  0.00    +0.000 C 
BRANCH  23  24
ATOM     24  C   UNL     1      44.298   4.130   9.334  0.00  0.00    +0.000 C 
BRANCH  24  25
ATOM     25  C   UNL     1      45.282   3.299   8.547  0.00  0.00    +0.000 A 
ATOM     26  C   UNL     1      46.169   3.917   7.654  0.00  0.00    +0.000 A 
ATOM     27  C   UNL     1      47.145   3.169   6.993  0.00  0.00    +0.000 A 
ATOM     28  C   UNL     1      47.237   1.796   7.210  0.00  0.00    +0.000 A 
ATOM     29  C   UNL     1      46.342   1.168   8.075  0.00  0.00    +0.000 A 
ATOM     30  C   UNL     1      45.365   1.914   8.738  0.00  0.00    +0.000 A 
ENDBRANCH  24  25
ENDBRANCH  23  24
ENDBRANCH  20  23
ENDBRANCH  16  17
ENDBRANCH   3  16
TORSDOF 6
ENDMDL
MODEL 4
REMARK VINA RESULT:    -7.491      2.685      4.624
REMARK INTER + INTRA:         -11.419
REMARK INTER:                 -10.036
REMARK INTRA:                  -1.383
REMARK UNBOUND:                -1.300
REMARK  Name = 
REMARK  6 active torsions:
REMARK  status: ('A' for Active; 'I' for Inactive)
REMARK    1  A    between atoms: C_2  and  C_19
REMARK    2  A    between atoms: N_3  and  C_4
REMARK    3  A    between atoms: C_4  and  C_5
REMARK    4  A    between atoms: C_8  and  C_9
REMARK    5  A    between atoms: C_9  and  C_10
REMARK    6  A    between atoms: C_10  and  C_11
REMARK                            x       y       z     vdW  Elec       q    Type
REMARK                         _______ _______ _______ _____ _____    ______ ____
ROOT
ATOM      1  O   UNL     1      49.725   6.537  14.962  0.00  0.00    +0.000 OA
ATOM      2  C   UNL     1      48.803   7.274  14.622  0.00  0.00    +0.000 C 
ATOM      3  N   UNL     1      47.541   6.798  14.378  0.00  0.00    +0.000 N 
ATOM      4  H   UNL     1      46.865   7.387  13.901  0.00  0.00    +0.000 HD
ENDROOT
BRANCH   2   5
ATOM      5  C   UNL     1      48.996   8.723  14.497  0.00  0.00    +0.000 A 
ATOM      6  C   UNL     1      49.278   9.485  15.624  0.00  0.00    +0.000 A 
ATOM      7  S   UNL     1      49.458  11.151  15.292  0.00  0.00    +0.000 S 
ATOM      8  C   UNL     1      49.209  10.898  13.630  0.00  0.00    +0.000 A 
ATOM      9  N   UNL     1      49.258  11.916  12.735  0.00  0.00    +0.000 NA
ATOM     10  N   UNL     1      49.096  11.672  11.512  0.00  0.00    +0.000 NA
ATOM     11  N   UNL     1      48.861  10.386  11.115  0.00  0.00    +0.000 N 
ATOM     12  C   UNL     1      48.767   9.290  11.936  0.00  0.00    +0.000 A 
ATOM     13  O   UNL     1      48.524   8.169  11.500  0.00  0.00    +0.000 OA
ATOM     14  C   UNL     1      48.969   9.575  13.337  0.00  0.00    +0.000 A 
ATOM     15  H   UNL     1      48.730  10.248  10.122  0.00  0.00    +0.000 HD
ENDBRANCH   2   5
BRANCH   3  16
ATOM     16  C   UNL     1      47.283   5.381  14.373  0.00  0.00    +0.000 C 
BRANCH  16  17
ATOM     17  C   UNL     1      46.437   4.973  13.198  0.00  0.00    +0.000 A 
ATOM     18  C   UNL     1      45.992   5.935  12.286  0.00  0.00    +0.000 A 
ATOM     19  C   UNL     1      45.235   5.566  11.172  0.00  0.00    +0.000 A 
ATOM     20  C   UNL     1      44.909   4.223  10.929  0.00  0.00    +0.000 A 
ATOM     21  C   UNL     1      45.303   3.271  11.880  0.00  0.00    +0.000 A 
ATOM     22  C   UNL     1      46.057   3.641  13.003  0.00  0.00    +0.000 A 
BRANCH  20  23
ATOM     23  C   UNL     1      44.105   3.790   9.718  0.00  0.00    +0.000 C 
BRANCH  23  24
ATOM     24  C   UNL     1      44.446   2.384   9.200  0.00  0.00    +0.000 C 
BRANCH  24  25
ATOM     25  C   UNL     1      45.581   2.353   8.205  0.00  0.00    +0.000 A 
ATOM     26  C   UNL     1      45.897   3.500   7.461  0.00  0.00    +0.000 A 
ATOM     27  C   UNL     1      47.002   3.510   6.609  0.00  0.00    +0.000 A 
ATOM     28  C   UNL     1      47.795   2.371   6.482  0.00  0.00    +0.000 A 
ATOM     29  C   UNL     1      47.474   1.218   7.196  0.00  0.00    +0.000 A 
ATOM     30  C   UNL     1      46.369   1.205   8.050  0.00  0.00    +0.000 A 
ENDBRANCH  24  25
ENDBRANCH  23  24
ENDBRANCH  20  23
ENDBRANCH  16  17
ENDBRANCH   3  16
TORSDOF 6
ENDMDL
MODEL 5
REMARK VINA RESULT:    -7.226      2.031      2.748
REMARK INTER + INTRA:         -11.060
REMARK INTER:                 -10.019
REMARK INTRA:                  -1.040
REMARK UNBOUND:                -1.300
REMARK  Name = 
REMARK  6 active torsions:
REMARK  status: ('A' for Active; 'I' for Inactive)
REMARK    1  A    between atoms: C_2  and  C_19
REMARK    2  A    between atoms: N_3  and  C_4
REMARK    3  A    between atoms: C_4  and  C_5
REMARK    4  A    between atoms: C_8  and  C_9
REMARK    5  A    between atoms: C_9  and  C_10
REMARK    6  A    between atoms: C_10  and  C_11
REMARK                            x       y       z     vdW  Elec       q    Type
REMARK                         _______ _______ _______ _____ _____    ______ ____
ROOT
ATOM      1  O   UNL     1      47.010   4.099  17.699  0.00  0.00    +0.000 OA
ATOM      2  C   UNL     1      47.711   4.739  16.918  0.00  0.00    +0.000 C 
ATOM      3  N   UNL     1      47.390   4.871  15.591  0.00  0.00    +0.000 N 
ATOM      4  H   UNL     1      48.086   5.220  14.939  0.00  0.00    +0.000 HD
ENDROOT
BRANCH   2   5
ATOM      5  C   UNL     1      48.916   5.437  17.377  0.00  0.00    +0.000 A 
ATOM      6  C   UNL     1      48.853   6.786  17.709  0.00  0.00    +0.000 A 
ATOM      7  S   UNL     1      50.351   7.435  18.210  0.00  0.00    +0.000 S 
ATOM      8  C   UNL     1      51.118   5.927  18.042  0.00  0.00    +0.000 A 
ATOM      9  N   UNL     1      52.430   5.753  18.339  0.00  0.00    +0.000 NA
ATOM     10  N   UNL     1      52.942   4.610  18.226  0.00  0.00    +0.000 NA
ATOM     11  N   UNL     1      52.166   3.572  17.793  0.00  0.00    +0.000 N 
ATOM     12  C   UNL     1      50.841   3.643  17.443  0.00  0.00    +0.000 A 
ATOM     13  O   UNL     1      50.222   2.666  17.035  0.00  0.00    +0.000 OA
ATOM     14  C   UNL     1      50.255   4.955  17.590  0.00  0.00    +0.000 A 
ATOM     15  H   UNL     1      52.632   2.678  17.712  0.00  0.00    +0.000 HD
ENDBRANCH   2   5
BRANCH   3  16
ATOM     16  C   UNL     1      46.286   4.137  15.029  0.00  0.00    +0.000 C 
BRANCH  16  17
ATOM     17  C   UNL     1      46.072   4.476  13.580  0.00  0.00    +0.000 A 
ATOM     18  C   UNL     1      46.669   5.614  13.030  0.00  0.00    +0.000 A 
ATOM     19  C   UNL     1      46.507   5.923  11.677  0.00  0.00    +0.000 A 
ATOM     20  C   UNL     1      45.753   5.097  10.831  0.00  0.00    +0.000 A 
ATOM     21  C   UNL     1      45.104   3.992  11.401  0.00  0.00    +0.000 A 
ATOM     22  C   UNL     1      45.260   3.685  12.760  0.00  0.00    +0.000 A 
BRANCH  20  23
ATOM     23  C   UNL     1      45.574   5.395   9.354  0.00  0.00    +0.000 C 
BRANCH  23  24
ATOM     24  C   UNL     1      44.863   4.286   8.564  0.00  0.00    +0.000 C 
BRANCH  24  25
ATOM     25  C   UNL     1      45.797   3.264   7.960  0.00  0.00    +0.000 A 
ATOM     26  C   UNL     1      45.787   1.940   8.425  0.00  0.00    +0.000 A 
ATOM     27  C   UNL     1      46.577   0.968   7.810  0.00  0.00    +0.000 A 
ATOM     28  C   UNL     1      47.393   1.310   6.734  0.00  0.00    +0.000 A 
ATOM     29  C   UNL     1      47.430   2.629   6.283  0.00  0.00    +0.000 A 
ATOM     30  C   UNL     1      46.641   3.604   6.895  0.00  0.00    +0.000 A 
ENDBRANCH  24  25
ENDBRANCH  23  24
ENDBRANCH  20  23
ENDBRANCH  16  17
ENDBRANCH   3  16
TORSDOF 6
ENDMDL
MODEL 6
REMARK VINA RESULT:    -7.180      3.997      8.079
REMARK INTER + INTRA:         -10.998
REMARK INTER:                  -9.457
REMARK INTRA:                  -1.541
REMARK UNBOUND:                -1.300
REMARK  Name = 
REMARK  6 active torsions:
REMARK  status: ('A' for Active; 'I' for Inactive)
REMARK    1  A    between atoms: C_2  and  C_19
REMARK    2  A    between atoms: N_3  and  C_4
REMARK    3  A    between atoms: C_4  and  C_5
REMARK    4  A    between atoms: C_8  and  C_9
REMARK    5  A    between atoms: C_9  and  C_10
REMARK    6  A    between atoms: C_10  and  C_11
REMARK                            x       y       z     vdW  Elec       q    Type
REMARK                         _______ _______ _______ _____ _____    ______ ____
ROOT
ATOM      1  O   UNL     1      45.343   7.761  11.870  0.00  0.00    +0.000 OA
ATOM      2  C   UNL     1      46.066   6.879  11.415  0.00  0.00    +0.000 C 
ATOM      3  N   UNL     1      47.433   6.934  11.513  0.00  0.00    +0.000 N 
ATOM      4  H   UNL     1      48.002   6.309  10.951  0.00  0.00    +0.000 HD
ENDROOT
BRANCH   2   5
ATOM      5  C   UNL     1      45.500   5.689  10.771  0.00  0.00    +0.000 A 
ATOM      6  C   UNL     1      45.748   5.444   9.426  0.00  0.00    +0.000 A 
ATOM      7  S   UNL     1      45.000   4.023   8.843  0.00  0.00    +0.000 S 
ATOM      8  C   UNL     1      44.360   3.670  10.378  0.00  0.00    +0.000 A 
ATOM      9  N   UNL     1      43.621   2.556  10.608  0.00  0.00    +0.000 NA
ATOM     10  N   UNL     1      43.194   2.326  11.768  0.00  0.00    +0.000 NA
ATOM     11  N   UNL     1      43.476   3.214  12.769  0.00  0.00    +0.000 N 
ATOM     12  C   UNL     1      44.190   4.378  12.640  0.00  0.00    +0.000 A 
ATOM     13  O   UNL     1      44.373   5.137  13.587  0.00  0.00    +0.000 OA
ATOM     14  C   UNL     1      44.689   4.628  11.309  0.00  0.00    +0.000 A 
ATOM     15  H   UNL     1      43.102   2.983  13.680  0.00  0.00    +0.000 HD
ENDBRANCH   2   5
BRANCH   3  16
ATOM     16  C   UNL     1      48.081   8.110  12.034  0.00  0.00    +0.000 C 
BRANCH  16  17
ATOM     17  C   UNL     1      48.385   7.975  13.500  0.00  0.00    +0.000 A 
ATOM     18  C   UNL     1      49.252   6.974  13.948  0.00  0.00    +0.000 A 
ATOM     19  C   UNL     1      49.571   6.859  15.304  0.00  0.00    +0.000 A 
ATOM     20  C   UNL     1      49.040   7.748  16.250  0.00  0.00    +0.000 A 
ATOM     21  C   UNL     1      48.122   8.710  15.805  0.00  0.00    +0.000 A 
ATOM     22  C   UNL     1      47.796   8.822  14.446  0.00  0.00    +0.000 A 
BRANCH  20  23
ATOM     23  C   UNL     1      49.382   7.660  17.727  0.00  0.00    +0.000 C 
BRANCH  23  24
ATOM     24  C   UNL     1      48.439   6.764  18.543  0.00  0.00    +0.000 C 
BRANCH  24  25
ATOM     25  C   UNL     1      48.458   5.312  18.131  0.00  0.00    +0.000 A 
ATOM     26  C   UNL     1      47.284   4.695  17.674  0.00  0.00    +0.000 A 
ATOM     27  C   UNL     1      47.311   3.382  17.202  0.00  0.00    +0.000 A 
ATOM     28  C   UNL     1      48.508   2.669  17.192  0.00  0.00    +0.000 A 
ATOM     29  C   UNL     1      49.675   3.264  17.669  0.00  0.00    +0.000 A 
ATOM     30  C   UNL     1      49.651   4.578  18.142  0.00  0.00    +0.000 A 
ENDBRANCH  24  25
ENDBRANCH  23  24
ENDBRANCH  20  23
ENDBRANCH  16  17
ENDBRANCH   3  16
TORSDOF 6
ENDMDL
MODEL 7
REMARK VINA RESULT:    -7.052      4.199      7.923
REMARK INTER + INTRA:         -10.825
REMARK INTER:                  -8.839
REMARK INTRA:                  -1.987
REMARK UNBOUND:                -1.300
REMARK  Name = 
REMARK  6 active torsions:
REMARK  status: ('A' for Active; 'I' for Inactive)
REMARK    1  A    between atoms: C_2  and  C_19
REMARK    2  A    between atoms: N_3  and  C_4
REMARK    3  A    between atoms: C_4  and  C_5
REMARK    4  A    between atoms: C_8  and  C_9
REMARK    5  A    between atoms: C_9  and  C_10
REMARK    6  A    between atoms: C_10  and  C_11
REMARK                            x       y       z     vdW  Elec       q    Type
REMARK                         _______ _______ _______ _____ _____    ______ ____
ROOT
ATOM      1  O   UNL     1      48.125   8.384  12.361  0.00  0.00    +0.000 OA
ATOM      2  C   UNL     1      47.211   8.031  13.102  0.00  0.00    +0.000 C 
ATOM      3  N   UNL     1      47.115   8.463  14.400  0.00  0.00    +0.000 N 
ATOM      4  H   UNL     1      46.480   7.995  15.039  0.00  0.00    +0.000 HD
ENDROOT
BRANCH   2   5
ATOM      5  C   UNL     1      46.140   7.152  12.620  0.00  0.00    +0.000 A 
ATOM      6  C   UNL     1      45.110   7.674  11.847  0.00  0.00    +0.000 A 
ATOM      7  S   UNL     1      43.947   6.511  11.386  0.00  0.00    +0.000 S 
ATOM      8  C   UNL     1      44.807   5.269  12.167  0.00  0.00    +0.000 A 
ATOM      9  N   UNL     1      44.383   3.981  12.147  0.00  0.00    +0.000 NA
ATOM     10  N   UNL     1      45.070   3.095  12.715  0.00  0.00    +0.000 NA
ATOM     11  N   UNL     1      46.225   3.454  13.352  0.00  0.00    +0.000 N 
ATOM     12  C   UNL     1      46.730   4.726  13.453  0.00  0.00    +0.000 A 
ATOM     13  O   UNL     1      47.762   4.968  14.071  0.00  0.00    +0.000 OA
ATOM     14  C   UNL     1      45.943   5.736  12.786  0.00  0.00    +0.000 A 
ATOM     15  H   UNL     1      46.734   2.703  13.798  0.00  0.00    +0.000 HD
ENDBRANCH   2   5
BRANCH   3  16
ATOM     16  C   UNL     1      48.174   9.241  14.991  0.00  0.00    +0.000 C 
BRANCH  16  17
ATOM     17  C   UNL     1      48.986   8.429  15.962  0.00  0.00    +0.000 A 
ATOM     18  C   UNL     1      48.801   8.590  17.338  0.00  0.00    +0.000 A 
ATOM     19  C   UNL     1      49.523   7.817  18.251  0.00  0.00    +0.000 A 
ATOM     20  C   UNL     1      50.444   6.852  17.815  0.00  0.00    +0.000 A 
ATOM     21  C   UNL     1      50.672   6.739  16.435  0.00  0.00    +0.000 A 
ATOM     22  C   UNL     1      49.953   7.519  15.519  0.00  0.00    +0.000 A 
BRANCH  20  23
ATOM     23  C   UNL     1      51.229   5.985  18.781  0.00  0.00    +0.000 C 
BRANCH  23  24
ATOM     24  C   UNL     1      50.401   4.887  19.465  0.00  0.00    +0.000 C 
BRANCH  24  25
ATOM     25  C   UNL     1      49.605   4.030  18.509  0.00  0.00    +0.000 A 
ATOM     26  C   UNL     1      48.225   4.236  18.361  0.00  0.00    +0.000 A 
ATOM     27  C   UNL     1      47.499   3.513  17.413  0.00  0.00    +0.000 A 
ATOM     28  C   UNL     1      48.141   2.572  16.613  0.00  0.00    +0.000 A 
ATOM     29  C   UNL     1      49.506   2.340  16.771  0.00  0.00    +0.000 A 
ATOM     30  C   UNL     1      50.236   3.062  17.718  0.00  0.00    +0.000 A 
ENDBRANCH  24  25
ENDBRANCH  23  24
ENDBRANCH  20  23
ENDBRANCH  16  17
ENDBRANCH   3  16
TORSDOF 6
ENDMDL
MODEL 8
REMARK VINA RESULT:    -6.921      3.665      4.394
REMARK INTER + INTRA:         -10.648
REMARK INTER:                  -9.799
REMARK INTRA:                  -0.849
REMARK UNBOUND:                -1.300
REMARK  Name = 
REMARK  6 active torsions:
REMARK  status: ('A' for Active; 'I' for Inactive)
REMARK    1  A    between atoms: C_2  and  C_19
REMARK    2  A    between atoms: N_3  and  C_4
REMARK    3  A    between atoms: C_4  and  C_5
REMARK    4  A    between atoms: C_8  and  C_9
REMARK    5  A    between atoms: C_9  and  C_10
REMARK    6  A    between atoms: C_10  and  C_11
REMARK                            x       y       z     vdW  Elec       q    Type
REMARK                         _______ _______ _______ _____ _____    ______ ____
ROOT
ATOM      1  O   UNL     1      44.693   8.750  11.558  0.00  0.00    +0.000 OA
ATOM      2  C   UNL     1      45.636   8.322  12.217  0.00  0.00    +0.000 C 
ATOM      3  N   UNL     1      45.593   7.104  12.846  0.00  0.00    +0.000 N 
ATOM      4  H   UNL     1      46.293   6.875  13.546  0.00  0.00    +0.000 HD
ENDROOT
BRANCH   2   5
ATOM      5  C   UNL     1      46.886   9.080  12.335  0.00  0.00    +0.000 A 
ATOM      6  C   UNL     1      46.857  10.469  12.345  0.00  0.00    +0.000 A 
ATOM      7  S   UNL     1      48.403  11.182  12.476  0.00  0.00    +0.000 S 
ATOM      8  C   UNL     1      49.153   9.659  12.567  0.00  0.00    +0.000 A 
ATOM      9  N   UNL     1      50.495   9.529  12.720  0.00  0.00    +0.000 NA
ATOM     10  N   UNL     1      50.997   8.380  12.811  0.00  0.00    +0.000 NA
ATOM     11  N   UNL     1      50.179   7.288  12.742  0.00  0.00    +0.000 N 
ATOM     12  C   UNL     1      48.818   7.307  12.565  0.00  0.00    +0.000 A 
ATOM     13  O   UNL     1      48.159   6.275  12.484  0.00  0.00    +0.000 OA
ATOM     14  C   UNL     1      48.246   8.629  12.475  0.00  0.00    +0.000 A 
ATOM     15  H   UNL     1      50.637   6.389  12.814  0.00  0.00    +0.000 HD
ENDBRANCH   2   5
BRANCH   3  16
ATOM     16  C   UNL     1      44.373   6.339  12.874  0.00  0.00    +0.000 C 
BRANCH  16  17
ATOM     17  C   UNL     1      44.369   5.259  11.827  0.00  0.00    +0.000 A 
ATOM     18  C   UNL     1      45.024   5.461  10.608  0.00  0.00    +0.000 A 
ATOM     19  C   UNL     1      45.058   4.455   9.640  0.00  0.00    +0.000 A 
ATOM     20  C   UNL     1      44.448   3.211   9.866  0.00  0.00    +0.000 A 
ATOM     21  C   UNL     1      43.739   3.036  11.063  0.00  0.00    +0.000 A 
ATOM     22  C   UNL     1      43.698   4.048  12.032  0.00  0.00    +0.000 A 
BRANCH  20  23
ATOM     23  C   UNL     1      44.484   2.092   8.842  0.00  0.00    +0.000 C 
BRANCH  23  24
ATOM     24  C   UNL     1      45.867   1.449   8.654  0.00  0.00    +0.000 C 
BRANCH  24  25
ATOM     25  C   UNL     1      46.479   1.690   7.296  0.00  0.00    +0.000 A 
ATOM     26  C   UNL     1      46.999   0.616   6.557  0.00  0.00    +0.000 A 
ATOM     27  C   UNL     1      47.482   0.815   5.263  0.00  0.00    +0.000 A 
ATOM     28  C   UNL     1      47.460   2.088   4.698  0.00  0.00    +0.000 A 
ATOM     29  C   UNL     1      46.970   3.166   5.433  0.00  0.00    +0.000 A 
ATOM     30  C   UNL     1      46.487   2.971   6.729  0.00  0.00    +0.000 A 
ENDBRANCH  24  25
ENDBRANCH  23  24
ENDBRANCH  20  23
ENDBRANCH  16  17
ENDBRANCH   3  16
TORSDOF 6
ENDMDL
MODEL 9
REMARK VINA RESULT:    -6.915      1.497      2.216
REMARK INTER + INTRA:         -10.640
REMARK INTER:                  -9.789
REMARK INTRA:                  -0.851
REMARK UNBOUND:                -1.300
REMARK  Name = 
REMARK  6 active torsions:
REMARK  status: ('A' for Active; 'I' for Inactive)
REMARK    1  A    between atoms: C_2  and  C_19
REMARK    2  A    between atoms: N_3  and  C_4
REMARK    3  A    between atoms: C_4  and  C_5
REMARK    4  A    between atoms: C_8  and  C_9
REMARK    5  A    between atoms: C_9  and  C_10
REMARK    6  A    between atoms: C_10  and  C_11
REMARK                            x       y       z     vdW  Elec       q    Type
REMARK                         _______ _______ _______ _____ _____    ______ ____
ROOT
ATOM      1  O   UNL     1      47.153   6.666  11.849  0.00  0.00    +0.000 OA
ATOM      2  C   UNL     1      46.768   6.627  13.015  0.00  0.00    +0.000 C 
ATOM      3  N   UNL     1      45.447   6.453  13.341  0.00  0.00    +0.000 N 
ATOM      4  H   UNL     1      45.136   6.635  14.290  0.00  0.00    +0.000 HD
ENDROOT
BRANCH   2   5
ATOM      5  C   UNL     1      47.714   6.724  14.132  0.00  0.00    +0.000 A 
ATOM      6  C   UNL     1      48.516   7.852  14.265  0.00  0.00    +0.000 A 
ATOM      7  S   UNL     1      49.563   7.787  15.613  0.00  0.00    +0.000 S 
ATOM      8  C   UNL     1      48.947   6.274  16.082  0.00  0.00    +0.000 A 
ATOM      9  N   UNL     1      49.387   5.635  17.195  0.00  0.00    +0.000 NA
ATOM     10  N   UNL     1      48.878   4.531  17.515  0.00  0.00    +0.000 NA
ATOM     11  N   UNL     1      47.901   3.993  16.725  0.00  0.00    +0.000 N 
ATOM     12  C   UNL     1      47.402   4.542  15.570  0.00  0.00    +0.000 A 
ATOM     13  O   UNL     1      46.542   3.978  14.901  0.00  0.00    +0.000 OA
ATOM     14  C   UNL     1      47.981   5.816  15.216  0.00  0.00    +0.000 A 
ATOM     15  H   UNL     1      47.533   3.100  17.025  0.00  0.00    +0.000 HD
ENDBRANCH   2   5
BRANCH   3  16
ATOM     16  C   UNL     1      44.435   6.453  12.316  0.00  0.00    +0.000 C 
BRANCH  16  17
ATOM     17  C   UNL     1      44.547   5.248  11.424  0.00  0.00    +0.000 A 
ATOM     18  C   UNL     1      44.381   3.965  11.953  0.00  0.00    +0.000 A 
ATOM     19  C   UNL     1      44.447   2.838  11.130  0.00  0.00    +0.000 A 
ATOM     20  C   UNL     1      44.671   2.961   9.750  0.00  0.00    +0.000 A 
ATOM     21  C   UNL     1      44.900   4.245   9.234  0.00  0.00    +0.000 A 
ATOM     22  C   UNL     1      44.841   5.376  10.061  0.00  0.00    +0.000 A 
BRANCH  20  23
ATOM     23  C   UNL     1      44.730   1.758   8.827  0.00  0.00    +0.000 C 
BRANCH  23  24
ATOM     24  C   UNL     1      46.150   1.251   8.537  0.00  0.00    +0.000 C 
BRANCH  24  25
ATOM     25  C   UNL     1      46.638   1.549   7.139  0.00  0.00    +0.000 A 
ATOM     26  C   UNL     1      47.061   0.505   6.303  0.00  0.00    +0.000 A 
ATOM     27  C   UNL     1      47.424   0.760   4.980  0.00  0.00    +0.000 A 
ATOM     28  C   UNL     1      47.379   2.060   4.483  0.00  0.00    +0.000 A 
ATOM     29  C   UNL     1      46.986   3.108   5.313  0.00  0.00    +0.000 A 
ATOM     30  C   UNL     1      46.622   2.857   6.638  0.00  0.00    +0.000 A 
ENDBRANCH  24  25
ENDBRANCH  23  24
ENDBRANCH  20  23
ENDBRANCH  16  17
ENDBRANCH   3  16
TORSDOF 6
ENDMDL
