MODEL 1
REMARK VINA RESULT:    -7.936      0.000      0.000
REMARK INTER + INTRA:         -12.361
REMARK INTER:                 -11.184
REMARK INTRA:                  -1.177
REMARK UNBOUND:                -1.177
REMARK  Name = 
REMARK  9 active torsions:
REMARK  status: ('A' for Active; 'I' for Inactive)
REMARK    1  A    between atoms: C_1  and  C_2
REMARK    2  A    between atoms: C_2  and  N_3
REMARK    3  A    between atoms: C_2  and  C_11
REMARK    4  A    between atoms: N_3  and  C_4
REMARK    5  A    between atoms: C_4  and  C_5
REMARK    6  A    between atoms: C_14  and  C_15
REMARK    7  A    between atoms: C_15  and  N_16
REMARK    8  A    between atoms: N_16  and  C_17
REMARK    9  A    between atoms: C_18  and  C_20
REMARK                            x       y       z     vdW  Elec       q    Type
REMARK                         _______ _______ _______ _____ _____    ______ ____
ROOT
ATOM      1  C   UNL     1      45.594   4.808  12.273  0.00  0.00    +0.000 A 
ATOM      2  C   UNL     1      46.079   5.950  11.621  0.00  0.00    +0.000 A 
ATOM      3  C   UNL     1      47.102   6.724  12.171  0.00  0.00    +0.000 A 
ATOM      4  C   UNL     1      47.698   6.374  13.387  0.00  0.00    +0.000 A 
ATOM      5  C   UNL     1      47.204   5.264  14.075  0.00  0.00    +0.000 A 
ATOM      6  C   UNL     1      46.145   4.517  13.538  0.00  0.00    +0.000 A 
ENDROOT
BRANCH   1   8
ATOM      7  C   UNL     1      43.570   4.713  10.710  0.00  0.00    +0.000 C 
ATOM      8  C   UNL     1      44.476   3.940  11.684  0.00  0.00    +0.000 C 
BRANCH   8   9
ATOM      9  N   UNL     1      44.946   2.756  10.933  0.00  0.00    +0.000 NA
ATOM     10  H   UNL     1      44.638   1.910  11.412  0.00  0.00    +0.000 HD
BRANCH   9  11
ATOM     11  C   UNL     1      44.473   2.707   9.547  0.00  0.00    +0.000 C 
BRANCH  11  12
ATOM     12  C   UNL     1      45.556   2.466   8.515  0.00  0.00    +0.000 A 
ATOM     13  C   UNL     1      45.963   3.469   7.639  0.00  0.00    +0.000 A 
ATOM     14  C   UNL     1      46.902   3.160   6.656  0.00  0.00    +0.000 A 
ATOM     15  C   UNL     1      47.408   1.868   6.574  0.00  0.00    +0.000 A 
ATOM     16  C   UNL     1      46.956   0.931   7.484  0.00  0.00    +0.000 A 
ATOM     17  N   UNL     1      46.050   1.201   8.446  0.00  0.00    +0.000 NA
ENDBRANCH  11  12
ENDBRANCH   9  11
ENDBRANCH   8   9
ENDBRANCH   1   8
BRANCH   4  18
ATOM     18  C   UNL     1      48.862   7.175  13.912  0.00  0.00    +0.000 C 
BRANCH  18  19
ATOM     19  N   UNL     1      48.783   7.606  15.308  0.00  0.00    +0.000 N 
ATOM     20  C   UNL     1      48.100   8.858  15.618  0.00  0.00    +0.000 C 
ATOM     21  C   UNL     1      49.620   6.915  16.204  0.00  0.00    +0.000 C 
ATOM     22  O   UNL     1      50.319   5.982  15.817  0.00  0.00    +0.000 OA
BRANCH  21  23
ATOM     23  C   UNL     1      49.616   7.270  17.630  0.00  0.00    +0.000 A 
ATOM     24  C   UNL     1      50.377   8.284  18.188  0.00  0.00    +0.000 A 
ATOM     25  S   UNL     1      50.118   8.489  19.862  0.00  0.00    +0.000 S 
ATOM     26  C   UNL     1      48.877   7.327  19.867  0.00  0.00    +0.000 A 
ATOM     27  N   UNL     1      48.151   7.085  20.993  0.00  0.00    +0.000 NA
ATOM     28  C   UNL     1      47.203   6.223  20.832  0.00  0.00    +0.000 A 
ATOM     29  N   UNL     1      46.933   5.562  19.659  0.00  0.00    +0.000 N 
ATOM     30  C   UNL     1      47.728   5.672  18.538  0.00  0.00    +0.000 A 
ATOM     31  O   UNL     1      47.604   4.886  17.604  0.00  0.00    +0.000 OA
ATOM     32  C   UNL     1      48.730   6.721  18.633  0.00  0.00    +0.000 A 
ATOM     33  H   UNL     1      46.222   4.847  19.622  0.00  0.00    +0.000 HD
ENDBRANCH  21  23
ENDBRANCH  18  19
ENDBRANCH   4  18
TORSDOF 7
ENDMDL
MODEL 2
REMARK VINA RESULT:    -7.507      0.869      1.397
REMARK INTER + INTRA:         -11.756
REMARK INTER:                 -10.684
REMARK INTRA:                  -1.072
REMARK UNBOUND:                -1.177
REMARK  Name = 
REMARK  9 active torsions:
REMARK  status: ('A' for Active; 'I' for Inactive)
REMARK    1  A    between atoms: C_1  and  C_2
REMARK    2  A    between atoms: C_2  and  N_3
REMARK    3  A    between atoms: C_2  and  C_11
REMARK    4  A    between atoms: N_3  and  C_4
REMARK    5  A    between atoms: C_4  and  C_5
REMARK    6  A    between atoms: C_14  and  C_15
REMARK    7  A    between atoms: C_15  and  N_16
REMARK    8  A    between atoms: N_16  and  C_17
REMARK    9  A    between atoms: C_18  and  C_20
REMARK                            x       y       z     vdW  Elec       q    Type
REMARK                         _______ _______ _______ _____ _____    ______ ____
ROOT
ATOM      1  C   UNL     1      45.736   5.482  11.944  0.00  0.00    +0.000 A 
ATOM      2  C   UNL     1      46.178   5.079  13.213  0.00  0.00    +0.000 A 
ATOM      3  C   UNL     1      47.310   5.642  13.802  0.00  0.00    +0.000 A 
ATOM      4  C   UNL     1      48.035   6.649  13.156  0.00  0.00    +0.000 A 
ATOM      5  C   UNL     1      47.639   7.037  11.875  0.00  0.00    +0.000 A 
ATOM      6  C   UNL     1      46.527   6.434  11.269  0.00  0.00    +0.000 A 
ENDROOT
BRANCH   1   8
ATOM      7  C   UNL     1      43.193   5.604  11.683  0.00  0.00    +0.000 C 
ATOM      8  C   UNL     1      44.491   4.881  11.280  0.00  0.00    +0.000 C 
BRANCH   8   9
ATOM      9  N   UNL     1      44.512   4.899   9.803  0.00  0.00    +0.000 NA
ATOM     10  H   UNL     1      45.422   5.231   9.483  0.00  0.00    +0.000 HD
BRANCH   9  11
ATOM     11  C   UNL     1      44.250   3.593   9.191  0.00  0.00    +0.000 C 
BRANCH  11  12
ATOM     12  C   UNL     1      45.371   3.066   8.317  0.00  0.00    +0.000 A 
ATOM     13  C   UNL     1      45.820   1.753   8.424  0.00  0.00    +0.000 A 
ATOM     14  C   UNL     1      46.911   1.353   7.653  0.00  0.00    +0.000 A 
ATOM     15  C   UNL     1      47.521   2.267   6.802  0.00  0.00    +0.000 A 
ATOM     16  C   UNL     1      47.012   3.551   6.751  0.00  0.00    +0.000 A 
ATOM     17  N   UNL     1      45.957   3.966   7.483  0.00  0.00    +0.000 NA
ENDBRANCH  11  12
ENDBRANCH   9  11
ENDBRANCH   8   9
ENDBRANCH   1   8
BRANCH   4  18
ATOM     18  C   UNL     1      49.199   7.304  13.856  0.00  0.00    +0.000 C 
BRANCH  18  19
ATOM     19  N   UNL     1      48.978   7.724  15.240  0.00  0.00    +0.000 N 
ATOM     20  C   UNL     1      48.206   8.937  15.489  0.00  0.00    +0.000 C 
ATOM     21  C   UNL     1      49.772   7.074  16.204  0.00  0.00    +0.000 C 
ATOM     22  O   UNL     1      50.549   6.181  15.879  0.00  0.00    +0.000 OA
BRANCH  21  23
ATOM     23  C   UNL     1      49.627   7.423  17.625  0.00  0.00    +0.000 A 
ATOM     24  C   UNL     1      50.246   8.500  18.235  0.00  0.00    +0.000 A 
ATOM     25  S   UNL     1      49.844   8.675  19.884  0.00  0.00    +0.000 S 
ATOM     26  C   UNL     1      48.718   7.403  19.799  0.00  0.00    +0.000 A 
ATOM     27  N   UNL     1      47.934   7.092  20.867  0.00  0.00    +0.000 NA
ATOM     28  C   UNL     1      47.085   6.146  20.638  0.00  0.00    +0.000 A 
ATOM     29  N   UNL     1      46.967   5.467  19.451  0.00  0.00    +0.000 N 
ATOM     30  C   UNL     1      47.831   5.654  18.393  0.00  0.00    +0.000 A 
ATOM     31  O   UNL     1      47.851   4.864  17.455  0.00  0.00    +0.000 OA
ATOM     32  C   UNL     1      48.722   6.790  18.559  0.00  0.00    +0.000 A 
ATOM     33  H   UNL     1      46.330   4.690  19.363  0.00  0.00    +0.000 HD
ENDBRANCH  21  23
ENDBRANCH  18  19
ENDBRANCH   4  18
TORSDOF 7
ENDMDL
MODEL 3
REMARK VINA RESULT:    -7.187      1.420      2.260
REMARK INTER + INTRA:         -11.305
REMARK INTER:                 -10.087
REMARK INTRA:                  -1.218
REMARK UNBOUND:                -1.177
REMARK  Name = 
REMARK  9 active torsions:
REMARK  status: ('A' for Active; 'I' for Inactive)
REMARK    1  A    between atoms: C_1  and  C_2
REMARK    2  A    between atoms: C_2  and  N_3
REMARK    3  A    between atoms: C_2  and  C_11
REMARK    4  A    between atoms: N_3  and  C_4
REMARK    5  A    between atoms: C_4  and  C_5
REMARK    6  A    between atoms: C_14  and  C_15
REMARK    7  A    between atoms: C_15  and  N_16
REMARK    8  A    between atoms: N_16  and  C_17
REMARK    9  A    between atoms: C_18  and  C_20
REMARK                            x       y       z     vdW  Elec       q    Type
REMARK                         _______ _______ _______ _____ _____    ______ ____
ROOT
ATOM      1  C   UNL     1      45.040   5.153  12.128  0.00  0.00    +0.000 A 
ATOM      2  C   UNL     1      45.623   4.467  13.203  0.00  0.00    +0.000 A 
ATOM      3  C   UNL     1      46.820   4.896  13.778  0.00  0.00    +0.000 A 
ATOM      4  C   UNL     1      47.471   6.044  13.315  0.00  0.00    +0.000 A 
ATOM      5  C   UNL     1      46.931   6.720  12.220  0.00  0.00    +0.000 A 
ATOM      6  C   UNL     1      45.752   6.257  11.618  0.00  0.00    +0.000 A 
ENDROOT
BRANCH   1   8
ATOM      7  C   UNL     1      42.639   5.796  11.518  0.00  0.00    +0.000 C 
ATOM      8  C   UNL     1      43.722   4.703  11.486  0.00  0.00    +0.000 C 
BRANCH   8   9
ATOM      9  N   UNL     1      43.834   4.298  10.069  0.00  0.00    +0.000 NA
ATOM     10  H   UNL     1      44.469   4.935   9.587  0.00  0.00    +0.000 HD
BRANCH   9  11
ATOM     11  C   UNL     1      44.315   2.926   9.880  0.00  0.00    +0.000 C 
BRANCH  11  12
ATOM     12  C   UNL     1      45.377   2.768   8.811  0.00  0.00    +0.000 A 
ATOM     13  C   UNL     1      45.748   3.830   7.991  0.00  0.00    +0.000 A 
ATOM     14  C   UNL     1      46.668   3.599   6.970  0.00  0.00    +0.000 A 
ATOM     15  C   UNL     1      47.191   2.322   6.795  0.00  0.00    +0.000 A 
ATOM     16  C   UNL     1      46.775   1.323   7.654  0.00  0.00    +0.000 A 
ATOM     17  N   UNL     1      45.888   1.517   8.651  0.00  0.00    +0.000 NA
ENDBRANCH  11  12
ENDBRANCH   9  11
ENDBRANCH   8   9
ENDBRANCH   1   8
BRANCH   4  18
ATOM     18  C   UNL     1      48.713   6.537  14.014  0.00  0.00    +0.000 C 
BRANCH  18  19
ATOM     19  N   UNL     1      48.530   7.101  15.352  0.00  0.00    +0.000 N 
ATOM     20  C   UNL     1      48.259   8.530  15.478  0.00  0.00    +0.000 C 
ATOM     21  C   UNL     1      48.913   6.268  16.419  0.00  0.00    +0.000 C 
ATOM     22  O   UNL     1      49.318   5.127  16.210  0.00  0.00    +0.000 OA
BRANCH  21  23
ATOM     23  C   UNL     1      48.769   6.740  17.804  0.00  0.00    +0.000 A 
ATOM     24  C   UNL     1      47.643   6.548  18.585  0.00  0.00    +0.000 A 
ATOM     25  S   UNL     1      47.795   7.167  20.167  0.00  0.00    +0.000 S 
ATOM     26  C   UNL     1      49.423   7.583  19.905  0.00  0.00    +0.000 A 
ATOM     27  N   UNL     1      50.189   8.079  20.915  0.00  0.00    +0.000 NA
ATOM     28  C   UNL     1      51.420   8.291  20.586  0.00  0.00    +0.000 A 
ATOM     29  N   UNL     1      51.946   8.081  19.335  0.00  0.00    +0.000 N 
ATOM     30  C   UNL     1      51.176   7.714  18.252  0.00  0.00    +0.000 A 
ATOM     31  O   UNL     1      51.628   7.779  17.113  0.00  0.00    +0.000 OA
ATOM     32  C   UNL     1      49.814   7.345  18.600  0.00  0.00    +0.000 A 
ATOM     33  H   UNL     1      52.899   8.336  19.128  0.00  0.00    +0.000 HD
ENDBRANCH  21  23
ENDBRANCH  18  19
ENDBRANCH   4  18
TORSDOF 7
ENDMDL
MODEL 4
REMARK VINA RESULT:    -6.766      3.943      5.711
REMARK INTER + INTRA:         -10.712
REMARK INTER:                  -9.618
REMARK INTRA:                  -1.094
REMARK UNBOUND:                -1.177
REMARK  Name = 
REMARK  9 active torsions:
REMARK  status: ('A' for Active; 'I' for Inactive)
REMARK    1  A    between atoms: C_1  and  C_2
REMARK    2  A    between atoms: C_2  and  N_3
REMARK    3  A    between atoms: C_2  and  C_11
REMARK    4  A    between atoms: N_3  and  C_4
REMARK    5  A    between atoms: C_4  and  C_5
REMARK    6  A    between atoms: C_14  and  C_15
REMARK    7  A    between atoms: C_15  and  N_16
REMARK    8  A    between atoms: N_16  and  C_17
REMARK    9  A    between atoms: C_18  and  C_20
REMARK                            x       y       z     vdW  Elec       q    Type
REMARK                         _______ _______ _______ _____ _____    ______ ____
ROOT
ATOM      1  C   UNL     1      45.260   5.093  12.126  0.00  0.00    +0.000 A 
ATOM      2  C   UNL     1      45.025   6.464  11.945  0.00  0.00    +0.000 A 
ATOM      3  C   UNL     1      45.862   7.427  12.511  0.00  0.00    +0.000 A 
ATOM      4  C   UNL     1      46.982   7.057  13.263  0.00  0.00    +0.000 A 
ATOM      5  C   UNL     1      47.213   5.699  13.491  0.00  0.00    +0.000 A 
ATOM      6  C   UNL     1      46.342   4.738  12.957  0.00  0.00    +0.000 A 
ENDROOT
BRANCH   1   8
ATOM      7  C   UNL     1      43.469   4.564  10.377  0.00  0.00    +0.000 C 
ATOM      8  C   UNL     1      44.358   4.018  11.508  0.00  0.00    +0.000 C 
BRANCH   8   9
ATOM      9  N   UNL     1      45.080   2.868  10.924  0.00  0.00    +0.000 NA
ATOM     10  H   UNL     1      45.026   2.077  11.565  0.00  0.00    +0.000 HD
BRANCH   9  11
ATOM     11  C   UNL     1      44.568   2.448   9.617  0.00  0.00    +0.000 C 
BRANCH  11  12
ATOM     12  C   UNL     1      45.612   2.369   8.521  0.00  0.00    +0.000 A 
ATOM     13  C   UNL     1      45.887   3.457   7.699  0.00  0.00    +0.000 A 
ATOM     14  C   UNL     1      46.796   3.295   6.655  0.00  0.00    +0.000 A 
ATOM     15  C   UNL     1      47.403   2.060   6.460  0.00  0.00    +0.000 A 
ATOM     16  C   UNL     1      47.079   1.030   7.323  0.00  0.00    +0.000 A 
ATOM     17  N   UNL     1      46.205   1.158   8.342  0.00  0.00    +0.000 NA
ENDBRANCH  11  12
ENDBRANCH   9  11
ENDBRANCH   8   9
ENDBRANCH   1   8
BRANCH   4  18
ATOM     18  C   UNL     1      47.920   8.117  13.784  0.00  0.00    +0.000 C 
BRANCH  18  19
ATOM     19  N   UNL     1      49.318   8.018  13.362  0.00  0.00    +0.000 N 
ATOM     20  C   UNL     1      50.316   7.591  14.338  0.00  0.00    +0.000 C 
ATOM     21  C   UNL     1      49.621   8.616  12.125  0.00  0.00    +0.000 C 
ATOM     22  O   UNL     1      48.738   9.131  11.444  0.00  0.00    +0.000 OA
BRANCH  21  23
ATOM     23  C   UNL     1      50.997   8.573  11.610  0.00  0.00    +0.000 A 
ATOM     24  C   UNL     1      51.476   7.614  10.734  0.00  0.00    +0.000 A 
ATOM     25  S   UNL     1      53.102   7.858  10.276  0.00  0.00    +0.000 S 
ATOM     26  C   UNL     1      53.173   9.333  11.120  0.00  0.00    +0.000 A 
ATOM     27  N   UNL     1      54.280  10.122  11.055  0.00  0.00    +0.000 NA
ATOM     28  C   UNL     1      54.168  11.239  11.694  0.00  0.00    +0.000 A 
ATOM     29  N   UNL     1      53.064  11.624  12.414  0.00  0.00    +0.000 N 
ATOM     30  C   UNL     1      51.980  10.799  12.620  0.00  0.00    +0.000 A 
ATOM     31  O   UNL     1      51.134  11.077  13.465  0.00  0.00    +0.000 OA
ATOM     32  C   UNL     1      52.008   9.585  11.821  0.00  0.00    +0.000 A 
ATOM     33  H   UNL     1      53.071  12.480  12.949  0.00  0.00    +0.000 HD
ENDBRANCH  21  23
ENDBRANCH  18  19
ENDBRANCH   4  18
TORSDOF 7
ENDMDL
MODEL 5
REMARK VINA RESULT:    -6.471      1.579      2.194
REMARK INTER + INTRA:         -10.296
REMARK INTER:                  -9.247
REMARK INTRA:                  -1.049
REMARK UNBOUND:                -1.177
REMARK  Name = 
REMARK  9 active torsions:
REMARK  status: ('A' for Active; 'I' for Inactive)
REMARK    1  A    between atoms: C_1  and  C_2
REMARK    2  A    between atoms: C_2  and  N_3
REMARK    3  A    between atoms: C_2  and  C_11
REMARK    4  A    between atoms: N_3  and  C_4
REMARK    5  A    between atoms: C_4  and  C_5
REMARK    6  A    between atoms: C_14  and  C_15
REMARK    7  A    between atoms: C_15  and  N_16
REMARK    8  A    between atoms: N_16  and  C_17
REMARK    9  A    between atoms: C_18  and  C_20
REMARK                            x       y       z     vdW  Elec       q    Type
REMARK                         _______ _______ _______ _____ _____    ______ ____
ROOT
ATOM      1  C   UNL     1      46.262   7.306  12.688  0.00  0.00    +0.000 A 
ATOM      2  C   UNL     1      46.643   8.559  13.188  0.00  0.00    +0.000 A 
ATOM      3  C   UNL     1      47.790   8.715  13.968  0.00  0.00    +0.000 A 
ATOM      4  C   UNL     1      48.616   7.625  14.261  0.00  0.00    +0.000 A 
ATOM      5  C   UNL     1      48.235   6.360  13.809  0.00  0.00    +0.000 A 
ATOM      6  C   UNL     1      47.057   6.204  13.064  0.00  0.00    +0.000 A 
ENDROOT
BRANCH   1   8
ATOM      7  C   UNL     1      44.368   8.446  11.399  0.00  0.00    +0.000 C 
ATOM      8  C   UNL     1      45.010   7.114  11.824  0.00  0.00    +0.000 C 
BRANCH   8   9
ATOM      9  N   UNL     1      45.236   6.365  10.569  0.00  0.00    +0.000 NA
ATOM     10  H   UNL     1      46.228   6.143  10.485  0.00  0.00    +0.000 HD
BRANCH   9  11
ATOM     11  C   UNL     1      44.469   5.121  10.475  0.00  0.00    +0.000 C 
BRANCH  11  12
ATOM     12  C   UNL     1      45.013   4.113   9.482  0.00  0.00    +0.000 A 
ATOM     13  C   UNL     1      44.893   2.743   9.695  0.00  0.00    +0.000 A 
ATOM     14  C   UNL     1      45.489   1.869   8.788  0.00  0.00    +0.000 A 
ATOM     15  C   UNL     1      46.186   2.381   7.699  0.00  0.00    +0.000 A 
ATOM     16  C   UNL     1      46.255   3.754   7.556  0.00  0.00    +0.000 A 
ATOM     17  N   UNL     1      45.687   4.624   8.416  0.00  0.00    +0.000 NA
ENDBRANCH  11  12
ENDBRANCH   9  11
ENDBRANCH   8   9
ENDBRANCH   1   8
BRANCH   4  18
ATOM     18  C   UNL     1      49.897   7.837  15.028  0.00  0.00    +0.000 C 
BRANCH  18  19
ATOM     19  N   UNL     1      49.797   7.811  16.487  0.00  0.00    +0.000 N 
ATOM     20  C   UNL     1      49.402   9.030  17.185  0.00  0.00    +0.000 C 
ATOM     21  C   UNL     1      50.367   6.687  17.113  0.00  0.00    +0.000 C 
ATOM     22  O   UNL     1      50.858   5.779  16.447  0.00  0.00    +0.000 OA
BRANCH  21  23
ATOM     23  C   UNL     1      50.320   6.563  18.578  0.00  0.00    +0.000 A 
ATOM     24  C   UNL     1      51.348   6.928  19.429  0.00  0.00    +0.000 A 
ATOM     25  S   UNL     1      50.977   6.713  21.080  0.00  0.00    +0.000 S 
ATOM     26  C   UNL     1      49.379   6.261  20.717  0.00  0.00    +0.000 A 
ATOM     27  N   UNL     1      48.475   6.032  21.709  0.00  0.00    +0.000 NA
ATOM     28  C   UNL     1      47.286   5.757  21.284  0.00  0.00    +0.000 A 
ATOM     29  N   UNL     1      46.927   5.663  19.962  0.00  0.00    +0.000 N 
ATOM     30  C   UNL     1      47.838   5.749  18.931  0.00  0.00    +0.000 A 
ATOM     31  O   UNL     1      47.527   5.414  17.792  0.00  0.00    +0.000 OA
ATOM     32  C   UNL     1      49.161   6.178  19.354  0.00  0.00    +0.000 A 
ATOM     33  H   UNL     1      45.997   5.374  19.700  0.00  0.00    +0.000 HD
ENDBRANCH  21  23
ENDBRANCH  18  19
ENDBRANCH   4  18
TORSDOF 7
ENDMDL
MODEL 6
REMARK VINA RESULT:    -6.328      1.886      2.694
REMARK INTER + INTRA:         -10.095
REMARK INTER:                  -8.898
REMARK INTRA:                  -1.197
REMARK UNBOUND:                -1.177
REMARK  Name = 
REMARK  9 active torsions:
REMARK  status: ('A' for Active; 'I' for Inactive)
REMARK    1  A    between atoms: C_1  and  C_2
REMARK    2  A    between atoms: C_2  and  N_3
REMARK    3  A    between atoms: C_2  and  C_11
REMARK    4  A    between atoms: N_3  and  C_4
REMARK    5  A    between atoms: C_4  and  C_5
REMARK    6  A    between atoms: C_14  and  C_15
REMARK    7  A    between atoms: C_15  and  N_16
REMARK    8  A    between atoms: N_16  and  C_17
REMARK    9  A    between atoms: C_18  and  C_20
REMARK                            x       y       z     vdW  Elec       q    Type
REMARK                         _______ _______ _______ _____ _____    ______ ____
ROOT
ATOM      1  C   UNL     1      45.821   5.563  12.598  0.00  0.00    +0.000 A 
ATOM      2  C   UNL     1      46.743   6.331  13.325  0.00  0.00    +0.000 A 
ATOM      3  C   UNL     1      47.483   5.781  14.372  0.00  0.00    +0.000 A 
ATOM      4  C   UNL     1      47.349   4.433  14.721  0.00  0.00    +0.000 A 
ATOM      5  C   UNL     1      46.408   3.660  14.039  0.00  0.00    +0.000 A 
ATOM      6  C   UNL     1      45.634   4.231  13.018  0.00  0.00    +0.000 A 
ENDROOT
BRANCH   1   8
ATOM      7  C   UNL     1      45.043   7.683  11.393  0.00  0.00    +0.000 C 
ATOM      8  C   UNL     1      45.002   6.145  11.440  0.00  0.00    +0.000 C 
BRANCH   8   9
ATOM      9  N   UNL     1      45.428   5.696  10.097  0.00  0.00    +0.000 NA
ATOM     10  H   UNL     1      46.408   5.415  10.133  0.00  0.00    +0.000 HD
BRANCH   9  11
ATOM     11  C   UNL     1      44.640   4.580   9.567  0.00  0.00    +0.000 C 
BRANCH  11  12
ATOM     12  C   UNL     1      45.417   3.612   8.697  0.00  0.00    +0.000 A 
ATOM     13  C   UNL     1      45.395   2.241   8.934  0.00  0.00    +0.000 A 
ATOM     14  C   UNL     1      46.197   1.412   8.152  0.00  0.00    +0.000 A 
ATOM     15  C   UNL     1      46.996   1.969   7.160  0.00  0.00    +0.000 A 
ATOM     16  C   UNL     1      46.958   3.340   6.985  0.00  0.00    +0.000 A 
ATOM     17  N   UNL     1      46.191   4.166   7.724  0.00  0.00    +0.000 NA
ENDBRANCH  11  12
ENDBRANCH   9  11
ENDBRANCH   8   9
ENDBRANCH   1   8
BRANCH   4  18
ATOM     18  C   UNL     1      48.228   3.843  15.795  0.00  0.00    +0.000 C 
BRANCH  18  19
ATOM     19  N   UNL     1      48.235   4.534  17.085  0.00  0.00    +0.000 N 
ATOM     20  C   UNL     1      46.970   4.718  17.789  0.00  0.00    +0.000 C 
ATOM     21  C   UNL     1      49.427   5.211  17.402  0.00  0.00    +0.000 C 
ATOM     22  O   UNL     1      50.397   5.162  16.650  0.00  0.00    +0.000 OA
BRANCH  21  23
ATOM     23  C   UNL     1      49.539   5.937  18.676  0.00  0.00    +0.000 A 
ATOM     24  C   UNL     1      49.973   5.373  19.864  0.00  0.00    +0.000 A 
ATOM     25  S   UNL     1      50.043   6.481  21.159  0.00  0.00    +0.000 S 
ATOM     26  C   UNL     1      49.636   7.780  20.141  0.00  0.00    +0.000 A 
ATOM     27  N   UNL     1      49.621   9.058  20.610  0.00  0.00    +0.000 NA
ATOM     28  C   UNL     1      49.354   9.946  19.710  0.00  0.00    +0.000 A 
ATOM     29  N   UNL     1      49.074   9.670  18.394  0.00  0.00    +0.000 N 
ATOM     30  C   UNL     1      48.941   8.386  17.911  0.00  0.00    +0.000 A 
ATOM     31  O   UNL     1      48.450   8.182  16.804  0.00  0.00    +0.000 OA
ATOM     32  C   UNL     1      49.352   7.360  18.854  0.00  0.00    +0.000 A 
ATOM     33  H   UNL     1      48.803  10.407  17.760  0.00  0.00    +0.000 HD
ENDBRANCH  21  23
ENDBRANCH  18  19
ENDBRANCH   4  18
TORSDOF 7
ENDMDL
MODEL 7
REMARK VINA RESULT:    -6.116      4.968      8.701
REMARK INTER + INTRA:          -9.796
REMARK INTER:                  -8.668
REMARK INTRA:                  -1.128
REMARK UNBOUND:                -1.177
REMARK  Name = 
REMARK  9 active torsions:
REMARK  status: ('A' for Active; 'I' for Inactive)
REMARK    1  A    between atoms: C_1  and  C_2
REMARK    2  A    between atoms: C_2  and  N_3
REMARK    3  A    between atoms: C_2  and  C_11
REMARK    4  A    between atoms: N_3  and  C_4
REMARK    5  A    between atoms: C_4  and  C_5
REMARK    6  A    between atoms: C_14  and  C_15
REMARK    7  A    between atoms: C_15  and  N_16
REMARK    8  A    between atoms: N_16  and  C_17
REMARK    9  A    between atoms: C_18  and  C_20
REMARK                            x       y       z     vdW  Elec       q    Type
REMARK                         _______ _______ _______ _____ _____    ______ ____
ROOT
ATOM      1  C   UNL     1      50.701   9.343  12.629  0.00  0.00    +0.000 A 
ATOM      2  C   UNL     1      49.918   9.669  13.745  0.00  0.00    +0.000 A 
ATOM      3  C   UNL     1      48.552   9.389  13.784  0.00  0.00    +0.000 A 
ATOM      4  C   UNL     1      47.916   8.749  12.715  0.00  0.00    +0.000 A 
ATOM      5  C   UNL     1      48.666   8.452  11.576  0.00  0.00    +0.000 A 
ATOM      6  C   UNL     1      50.030   8.778  11.525  0.00  0.00    +0.000 A 
ENDROOT
BRANCH   1   8
ATOM      7  C   UNL     1      53.065   8.433  12.992  0.00  0.00    +0.000 C 
ATOM      8  C   UNL     1      52.205   9.636  12.567  0.00  0.00    +0.000 C 
BRANCH   8   9
ATOM      9  N   UNL     1      52.703  10.027  11.231  0.00  0.00    +0.000 NA
ATOM     10  H   UNL     1      53.150  10.941  11.294  0.00  0.00    +0.000 HD
BRANCH   9  11
ATOM     11  C   UNL     1      53.659   9.078  10.654  0.00  0.00    +0.000 C 
BRANCH  11  12
ATOM     12  C   UNL     1      53.231   8.471   9.333  0.00  0.00    +0.000 A 
ATOM     13  C   UNL     1      52.670   7.199   9.264  0.00  0.00    +0.000 A 
ATOM     14  C   UNL     1      52.377   6.663   8.011  0.00  0.00    +0.000 A 
ATOM     15  C   UNL     1      52.649   7.405   6.867  0.00  0.00    +0.000 A 
ATOM     16  C   UNL     1      53.203   8.662   7.021  0.00  0.00    +0.000 A 
ATOM     17  N   UNL     1      53.496   9.207   8.220  0.00  0.00    +0.000 NA
ENDBRANCH  11  12
ENDBRANCH   9  11
ENDBRANCH   8   9
ENDBRANCH   1   8
BRANCH   4  18
ATOM     18  C   UNL     1      46.459   8.375  12.822  0.00  0.00    +0.000 C 
BRANCH  18  19
ATOM     19  N   UNL     1      46.140   6.951  12.716  0.00  0.00    +0.000 N 
ATOM     20  C   UNL     1      47.109   5.978  13.210  0.00  0.00    +0.000 C 
ATOM     21  C   UNL     1      45.047   6.635  11.889  0.00  0.00    +0.000 C 
ATOM     22  O   UNL     1      44.391   7.522  11.349  0.00  0.00    +0.000 OA
BRANCH  21  23
ATOM     23  C   UNL     1      44.643   5.232  11.715  0.00  0.00    +0.000 A 
ATOM     24  C   UNL     1      43.917   4.505  12.642  0.00  0.00    +0.000 A 
ATOM     25  S   UNL     1      43.557   2.916  12.133  0.00  0.00    +0.000 S 
ATOM     26  C   UNL     1      44.235   3.197  10.600  0.00  0.00    +0.000 A 
ATOM     27  N   UNL     1      44.166   2.252   9.622  0.00  0.00    +0.000 NA
ATOM     28  C   UNL     1      44.668   2.627   8.492  0.00  0.00    +0.000 A 
ATOM     29  N   UNL     1      45.256   3.846   8.260  0.00  0.00    +0.000 N 
ATOM     30  C   UNL     1      45.472   4.774   9.256  0.00  0.00    +0.000 A 
ATOM     31  O   UNL     1      46.215   5.733   9.067  0.00  0.00    +0.000 OA
ATOM     32  C   UNL     1      44.816   4.449  10.511  0.00  0.00    +0.000 A 
ATOM     33  H   UNL     1      45.693   4.046   7.373  0.00  0.00    +0.000 HD
ENDBRANCH  21  23
ENDBRANCH  18  19
ENDBRANCH   4  18
TORSDOF 7
ENDMDL
MODEL 8
REMARK VINA RESULT:    -5.727      4.596      6.424
REMARK INTER + INTRA:          -9.248
REMARK INTER:                  -8.028
REMARK INTRA:                  -1.220
REMARK UNBOUND:                -1.177
REMARK  Name = 
REMARK  9 active torsions:
REMARK  status: ('A' for Active; 'I' for Inactive)
REMARK    1  A    between atoms: C_1  and  C_2
REMARK    2  A    between atoms: C_2  and  N_3
REMARK    3  A    between atoms: C_2  and  C_11
REMARK    4  A    between atoms: N_3  and  C_4
REMARK    5  A    between atoms: C_4  and  C_5
REMARK    6  A    between atoms: C_14  and  C_15
REMARK    7  A    between atoms: C_15  and  N_16
REMARK    8  A    between atoms: N_16  and  C_17
REMARK    9  A    between atoms: C_18  and  C_20
REMARK                            x       y       z     vdW  Elec       q    Type
REMARK                         _______ _______ _______ _____ _____    ______ ____
ROOT
ATOM      1  C   UNL     1      45.645   7.536  12.557  0.00  0.00    +0.000 A 
ATOM      2  C   UNL     1      45.334   8.829  12.113  0.00  0.00    +0.000 A 
ATOM      3  C   UNL     1      46.231   9.887  12.266  0.00  0.00    +0.000 A 
ATOM      4  C   UNL     1      47.487   9.689  12.849  0.00  0.00    +0.000 A 
ATOM      5  C   UNL     1      47.803   8.420  13.335  0.00  0.00    +0.000 A 
ATOM      6  C   UNL     1      46.878   7.371  13.220  0.00  0.00    +0.000 A 
ENDROOT
BRANCH   1   8
ATOM      7  C   UNL     1      43.551   6.646  11.384  0.00  0.00    +0.000 C 
ATOM      8  C   UNL     1      44.677   6.358  12.393  0.00  0.00    +0.000 C 
BRANCH   8   9
ATOM      9  N   UNL     1      45.308   5.102  11.934  0.00  0.00    +0.000 NA
ATOM     10  H   UNL     1      45.553   4.534  12.745  0.00  0.00    +0.000 HD
BRANCH   9  11
ATOM     11  C   UNL     1      44.460   4.304  11.044  0.00  0.00    +0.000 C 
BRANCH  11  12
ATOM     12  C   UNL     1      45.159   3.778   9.805  0.00  0.00    +0.000 A 
ATOM     13  C   UNL     1      45.722   4.639   8.868  0.00  0.00    +0.000 A 
ATOM     14  C   UNL     1      46.275   4.097   7.708  0.00  0.00    +0.000 A 
ATOM     15  C   UNL     1      46.251   2.720   7.516  0.00  0.00    +0.000 A 
ATOM     16  C   UNL     1      45.677   1.934   8.497  0.00  0.00    +0.000 A 
ATOM     17  N   UNL     1      45.136   2.430   9.630  0.00  0.00    +0.000 NA
ENDBRANCH  11  12
ENDBRANCH   9  11
ENDBRANCH   8   9
ENDBRANCH   1   8
BRANCH   4  18
ATOM     18  C   UNL     1      48.472  10.830  12.917  0.00  0.00    +0.000 C 
BRANCH  18  19
ATOM     19  N   UNL     1      49.836  10.543  12.473  0.00  0.00    +0.000 N 
ATOM     20  C   UNL     1      50.887  10.414  13.477  0.00  0.00    +0.000 C 
ATOM     21  C   UNL     1      50.069  10.697  11.094  0.00  0.00    +0.000 C 
ATOM     22  O   UNL     1      49.153  10.999  10.333  0.00  0.00    +0.000 OA
BRANCH  21  23
ATOM     23  C   UNL     1      51.406  10.433  10.544  0.00  0.00    +0.000 A 
ATOM     24  C   UNL     1      52.299  11.414  10.147  0.00  0.00    +0.000 A 
ATOM     25  S   UNL     1      53.792  10.797   9.598  0.00  0.00    +0.000 S 
ATOM     26  C   UNL     1      53.347   9.208  10.008  0.00  0.00    +0.000 A 
ATOM     27  N   UNL     1      54.231   8.181   9.882  0.00  0.00    +0.000 NA
ATOM     28  C   UNL     1      53.775   7.042  10.288  0.00  0.00    +0.000 A 
ATOM     29  N   UNL     1      52.511   6.833  10.780  0.00  0.00    +0.000 N 
ATOM     30  C   UNL     1      51.542   7.813  10.793  0.00  0.00    +0.000 A 
ATOM     31  O   UNL     1      50.366   7.528  11.003  0.00  0.00    +0.000 OA
ATOM     32  C   UNL     1      52.043   9.137  10.463  0.00  0.00    +0.000 A 
ATOM     33  H   UNL     1      52.196   5.903  11.013  0.00  0.00    +0.000 HD
ENDBRANCH  21  23
ENDBRANCH  18  19
ENDBRANCH   4  18
TORSDOF 7
ENDMDL
MODEL 9
REMARK VINA RESULT:    -5.509      5.052      8.259
REMARK INTER + INTRA:          -8.941
REMARK INTER:                  -7.865
REMARK INTRA:                  -1.076
REMARK UNBOUND:                -1.177
REMARK  Name = 
REMARK  9 active torsions:
REMARK  status: ('A' for Active; 'I' for Inactive)
REMARK    1  A    between atoms: C_1  and  C_2
REMARK    2  A    between atoms: C_2  and  N_3
REMARK    3  A    between atoms: C_2  and  C_11
REMARK    4  A    between atoms: N_3  and  C_4
REMARK    5  A    between atoms: C_4  and  C_5
REMARK    6  A    between atoms: C_14  and  C_15
REMARK    7  A    between atoms: C_15  and  N_16
REMARK    8  A    between atoms: N_16  and  C_17
REMARK    9  A    between atoms: C_18  and  C_20
REMARK                            x       y       z     vdW  Elec       q    Type
REMARK                         _______ _______ _______ _____ _____    ______ ____
ROOT
ATOM      1  C   UNL     1      51.170   9.500  11.877  0.00  0.00    +0.000 A 
ATOM      2  C   UNL     1      50.944   8.967  13.154  0.00  0.00    +0.000 A 
ATOM      3  C   UNL     1      49.654   8.693  13.611  0.00  0.00    +0.000 A 
ATOM      4  C   UNL     1      48.538   8.921  12.799  0.00  0.00    +0.000 A 
ATOM      5  C   UNL     1      48.735   9.489  11.540  0.00  0.00    +0.000 A 
ATOM      6  C   UNL     1      50.031   9.804  11.104  0.00  0.00    +0.000 A 
ENDROOT
BRANCH   1   8
ATOM      7  C   UNL     1      53.207  11.045  12.007  0.00  0.00    +0.000 C 
ATOM      8  C   UNL     1      52.579   9.801  11.352  0.00  0.00    +0.000 C 
BRANCH   8   9
ATOM      9  N   UNL     1      53.558   8.712  11.552  0.00  0.00    +0.000 NA
ATOM     10  H   UNL     1      53.597   8.474  12.543  0.00  0.00    +0.000 HD
BRANCH   9  11
ATOM     11  C   UNL     1      53.256   7.497  10.790  0.00  0.00    +0.000 C 
BRANCH  11  12
ATOM     12  C   UNL     1      53.426   7.629   9.290  0.00  0.00    +0.000 A 
ATOM     13  C   UNL     1      52.447   7.188   8.405  0.00  0.00    +0.000 A 
ATOM     14  C   UNL     1      52.700   7.260   7.036  0.00  0.00    +0.000 A 
ATOM     15  C   UNL     1      53.915   7.766   6.589  0.00  0.00    +0.000 A 
ATOM     16  C   UNL     1      54.833   8.187   7.532  0.00  0.00    +0.000 A 
ATOM     17  N   UNL     1      54.616   8.132   8.863  0.00  0.00    +0.000 NA
ENDBRANCH  11  12
ENDBRANCH   9  11
ENDBRANCH   8   9
ENDBRANCH   1   8
BRANCH   4  18
ATOM     18  C   UNL     1      47.164   8.530  13.283  0.00  0.00    +0.000 C 
BRANCH  18  19
ATOM     19  N   UNL     1      46.321   7.798  12.338  0.00  0.00    +0.000 N 
ATOM     20  C   UNL     1      45.076   8.412  11.888  0.00  0.00    +0.000 C 
ATOM     21  C   UNL     1      46.646   6.440  12.162  0.00  0.00    +0.000 C 
ATOM     22  O   UNL     1      47.613   5.947  12.737  0.00  0.00    +0.000 OA
BRANCH  21  23
ATOM     23  C   UNL     1      45.861   5.615  11.233  0.00  0.00    +0.000 A 
ATOM     24  C   UNL     1      45.992   5.644   9.856  0.00  0.00    +0.000 A 
ATOM     25  S   UNL     1      44.978   4.533   9.050  0.00  0.00    +0.000 S 
ATOM     26  C   UNL     1      44.436   3.878  10.522  0.00  0.00    +0.000 A 
ATOM     27  N   UNL     1      43.606   2.799  10.543  0.00  0.00    +0.000 NA
ATOM     28  C   UNL     1      43.328   2.373  11.730  0.00  0.00    +0.000 A 
ATOM     29  N   UNL     1      43.779   2.943  12.895  0.00  0.00    +0.000 N 
ATOM     30  C   UNL     1      44.504   4.115  12.922  0.00  0.00    +0.000 A 
ATOM     31  O   UNL     1      44.673   4.722  13.976  0.00  0.00    +0.000 OA
ATOM     32  C   UNL     1      44.944   4.561  11.611  0.00  0.00    +0.000 A 
ATOM     33  H   UNL     1      43.464   2.602  13.791  0.00  0.00    +0.000 HD
ENDBRANCH  21  23
ENDBRANCH  18  19
ENDBRANCH   4  18
TORSDOF 7
ENDMDL
