MODEL 1
REMARK VINA RESULT:    -8.377      0.000      0.000
REMARK INTER + INTRA:         -13.333
REMARK INTER:                 -12.295
REMARK INTRA:                  -1.038
REMARK UNBOUND:                -1.038
REMARK  Name = 
REMARK  9 active torsions:
REMARK  status: ('A' for Active; 'I' for Inactive)
REMARK    1  A    between atoms: C_1  and  C_2
REMARK    2  A    between atoms: C_2  and  C_3
REMARK    3  A    between atoms: C_2  and  N_10
REMARK    4  A    between atoms: C_3  and  C_4
REMARK    5  A    between atoms: N_10  and  C_11
REMARK    6  A    between atoms: C_11  and  C_12
REMARK    7  A    between atoms: C_15  and  C_16
REMARK    8  A    between atoms: C_16  and  N_17
REMARK    9  A    between atoms: C_18  and  C_20
REMARK                            x       y       z     vdW  Elec       q    Type
REMARK                         _______ _______ _______ _____ _____    ______ ____
ROOT
ATOM      1  C   UNL     1      44.579   5.448  11.432  0.00  0.00    +0.000 A 
ATOM      2  C   UNL     1      45.610   4.818  12.140  0.00  0.00    +0.000 A 
ATOM      3  C   UNL     1      46.579   5.570  12.800  0.00  0.00    +0.000 A 
ATOM      4  C   UNL     1      46.536   6.969  12.761  0.00  0.00    +0.000 A 
ATOM      5  C   UNL     1      45.514   7.602  12.042  0.00  0.00    +0.000 A 
ATOM      6  C   UNL     1      44.539   6.849  11.392  0.00  0.00    +0.000 A 
ENDROOT
BRANCH   1   7
ATOM      7  C   UNL     1      43.558   4.635  10.682  0.00  0.00    +0.000 C 
BRANCH   7   8
ATOM      8  N   UNL     1      43.723   4.752   9.230  0.00  0.00    +0.000 NA
ATOM      9  H   UNL     1      42.809   4.873   8.800  0.00  0.00    +0.000 HD
BRANCH   8  11
ATOM     10  C   UNL     1      44.330   2.391   9.614  0.00  0.00    +0.000 C 
ATOM     11  C   UNL     1      44.388   3.576   8.640  0.00  0.00    +0.000 C 
BRANCH  11  12
ATOM     12  C   UNL     1      45.851   3.938   8.271  0.00  0.00    +0.000 C 
BRANCH  12  13
ATOM     13  C   UNL     1      46.480   2.963   7.296  0.00  0.00    +0.000 A 
ATOM     14  C   UNL     1      46.667   3.309   5.949  0.00  0.00    +0.000 A 
ATOM     15  C   UNL     1      47.130   2.363   5.032  0.00  0.00    +0.000 A 
ATOM     16  C   UNL     1      47.440   1.072   5.457  0.00  0.00    +0.000 A 
ATOM     17  C   UNL     1      47.301   0.731   6.800  0.00  0.00    +0.000 A 
ATOM     18  C   UNL     1      46.823   1.670   7.716  0.00  0.00    +0.000 A 
ENDBRANCH  12  13
ENDBRANCH  11  12
ENDBRANCH   8  11
ENDBRANCH   7   8
ENDBRANCH   1   7
BRANCH   4  19
ATOM     19  C   UNL     1      47.604   7.791  13.428  0.00  0.00    +0.000 C 
BRANCH  19  20
ATOM     20  N   UNL     1      47.934   7.236  14.714  0.00  0.00    +0.000 N 
ATOM     21  C   UNL     1      49.233   7.116  15.125  0.00  0.00    +0.000 C 
ATOM     22  O   UNL     1      50.178   7.485  14.432  0.00  0.00    +0.000 OA
ATOM     23  H   UNL     1      47.214   6.690  15.177  0.00  0.00    +0.000 HD
BRANCH  21  24
ATOM     24  C   UNL     1      49.435   6.583  16.476  0.00  0.00    +0.000 A 
ATOM     25  C   UNL     1      50.169   7.311  17.402  0.00  0.00    +0.000 A 
ATOM     26  S   UNL     1      50.259   6.571  18.936  0.00  0.00    +0.000 S 
ATOM     27  C   UNL     1      49.359   5.229  18.402  0.00  0.00    +0.000 A 
ATOM     28  N   UNL     1      49.095   4.186  19.235  0.00  0.00    +0.000 NA
ATOM     29  C   UNL     1      48.422   3.226  18.697  0.00  0.00    +0.000 A 
ATOM     30  N   UNL     1      47.985   3.219  17.393  0.00  0.00    +0.000 N 
ATOM     31  C   UNL     1      48.207   4.251  16.523  0.00  0.00    +0.000 A 
ATOM     32  O   UNL     1      47.767   4.230  15.381  0.00  0.00    +0.000 OA
ATOM     33  C   UNL     1      48.975   5.355  17.080  0.00  0.00    +0.000 A 
ATOM     34  H   UNL     1      47.456   2.435  17.033  0.00  0.00    +0.000 HD
ENDBRANCH  21  24
ENDBRANCH  19  20
ENDBRANCH   4  19
TORSDOF 8
ENDMDL
MODEL 2
REMARK VINA RESULT:    -8.077      1.760      2.193
REMARK INTER + INTRA:         -12.892
REMARK INTER:                 -12.041
REMARK INTRA:                  -0.851
REMARK UNBOUND:                -1.038
REMARK  Name = 
REMARK  9 active torsions:
REMARK  status: ('A' for Active; 'I' for Inactive)
REMARK    1  A    between atoms: C_1  and  C_2
REMARK    2  A    between atoms: C_2  and  C_3
REMARK    3  A    between atoms: C_2  and  N_10
REMARK    4  A    between atoms: C_3  and  C_4
REMARK    5  A    between atoms: N_10  and  C_11
REMARK    6  A    between atoms: C_11  and  C_12
REMARK    7  A    between atoms: C_15  and  C_16
REMARK    8  A    between atoms: C_16  and  N_17
REMARK    9  A    between atoms: C_18  and  C_20
REMARK                            x       y       z     vdW  Elec       q    Type
REMARK                         _______ _______ _______ _____ _____    ______ ____
ROOT
ATOM      1  C   UNL     1      44.688   5.133  11.493  0.00  0.00    +0.000 A 
ATOM      2  C   UNL     1      45.280   4.363  12.502  0.00  0.00    +0.000 A 
ATOM      3  C   UNL     1      46.349   4.865  13.241  0.00  0.00    +0.000 A 
ATOM      4  C   UNL     1      46.848   6.147  12.981  0.00  0.00    +0.000 A 
ATOM      5  C   UNL     1      46.267   6.913  11.963  0.00  0.00    +0.000 A 
ATOM      6  C   UNL     1      45.191   6.415  11.232  0.00  0.00    +0.000 A 
ENDROOT
BRANCH   1   7
ATOM      7  C   UNL     1      43.562   4.573  10.665  0.00  0.00    +0.000 C 
BRANCH   7   8
ATOM      8  N   UNL     1      43.791   4.762   9.229  0.00  0.00    +0.000 NA
ATOM      9  H   UNL     1      42.902   4.960   8.774  0.00  0.00    +0.000 HD
BRANCH   8  11
ATOM     10  C   UNL     1      44.307   2.367   9.527  0.00  0.00    +0.000 C 
ATOM     11  C   UNL     1      44.409   3.583   8.596  0.00  0.00    +0.000 C 
BRANCH  11  12
ATOM     12  C   UNL     1      45.886   3.902   8.237  0.00  0.00    +0.000 C 
BRANCH  12  13
ATOM     13  C   UNL     1      46.489   2.915   7.257  0.00  0.00    +0.000 A 
ATOM     14  C   UNL     1      46.665   3.254   5.908  0.00  0.00    +0.000 A 
ATOM     15  C   UNL     1      47.103   2.299   4.989  0.00  0.00    +0.000 A 
ATOM     16  C   UNL     1      47.399   1.005   5.413  0.00  0.00    +0.000 A 
ATOM     17  C   UNL     1      47.271   0.670   6.759  0.00  0.00    +0.000 A 
ATOM     18  C   UNL     1      46.818   1.619   7.677  0.00  0.00    +0.000 A 
ENDBRANCH  12  13
ENDBRANCH  11  12
ENDBRANCH   8  11
ENDBRANCH   7   8
ENDBRANCH   1   7
BRANCH   4  19
ATOM     19  C   UNL     1      48.033   6.679  13.738  0.00  0.00    +0.000 C 
BRANCH  19  20
ATOM     20  N   UNL     1      48.015   6.205  15.097  0.00  0.00    +0.000 N 
ATOM     21  C   UNL     1      48.941   6.628  16.010  0.00  0.00    +0.000 C 
ATOM     22  O   UNL     1      49.819   7.439  15.727  0.00  0.00    +0.000 OA
ATOM     23  H   UNL     1      47.488   5.357  15.280  0.00  0.00    +0.000 HD
BRANCH  21  24
ATOM     24  C   UNL     1      48.785   6.111  17.373  0.00  0.00    +0.000 A 
ATOM     25  C   UNL     1      49.120   4.794  17.654  0.00  0.00    +0.000 A 
ATOM     26  S   UNL     1      48.929   4.376  19.297  0.00  0.00    +0.000 S 
ATOM     27  C   UNL     1      48.348   5.929  19.681  0.00  0.00    +0.000 A 
ATOM     28  N   UNL     1      47.963   6.239  20.949  0.00  0.00    +0.000 NA
ATOM     29  C   UNL     1      47.524   7.443  21.097  0.00  0.00    +0.000 A 
ATOM     30  N   UNL     1      47.438   8.368  20.084  0.00  0.00    +0.000 N 
ATOM     31  C   UNL     1      47.830   8.112  18.799  0.00  0.00    +0.000 A 
ATOM     32  O   UNL     1      47.779   8.973  17.931  0.00  0.00    +0.000 OA
ATOM     33  C   UNL     1      48.322   6.760  18.577  0.00  0.00    +0.000 A 
ATOM     34  H   UNL     1      47.087   9.300  20.268  0.00  0.00    +0.000 HD
ENDBRANCH  21  24
ENDBRANCH  19  20
ENDBRANCH   4  19
TORSDOF 8
ENDMDL
MODEL 3
REMARK VINA RESULT:    -7.931      4.232     10.325
REMARK INTER + INTRA:         -12.678
REMARK INTER:                  -9.785
REMARK INTRA:                  -2.892
REMARK UNBOUND:                -1.038
REMARK  Name = 
REMARK  9 active torsions:
REMARK  status: ('A' for Active; 'I' for Inactive)
REMARK    1  A    between atoms: C_1  and  C_2
REMARK    2  A    between atoms: C_2  and  C_3
REMARK    3  A    between atoms: C_2  and  N_10
REMARK    4  A    between atoms: C_3  and  C_4
REMARK    5  A    between atoms: N_10  and  C_11
REMARK    6  A    between atoms: C_11  and  C_12
REMARK    7  A    between atoms: C_15  and  C_16
REMARK    8  A    between atoms: C_16  and  N_17
REMARK    9  A    between atoms: C_18  and  C_20
REMARK                            x       y       z     vdW  Elec       q    Type
REMARK                         _______ _______ _______ _____ _____    ______ ____
ROOT
ATOM      1  C   UNL     1      51.470   4.560  17.677  0.00  0.00    +0.000 A 
ATOM      2  C   UNL     1      51.039   3.229  17.730  0.00  0.00    +0.000 A 
ATOM      3  C   UNL     1      49.735   2.892  17.374  0.00  0.00    +0.000 A 
ATOM      4  C   UNL     1      48.836   3.883  16.962  0.00  0.00    +0.000 A 
ATOM      5  C   UNL     1      49.260   5.217  16.924  0.00  0.00    +0.000 A 
ATOM      6  C   UNL     1      50.567   5.552  17.268  0.00  0.00    +0.000 A 
ENDROOT
BRANCH   1   7
ATOM      7  C   UNL     1      52.866   4.930  18.105  0.00  0.00    +0.000 C 
BRANCH   7   8
ATOM      8  N   UNL     1      53.194   4.392  19.428  0.00  0.00    +0.000 NA
ATOM      9  H   UNL     1      52.674   3.530  19.575  0.00  0.00    +0.000 HD
BRANCH   8  11
ATOM     10  C   UNL     1      54.123   5.561  21.393  0.00  0.00    +0.000 C 
ATOM     11  C   UNL     1      52.883   5.338  20.515  0.00  0.00    +0.000 C 
BRANCH  11  12
ATOM     12  C   UNL     1      51.688   4.799  21.346  0.00  0.00    +0.000 C 
BRANCH  12  13
ATOM     13  C   UNL     1      50.369   5.457  20.992  0.00  0.00    +0.000 A 
ATOM     14  C   UNL     1      49.196   4.699  20.865  0.00  0.00    +0.000 A 
ATOM     15  C   UNL     1      48.014   5.292  20.416  0.00  0.00    +0.000 A 
ATOM     16  C   UNL     1      47.985   6.653  20.119  0.00  0.00    +0.000 A 
ATOM     17  C   UNL     1      49.132   7.425  20.284  0.00  0.00    +0.000 A 
ATOM     18  C   UNL     1      50.319   6.831  20.718  0.00  0.00    +0.000 A 
ENDBRANCH  12  13
ENDBRANCH  11  12
ENDBRANCH   8  11
ENDBRANCH   7   8
ENDBRANCH   1   7
BRANCH   4  19
ATOM     19  C   UNL     1      47.412   3.538  16.625  0.00  0.00    +0.000 C 
BRANCH  19  20
ATOM     20  N   UNL     1      46.874   4.488  15.687  0.00  0.00    +0.000 N 
ATOM     21  C   UNL     1      46.814   4.210  14.349  0.00  0.00    +0.000 C 
ATOM     22  O   UNL     1      47.198   3.141  13.883  0.00  0.00    +0.000 OA
ATOM     23  H   UNL     1      46.806   5.452  15.998  0.00  0.00    +0.000 HD
BRANCH  21  24
ATOM     24  C   UNL     1      46.199   5.238  13.504  0.00  0.00    +0.000 A 
ATOM     25  C   UNL     1      46.870   6.429  13.267  0.00  0.00    +0.000 A 
ATOM     26  S   UNL     1      46.035   7.487  12.221  0.00  0.00    +0.000 S 
ATOM     27  C   UNL     1      44.725   6.409  12.086  0.00  0.00    +0.000 A 
ATOM     28  N   UNL     1      43.631   6.725  11.342  0.00  0.00    +0.000 NA
ATOM     29  C   UNL     1      42.704   5.828  11.344  0.00  0.00    +0.000 A 
ATOM     30  N   UNL     1      42.777   4.636  12.024  0.00  0.00    +0.000 N 
ATOM     31  C   UNL     1      43.863   4.263  12.768  0.00  0.00    +0.000 A 
ATOM     32  O   UNL     1      43.911   3.175  13.327  0.00  0.00    +0.000 OA
ATOM     33  C   UNL     1      44.933   5.249  12.810  0.00  0.00    +0.000 A 
ATOM     34  H   UNL     1      42.014   3.971  11.980  0.00  0.00    +0.000 HD
ENDBRANCH  21  24
ENDBRANCH  19  20
ENDBRANCH   4  19
TORSDOF 8
ENDMDL
MODEL 4
REMARK VINA RESULT:    -7.916      4.208      9.590
REMARK INTER + INTRA:         -12.656
REMARK INTER:                  -9.356
REMARK INTRA:                  -3.300
REMARK UNBOUND:                -1.038
REMARK  Name = 
REMARK  9 active torsions:
REMARK  status: ('A' for Active; 'I' for Inactive)
REMARK    1  A    between atoms: C_1  and  C_2
REMARK    2  A    between atoms: C_2  and  C_3
REMARK    3  A    between atoms: C_2  and  N_10
REMARK    4  A    between atoms: C_3  and  C_4
REMARK    5  A    between atoms: N_10  and  C_11
REMARK    6  A    between atoms: C_11  and  C_12
REMARK    7  A    between atoms: C_15  and  C_16
REMARK    8  A    between atoms: C_16  and  N_17
REMARK    9  A    between atoms: C_18  and  C_20
REMARK                            x       y       z     vdW  Elec       q    Type
REMARK                         _______ _______ _______ _____ _____    ______ ____
ROOT
ATOM      1  C   UNL     1      48.460   5.603  20.263  0.00  0.00    +0.000 A 
ATOM      2  C   UNL     1      47.315   5.980  19.550  0.00  0.00    +0.000 A 
ATOM      3  C   UNL     1      46.966   5.323  18.372  0.00  0.00    +0.000 A 
ATOM      4  C   UNL     1      47.760   4.278  17.884  0.00  0.00    +0.000 A 
ATOM      5  C   UNL     1      48.913   3.909  18.587  0.00  0.00    +0.000 A 
ATOM      6  C   UNL     1      49.256   4.559  19.771  0.00  0.00    +0.000 A 
ENDROOT
BRANCH   1   7
ATOM      7  C   UNL     1      48.861   6.344  21.512  0.00  0.00    +0.000 C 
BRANCH   7   8
ATOM      8  N   UNL     1      49.170   7.750  21.240  0.00  0.00    +0.000 NA
ATOM      9  H   UNL     1      48.519   8.104  20.541  0.00  0.00    +0.000 HD
BRANCH   8  11
ATOM     10  C   UNL     1      51.408   8.578  21.864  0.00  0.00    +0.000 C 
ATOM     11  C   UNL     1      50.550   7.943  20.761  0.00  0.00    +0.000 C 
BRANCH  11  12
ATOM     12  C   UNL     1      50.537   8.816  19.478  0.00  0.00    +0.000 C 
BRANCH  12  13
ATOM     13  C   UNL     1      50.206   8.031  18.224  0.00  0.00    +0.000 A 
ATOM     14  C   UNL     1      51.049   7.005  17.771  0.00  0.00    +0.000 A 
ATOM     15  C   UNL     1      50.803   6.374  16.550  0.00  0.00    +0.000 A 
ATOM     16  C   UNL     1      49.696   6.738  15.785  0.00  0.00    +0.000 A 
ATOM     17  C   UNL     1      48.828   7.724  16.247  0.00  0.00    +0.000 A 
ATOM     18  C   UNL     1      49.080   8.368  17.460  0.00  0.00    +0.000 A 
ENDBRANCH  12  13
ENDBRANCH  11  12
ENDBRANCH   8  11
ENDBRANCH   7   8
ENDBRANCH   1   7
BRANCH   4  19
ATOM     19  C   UNL     1      47.421   3.595  16.588  0.00  0.00    +0.000 C 
BRANCH  19  20
ATOM     20  N   UNL     1      46.859   4.538  15.656  0.00  0.00    +0.000 N 
ATOM     21  C   UNL     1      46.802   4.266  14.317  0.00  0.00    +0.000 C 
ATOM     22  O   UNL     1      47.208   3.208  13.844  0.00  0.00    +0.000 OA
ATOM     23  H   UNL     1      46.771   5.498  15.973  0.00  0.00    +0.000 HD
BRANCH  21  24
ATOM     24  C   UNL     1      46.162   5.284  13.479  0.00  0.00    +0.000 A 
ATOM     25  C   UNL     1      46.812   6.485  13.234  0.00  0.00    +0.000 A 
ATOM     26  S   UNL     1      45.949   7.530  12.198  0.00  0.00    +0.000 S 
ATOM     27  C   UNL     1      44.655   6.432  12.078  0.00  0.00    +0.000 A 
ATOM     28  N   UNL     1      43.547   6.732  11.347  0.00  0.00    +0.000 NA
ATOM     29  C   UNL     1      42.634   5.821  11.359  0.00  0.00    +0.000 A 
ATOM     30  N   UNL     1      42.733   4.630  12.038  0.00  0.00    +0.000 N 
ATOM     31  C   UNL     1      43.832   4.274  12.770  0.00  0.00    +0.000 A 
ATOM     32  O   UNL     1      43.904   3.187  13.329  0.00  0.00    +0.000 OA
ATOM     33  C   UNL     1      44.888   5.276  12.799  0.00  0.00    +0.000 A 
ATOM     34  H   UNL     1      41.979   3.954  12.003  0.00  0.00    +0.000 HD
ENDBRANCH  21  24
ENDBRANCH  19  20
ENDBRANCH   4  19
TORSDOF 8
ENDMDL
MODEL 5
REMARK VINA RESULT:    -7.873      2.502      3.300
REMARK INTER + INTRA:         -12.592
REMARK INTER:                 -11.493
REMARK INTRA:                  -1.099
REMARK UNBOUND:                -1.038
REMARK  Name = 
REMARK  9 active torsions:
REMARK  status: ('A' for Active; 'I' for Inactive)
REMARK    1  A    between atoms: C_1  and  C_2
REMARK    2  A    between atoms: C_2  and  C_3
REMARK    3  A    between atoms: C_2  and  N_10
REMARK    4  A    between atoms: C_3  and  C_4
REMARK    5  A    between atoms: N_10  and  C_11
REMARK    6  A    between atoms: C_11  and  C_12
REMARK    7  A    between atoms: C_15  and  C_16
REMARK    8  A    between atoms: C_16  and  N_17
REMARK    9  A    between atoms: C_18  and  C_20
REMARK                            x       y       z     vdW  Elec       q    Type
REMARK                         _______ _______ _______ _____ _____    ______ ____
ROOT
ATOM      1  C   UNL     1      46.542   4.945  13.389  0.00  0.00    +0.000 A 
ATOM      2  C   UNL     1      47.206   6.122  13.021  0.00  0.00    +0.000 A 
ATOM      3  C   UNL     1      48.083   6.747  13.905  0.00  0.00    +0.000 A 
ATOM      4  C   UNL     1      48.308   6.207  15.177  0.00  0.00    +0.000 A 
ATOM      5  C   UNL     1      47.634   5.039  15.553  0.00  0.00    +0.000 A 
ATOM      6  C   UNL     1      46.766   4.408  14.665  0.00  0.00    +0.000 A 
ENDROOT
BRANCH   1   7
ATOM      7  C   UNL     1      45.560   4.296  12.450  0.00  0.00    +0.000 C 
BRANCH   7   8
ATOM      8  N   UNL     1      45.344   5.097  11.242  0.00  0.00    +0.000 NA
ATOM      9  H   UNL     1      45.276   6.079  11.502  0.00  0.00    +0.000 HD
BRANCH   8  11
ATOM     10  C   UNL     1      42.885   4.948  11.381  0.00  0.00    +0.000 C 
ATOM     11  C   UNL     1      44.127   4.702  10.512  0.00  0.00    +0.000 C 
BRANCH  11  12
ATOM     12  C   UNL     1      44.237   3.213  10.087  0.00  0.00    +0.000 C 
BRANCH  12  13
ATOM     13  C   UNL     1      45.241   2.982   8.975  0.00  0.00    +0.000 A 
ATOM     14  C   UNL     1      45.624   4.025   8.119  0.00  0.00    +0.000 A 
ATOM     15  C   UNL     1      46.450   3.775   7.022  0.00  0.00    +0.000 A 
ATOM     16  C   UNL     1      46.928   2.487   6.786  0.00  0.00    +0.000 A 
ATOM     17  C   UNL     1      46.591   1.452   7.655  0.00  0.00    +0.000 A 
ATOM     18  C   UNL     1      45.751   1.697   8.744  0.00  0.00    +0.000 A 
ENDBRANCH  12  13
ENDBRANCH  11  12
ENDBRANCH   8  11
ENDBRANCH   7   8
ENDBRANCH   1   7
BRANCH   4  19
ATOM     19  C   UNL     1      49.213   6.900  16.157  0.00  0.00    +0.000 C 
BRANCH  19  20
ATOM     20  N   UNL     1      50.248   6.006  16.605  0.00  0.00    +0.000 N 
ATOM     21  C   UNL     1      50.413   5.716  17.931  0.00  0.00    +0.000 C 
ATOM     22  O   UNL     1      49.685   6.186  18.801  0.00  0.00    +0.000 OA
ATOM     23  H   UNL     1      51.009   5.825  15.958  0.00  0.00    +0.000 HD
BRANCH  21  24
ATOM     24  C   UNL     1      51.470   4.753  18.254  0.00  0.00    +0.000 A 
ATOM     25  C   UNL     1      52.593   5.169  18.955  0.00  0.00    +0.000 A 
ATOM     26  S   UNL     1      53.693   3.910  19.292  0.00  0.00    +0.000 S 
ATOM     27  C   UNL     1      52.728   2.773  18.471  0.00  0.00    +0.000 A 
ATOM     28  N   UNL     1      53.120   1.475  18.356  0.00  0.00    +0.000 NA
ATOM     29  C   UNL     1      52.306   0.726  17.692  0.00  0.00    +0.000 A 
ATOM     30  N   UNL     1      51.129   1.162  17.133  0.00  0.00    +0.000 N 
ATOM     31  C   UNL     1      50.682   2.451  17.238  0.00  0.00    +0.000 A 
ATOM     32  O   UNL     1      49.607   2.796  16.764  0.00  0.00    +0.000 OA
ATOM     33  C   UNL     1      51.573   3.341  17.968  0.00  0.00    +0.000 A 
ATOM     34  H   UNL     1      50.531   0.520  16.627  0.00  0.00    +0.000 HD
ENDBRANCH  21  24
ENDBRANCH  19  20
ENDBRANCH   4  19
TORSDOF 8
ENDMDL
MODEL 6
REMARK VINA RESULT:    -7.812      2.235      3.678
REMARK INTER + INTRA:         -12.503
REMARK INTER:                 -11.635
REMARK INTRA:                  -0.868
REMARK UNBOUND:                -1.038
REMARK  Name = 
REMARK  9 active torsions:
REMARK  status: ('A' for Active; 'I' for Inactive)
REMARK    1  A    between atoms: C_1  and  C_2
REMARK    2  A    between atoms: C_2  and  C_3
REMARK    3  A    between atoms: C_2  and  N_10
REMARK    4  A    between atoms: C_3  and  C_4
REMARK    5  A    between atoms: N_10  and  C_11
REMARK    6  A    between atoms: C_11  and  C_12
REMARK    7  A    between atoms: C_15  and  C_16
REMARK    8  A    between atoms: C_16  and  N_17
REMARK    9  A    between atoms: C_18  and  C_20
REMARK                            x       y       z     vdW  Elec       q    Type
REMARK                         _______ _______ _______ _____ _____    ______ ____
ROOT
ATOM      1  C   UNL     1      45.429   3.948   8.596  0.00  0.00    +0.000 A 
ATOM      2  C   UNL     1      44.576   3.111   9.327  0.00  0.00    +0.000 A 
ATOM      3  C   UNL     1      44.136   3.482  10.596  0.00  0.00    +0.000 A 
ATOM      4  C   UNL     1      44.545   4.698  11.159  0.00  0.00    +0.000 A 
ATOM      5  C   UNL     1      45.410   5.529  10.436  0.00  0.00    +0.000 A 
ATOM      6  C   UNL     1      45.840   5.163   9.163  0.00  0.00    +0.000 A 
ENDROOT
BRANCH   1   7
ATOM      7  C   UNL     1      45.940   3.526   7.244  0.00  0.00    +0.000 C 
BRANCH   7   8
ATOM      8  N   UNL     1      46.152   2.078   7.166  0.00  0.00    +0.000 NA
ATOM      9  H   UNL     1      46.396   1.728   8.090  0.00  0.00    +0.000 HD
BRANCH   8  11
ATOM     10  C   UNL     1      48.523   2.429   6.576  0.00  0.00    +0.000 C 
ATOM     11  C   UNL     1      47.214   1.713   6.211  0.00  0.00    +0.000 C 
BRANCH  11  12
ATOM     12  C   UNL     1      46.758   2.064   4.769  0.00  0.00    +0.000 C 
BRANCH  12  13
ATOM     13  C   UNL     1      46.528   0.842   3.902  0.00  0.00    +0.000 A 
ATOM     14  C   UNL     1      45.722   0.912   2.756  0.00  0.00    +0.000 A 
ATOM     15  C   UNL     1      45.413  -0.244   2.035  0.00  0.00    +0.000 A 
ATOM     16  C   UNL     1      45.932  -1.475   2.433  0.00  0.00    +0.000 A 
ATOM     17  C   UNL     1      46.770  -1.549   3.543  0.00  0.00    +0.000 A 
ATOM     18  C   UNL     1      47.067  -0.397   4.275  0.00  0.00    +0.000 A 
ENDBRANCH  12  13
ENDBRANCH  11  12
ENDBRANCH   8  11
ENDBRANCH   7   8
ENDBRANCH   1   7
BRANCH   4  19
ATOM     19  C   UNL     1      44.117   5.084  12.547  0.00  0.00    +0.000 C 
BRANCH  19  20
ATOM     20  N   UNL     1      45.234   5.607  13.289  0.00  0.00    +0.000 N 
ATOM     21  C   UNL     1      46.152   4.777  13.871  0.00  0.00    +0.000 C 
ATOM     22  O   UNL     1      46.083   3.554  13.780  0.00  0.00    +0.000 OA
ATOM     23  H   UNL     1      45.167   6.570  13.602  0.00  0.00    +0.000 HD
BRANCH  21  24
ATOM     24  C   UNL     1      47.271   5.432  14.556  0.00  0.00    +0.000 A 
ATOM     25  C   UNL     1      47.971   6.446  13.919  0.00  0.00    +0.000 A 
ATOM     26  S   UNL     1      49.203   7.133  14.879  0.00  0.00    +0.000 S 
ATOM     27  C   UNL     1      48.872   6.067  16.164  0.00  0.00    +0.000 A 
ATOM     28  N   UNL     1      49.605   6.101  17.309  0.00  0.00    +0.000 NA
ATOM     29  C   UNL     1      49.263   5.225  18.192  0.00  0.00    +0.000 A 
ATOM     30  N   UNL     1      48.245   4.315  18.030  0.00  0.00    +0.000 N 
ATOM     31  C   UNL     1      47.467   4.254  16.907  0.00  0.00    +0.000 A 
ATOM     32  O   UNL     1      46.541   3.458  16.813  0.00  0.00    +0.000 OA
ATOM     33  C   UNL     1      47.823   5.215  15.873  0.00  0.00    +0.000 A 
ATOM     34  H   UNL     1      48.024   3.655  18.766  0.00  0.00    +0.000 HD
ENDBRANCH  21  24
ENDBRANCH  19  20
ENDBRANCH   4  19
TORSDOF 8
ENDMDL
MODEL 7
REMARK VINA RESULT:    -7.493      3.957      9.660
REMARK INTER + INTRA:         -12.035
REMARK INTER:                  -8.762
REMARK INTRA:                  -3.273
REMARK UNBOUND:                -1.038
REMARK  Name = 
REMARK  9 active torsions:
REMARK  status: ('A' for Active; 'I' for Inactive)
REMARK    1  A    between atoms: C_1  and  C_2
REMARK    2  A    between atoms: C_2  and  C_3
REMARK    3  A    between atoms: C_2  and  N_10
REMARK    4  A    between atoms: C_3  and  C_4
REMARK    5  A    between atoms: N_10  and  C_11
REMARK    6  A    between atoms: C_11  and  C_12
REMARK    7  A    between atoms: C_15  and  C_16
REMARK    8  A    between atoms: C_16  and  N_17
REMARK    9  A    between atoms: C_18  and  C_20
REMARK                            x       y       z     vdW  Elec       q    Type
REMARK                         _______ _______ _______ _____ _____    ______ ____
ROOT
ATOM      1  C   UNL     1      49.925   4.932  17.529  0.00  0.00    +0.000 A 
ATOM      2  C   UNL     1      50.736   5.955  17.021  0.00  0.00    +0.000 A 
ATOM      3  C   UNL     1      50.251   6.823  16.043  0.00  0.00    +0.000 A 
ATOM      4  C   UNL     1      48.947   6.679  15.554  0.00  0.00    +0.000 A 
ATOM      5  C   UNL     1      48.141   5.647  16.050  0.00  0.00    +0.000 A 
ATOM      6  C   UNL     1      48.621   4.787  17.035  0.00  0.00    +0.000 A 
ENDROOT
BRANCH   1   7
ATOM      7  C   UNL     1      50.465   3.968  18.552  0.00  0.00    +0.000 C 
BRANCH   7   8
ATOM      8  N   UNL     1      49.897   4.206  19.882  0.00  0.00    +0.000 NA
ATOM      9  H   UNL     1      48.897   4.372  19.792  0.00  0.00    +0.000 HD
BRANCH   8  11
ATOM     10  C   UNL     1      51.447   4.862  21.687  0.00  0.00    +0.000 C 
ATOM     11  C   UNL     1      50.521   5.353  20.566  0.00  0.00    +0.000 C 
BRANCH  11  12
ATOM     12  C   UNL     1      49.415   6.295  21.113  0.00  0.00    +0.000 C 
BRANCH  12  13
ATOM     13  C   UNL     1      49.037   7.399  20.145  0.00  0.00    +0.000 A 
ATOM     14  C   UNL     1      47.761   7.442  19.564  0.00  0.00    +0.000 A 
ATOM     15  C   UNL     1      47.464   8.387  18.580  0.00  0.00    +0.000 A 
ATOM     16  C   UNL     1      48.426   9.317  18.189  0.00  0.00    +0.000 A 
ATOM     17  C   UNL     1      49.681   9.311  18.793  0.00  0.00    +0.000 A 
ATOM     18  C   UNL     1      49.986   8.357  19.765  0.00  0.00    +0.000 A 
ENDBRANCH  12  13
ENDBRANCH  11  12
ENDBRANCH   8  11
ENDBRANCH   7   8
ENDBRANCH   1   7
BRANCH   4  19
ATOM     19  C   UNL     1      48.432   7.576  14.464  0.00  0.00    +0.000 C 
BRANCH  19  20
ATOM     20  N   UNL     1      47.180   7.081  13.955  0.00  0.00    +0.000 N 
ATOM     21  C   UNL     1      46.895   7.108  12.618  0.00  0.00    +0.000 C 
ATOM     22  O   UNL     1      47.690   7.538  11.786  0.00  0.00    +0.000 OA
ATOM     23  H   UNL     1      46.422   6.978  14.623  0.00  0.00    +0.000 HD
BRANCH  21  24
ATOM     24  C   UNL     1      45.609   6.529  12.221  0.00  0.00    +0.000 A 
ATOM     25  C   UNL     1      44.632   7.337  11.655  0.00  0.00    +0.000 A 
ATOM     26  S   UNL     1      43.222   6.490  11.204  0.00  0.00    +0.000 S 
ATOM     27  C   UNL     1      43.849   5.021  11.791  0.00  0.00    +0.000 A 
ATOM     28  N   UNL     1      43.117   3.876  11.738  0.00  0.00    +0.000 NA
ATOM     29  C   UNL     1      43.704   2.840  12.236  0.00  0.00    +0.000 A 
ATOM     30  N   UNL     1      44.965   2.850  12.783  0.00  0.00    +0.000 N 
ATOM     31  C   UNL     1      45.748   3.970  12.841  0.00  0.00    +0.000 A 
ATOM     32  O   UNL     1      46.884   3.933  13.296  0.00  0.00    +0.000 OA
ATOM     33  C   UNL     1      45.125   5.170  12.303  0.00  0.00    +0.000 A 
ATOM     34  H   UNL     1      45.371   1.999  13.154  0.00  0.00    +0.000 HD
ENDBRANCH  21  24
ENDBRANCH  19  20
ENDBRANCH   4  19
TORSDOF 8
ENDMDL
MODEL 8
REMARK VINA RESULT:    -7.481      3.933      9.681
REMARK INTER + INTRA:         -12.017
REMARK INTER:                  -8.921
REMARK INTRA:                  -3.096
REMARK UNBOUND:                -1.038
REMARK  Name = 
REMARK  9 active torsions:
REMARK  status: ('A' for Active; 'I' for Inactive)
REMARK    1  A    between atoms: C_1  and  C_2
REMARK    2  A    between atoms: C_2  and  C_3
REMARK    3  A    between atoms: C_2  and  N_10
REMARK    4  A    between atoms: C_3  and  C_4
REMARK    5  A    between atoms: N_10  and  C_11
REMARK    6  A    between atoms: C_11  and  C_12
REMARK    7  A    between atoms: C_15  and  C_16
REMARK    8  A    between atoms: C_16  and  N_17
REMARK    9  A    between atoms: C_18  and  C_20
REMARK                            x       y       z     vdW  Elec       q    Type
REMARK                         _______ _______ _______ _____ _____    ______ ____
ROOT
ATOM      1  C   UNL     1      48.871   9.689  18.861  0.00  0.00    +0.000 A 
ATOM      2  C   UNL     1      50.011   8.877  18.797  0.00  0.00    +0.000 A 
ATOM      3  C   UNL     1      50.206   8.014  17.720  0.00  0.00    +0.000 A 
ATOM      4  C   UNL     1      49.261   7.946  16.689  0.00  0.00    +0.000 A 
ATOM      5  C   UNL     1      48.114   8.746  16.759  0.00  0.00    +0.000 A 
ATOM      6  C   UNL     1      47.925   9.616  17.830  0.00  0.00    +0.000 A 
ENDROOT
BRANCH   1   7
ATOM      7  C   UNL     1      48.639  10.587  20.048  0.00  0.00    +0.000 C 
BRANCH   7   8
ATOM      8  N   UNL     1      48.456   9.824  21.285  0.00  0.00    +0.000 NA
ATOM      9  H   UNL     1      49.210   9.146  21.372  0.00  0.00    +0.000 HD
BRANCH   8  11
ATOM     10  C   UNL     1      46.176   9.884  22.227  0.00  0.00    +0.000 C 
ATOM     11  C   UNL     1      47.161   9.121  21.329  0.00  0.00    +0.000 C 
BRANCH  11  12
ATOM     12  C   UNL     1      47.377   7.667  21.828  0.00  0.00    +0.000 C 
BRANCH  12  13
ATOM     13  C   UNL     1      47.840   6.724  20.736  0.00  0.00    +0.000 A 
ATOM     14  C   UNL     1      47.043   6.478  19.608  0.00  0.00    +0.000 A 
ATOM     15  C   UNL     1      47.419   5.514  18.671  0.00  0.00    +0.000 A 
ATOM     16  C   UNL     1      48.609   4.808  18.834  0.00  0.00    +0.000 A 
ATOM     17  C   UNL     1      49.431   5.076  19.927  0.00  0.00    +0.000 A 
ATOM     18  C   UNL     1      49.049   6.028  20.873  0.00  0.00    +0.000 A 
ENDBRANCH  12  13
ENDBRANCH  11  12
ENDBRANCH   8  11
ENDBRANCH   7   8
ENDBRANCH   1   7
BRANCH   4  19
ATOM     19  C   UNL     1      49.437   6.983  15.548  0.00  0.00    +0.000 C 
BRANCH  19  20
ATOM     20  N   UNL     1      48.194   6.809  14.842  0.00  0.00    +0.000 N 
ATOM     21  C   UNL     1      48.169   6.553  13.499  0.00  0.00    +0.000 C 
ATOM     22  O   UNL     1      49.195   6.442  12.832  0.00  0.00    +0.000 OA
ATOM     23  H   UNL     1      47.356   7.155  15.298  0.00  0.00    +0.000 HD
BRANCH  21  24
ATOM     24  C   UNL     1      46.844   6.346  12.907  0.00  0.00    +0.000 A 
ATOM     25  C   UNL     1      46.143   7.426  12.390  0.00  0.00    +0.000 A 
ATOM     26  S   UNL     1      44.646   6.998  11.693  0.00  0.00    +0.000 S 
ATOM     27  C   UNL     1      44.863   5.359  12.098  0.00  0.00    +0.000 A 
ATOM     28  N   UNL     1      43.911   4.432  11.806  0.00  0.00    +0.000 NA
ATOM     29  C   UNL     1      44.193   3.233  12.187  0.00  0.00    +0.000 A 
ATOM     30  N   UNL     1      45.352   2.877  12.836  0.00  0.00    +0.000 N 
ATOM     31  C   UNL     1      46.347   3.767  13.134  0.00  0.00    +0.000 A 
ATOM     32  O   UNL     1      47.385   3.407  13.676  0.00  0.00    +0.000 OA
ATOM     33  C   UNL     1      46.070   5.138  12.736  0.00  0.00    +0.000 A 
ATOM     34  H   UNL     1      45.515   1.914  13.105  0.00  0.00    +0.000 HD
ENDBRANCH  21  24
ENDBRANCH  19  20
ENDBRANCH   4  19
TORSDOF 8
ENDMDL
MODEL 9
REMARK VINA RESULT:    -7.394      4.013      8.828
REMARK INTER + INTRA:         -11.890
REMARK INTER:                  -8.746
REMARK INTRA:                  -3.145
REMARK UNBOUND:                -1.038
REMARK  Name = 
REMARK  9 active torsions:
REMARK  status: ('A' for Active; 'I' for Inactive)
REMARK    1  A    between atoms: C_1  and  C_2
REMARK    2  A    between atoms: C_2  and  C_3
REMARK    3  A    between atoms: C_2  and  N_10
REMARK    4  A    between atoms: C_3  and  C_4
REMARK    5  A    between atoms: N_10  and  C_11
REMARK    6  A    between atoms: C_11  and  C_12
REMARK    7  A    between atoms: C_15  and  C_16
REMARK    8  A    between atoms: C_16  and  N_17
REMARK    9  A    between atoms: C_18  and  C_20
REMARK                            x       y       z     vdW  Elec       q    Type
REMARK                         _______ _______ _______ _____ _____    ______ ____
ROOT
ATOM      1  C   UNL     1      49.505   7.737  18.170  0.00  0.00    +0.000 A 
ATOM      2  C   UNL     1      48.531   8.394  17.407  0.00  0.00    +0.000 A 
ATOM      3  C   UNL     1      48.394   8.121  16.048  0.00  0.00    +0.000 A 
ATOM      4  C   UNL     1      49.232   7.187  15.426  0.00  0.00    +0.000 A 
ATOM      5  C   UNL     1      50.216   6.541  16.184  0.00  0.00    +0.000 A 
ATOM      6  C   UNL     1      50.346   6.806  17.545  0.00  0.00    +0.000 A 
ENDROOT
BRANCH   1   7
ATOM      7  C   UNL     1      49.682   8.066  19.629  0.00  0.00    +0.000 C 
BRANCH   7   8
ATOM      8  N   UNL     1      49.738   6.859  20.460  0.00  0.00    +0.000 NA
ATOM      9  H   UNL     1      50.438   6.226  20.080  0.00  0.00    +0.000 HD
BRANCH   8  11
ATOM     10  C   UNL     1      47.747   6.475  21.867  0.00  0.00    +0.000 C 
ATOM     11  C   UNL     1      48.440   6.164  20.533  0.00  0.00    +0.000 C 
BRANCH  11  12
ATOM     12  C   UNL     1      48.659   4.638  20.348  0.00  0.00    +0.000 C 
BRANCH  12  13
ATOM     13  C   UNL     1      48.364   4.158  18.940  0.00  0.00    +0.000 A 
ATOM     14  C   UNL     1      49.155   3.171  18.334  0.00  0.00    +0.000 A 
ATOM     15  C   UNL     1      48.955   2.827  16.995  0.00  0.00    +0.000 A 
ATOM     16  C   UNL     1      47.945   3.442  16.259  0.00  0.00    +0.000 A 
ATOM     17  C   UNL     1      47.124   4.391  16.864  0.00  0.00    +0.000 A 
ATOM     18  C   UNL     1      47.332   4.748  18.197  0.00  0.00    +0.000 A 
ENDBRANCH  12  13
ENDBRANCH  11  12
ENDBRANCH   8  11
ENDBRANCH   7   8
ENDBRANCH   1   7
BRANCH   4  19
ATOM     19  C   UNL     1      49.126   6.922  13.950  0.00  0.00    +0.000 C 
BRANCH  19  20
ATOM     20  N   UNL     1      47.772   6.591  13.595  0.00  0.00    +0.000 N 
ATOM     21  C   UNL     1      47.298   6.795  12.328  0.00  0.00    +0.000 C 
ATOM     22  O   UNL     1      48.000   7.253  11.431  0.00  0.00    +0.000 OA
ATOM     23  H   UNL     1      47.113   6.472  14.359  0.00  0.00    +0.000 HD
BRANCH  21  24
ATOM     24  C   UNL     1      45.917   6.370  12.080  0.00  0.00    +0.000 A 
ATOM     25  C   UNL     1      44.982   7.290  11.629  0.00  0.00    +0.000 A 
ATOM     26  S   UNL     1      43.442   6.615  11.341  0.00  0.00    +0.000 S 
ATOM     27  C   UNL     1      43.960   5.077  11.854  0.00  0.00    +0.000 A 
ATOM     28  N   UNL     1      43.101   4.022  11.885  0.00  0.00    +0.000 NA
ATOM     29  C   UNL     1      43.618   2.921  12.314  0.00  0.00    +0.000 A 
ATOM     30  N   UNL     1      44.926   2.781  12.714  0.00  0.00    +0.000 N 
ATOM     31  C   UNL     1      45.833   3.804  12.682  0.00  0.00    +0.000 A 
ATOM     32  O   UNL     1      47.001   3.634  13.006  0.00  0.00    +0.000 OA
ATOM     33  C   UNL     1      45.294   5.074  12.217  0.00  0.00    +0.000 A 
ATOM     34  H   UNL     1      45.271   1.885  13.037  0.00  0.00    +0.000 HD
ENDBRANCH  21  24
ENDBRANCH  19  20
ENDBRANCH   4  19
TORSDOF 8
ENDMDL
