MODEL 1
REMARK VINA RESULT:    -8.568      0.000      0.000
REMARK INTER + INTRA:         -12.694
REMARK INTER:                 -11.573
REMARK INTRA:                  -1.121
REMARK UNBOUND:                -1.121
REMARK  Name = 
REMARK  6 active torsions:
REMARK  status: ('A' for Active; 'I' for Inactive)
REMARK    1  A    between atoms: C_2  and  C_4
REMARK    2  A    between atoms: C_7  and  N_8
REMARK    3  A    between atoms: N_8  and  C_9
REMARK    4  A    between atoms: C_9  and  C_10
REMARK    5  A    between atoms: C_10  and  C_13
REMARK    6  A    between atoms: C_17  and  C_18
REMARK                            x       y       z     vdW  Elec       q    Type
REMARK                         _______ _______ _______ _____ _____    ______ ____
ROOT
ATOM      1  C   UNL     1      43.394   5.626  12.036  0.00  0.00    +0.000 C 
ATOM      2  F   UNL     1      43.015   6.833  11.504  0.00  0.00    +0.000 F 
ATOM      3  F   UNL     1      42.486   5.382  13.030  0.00  0.00    +0.000 F 
ENDROOT
BRANCH   1   4
ATOM      4  C   UNL     1      44.811   5.661  12.566  0.00  0.00    +0.000 A 
ATOM      5  C   UNL     1      45.327   4.579  13.287  0.00  0.00    +0.000 A 
ATOM      6  C   UNL     1      46.640   4.610  13.748  0.00  0.00    +0.000 A 
ATOM      7  C   UNL     1      47.454   5.713  13.475  0.00  0.00    +0.000 A 
ATOM      8  C   UNL     1      46.983   6.806  12.724  0.00  0.00    +0.000 A 
ATOM      9  C   UNL     1      45.640   6.767  12.304  0.00  0.00    +0.000 A 
BRANCH   8  10
ATOM     10  C   UNL     1      47.882   7.911  12.312  0.00  0.00    +0.000 A 
ATOM     11  C   UNL     1      49.207   7.650  11.911  0.00  0.00    +0.000 A 
ATOM     12  C   UNL     1      50.039   8.662  11.424  0.00  0.00    +0.000 A 
ATOM     13  C   UNL     1      49.562   9.963  11.319  0.00  0.00    +0.000 A 
ATOM     14  C   UNL     1      48.264  10.256  11.726  0.00  0.00    +0.000 A 
ATOM     15  C   UNL     1      47.438   9.244  12.228  0.00  0.00    +0.000 A 
ENDBRANCH   8  10
ENDBRANCH   1   4
BRANCH   1  16
ATOM     16  C   UNL     1      43.224   4.554  10.927  0.00  0.00    +0.000 C 
BRANCH  16  17
ATOM     17  N   UNL     1      43.888   4.964   9.671  0.00  0.00    +0.000 N 
ATOM     18  H   UNL     1      44.398   5.838   9.779  0.00  0.00    +0.000 HD
BRANCH  17  22
ATOM     19  C   UNL     1      46.234   2.029   8.014  0.00  0.00    +0.000 A 
ATOM     20  C   UNL     1      46.245   3.316   7.498  0.00  0.00    +0.000 A 
ATOM     21  N   UNL     1      45.472   4.316   8.005  0.00  0.00    +0.000 NA
ATOM     22  C   UNL     1      44.677   3.993   9.046  0.00  0.00    +0.000 A 
ATOM     23  C   UNL     1      44.686   2.686   9.556  0.00  0.00    +0.000 A 
ATOM     24  N   UNL     1      45.444   1.672   9.061  0.00  0.00    +0.000 NA
BRANCH  19  26
ATOM     25  N   UNL     1      48.105   1.438   6.598  0.00  0.00    +0.000 N 
ATOM     26  C   UNL     1      47.111   0.983   7.423  0.00  0.00    +0.000 C 
ATOM     27  O   UNL     1      46.957  -0.209   7.658  0.00  0.00    +0.000 OA
ATOM     28  H   UNL     1      48.734   0.775   6.161  0.00  0.00    +0.000 HD
ATOM     29  H   UNL     1      48.208   2.431   6.426  0.00  0.00    +0.000 HD
ENDBRANCH  19  26
ENDBRANCH  17  22
ENDBRANCH  16  17
ENDBRANCH   1  16
TORSDOF 6
ENDMDL
MODEL 2
REMARK VINA RESULT:    -8.377      1.792      3.513
REMARK INTER + INTRA:         -12.436
REMARK INTER:                 -11.462
REMARK INTRA:                  -0.975
REMARK UNBOUND:                -1.121
REMARK  Name = 
REMARK  6 active torsions:
REMARK  status: ('A' for Active; 'I' for Inactive)
REMARK    1  A    between atoms: C_2  and  C_4
REMARK    2  A    between atoms: C_7  and  N_8
REMARK    3  A    between atoms: N_8  and  C_9
REMARK    4  A    between atoms: C_9  and  C_10
REMARK    5  A    between atoms: C_10  and  C_13
REMARK    6  A    between atoms: C_17  and  C_18
REMARK                            x       y       z     vdW  Elec       q    Type
REMARK                         _______ _______ _______ _____ _____    ______ ____
ROOT
ATOM      1  C   UNL     1      43.856   5.379  12.116  0.00  0.00    +0.000 C 
ATOM      2  F   UNL     1      43.278   6.447  11.477  0.00  0.00    +0.000 F 
ATOM      3  F   UNL     1      43.069   5.160  13.213  0.00  0.00    +0.000 F 
ENDROOT
BRANCH   1   4
ATOM      4  C   UNL     1      45.292   5.661  12.503  0.00  0.00    +0.000 A 
ATOM      5  C   UNL     1      46.080   6.521  11.731  0.00  0.00    +0.000 A 
ATOM      6  C   UNL     1      47.391   6.794  12.109  0.00  0.00    +0.000 A 
ATOM      7  C   UNL     1      47.919   6.227  13.272  0.00  0.00    +0.000 A 
ATOM      8  C   UNL     1      47.148   5.384  14.094  0.00  0.00    +0.000 A 
ATOM      9  C   UNL     1      45.838   5.093  13.668  0.00  0.00    +0.000 A 
BRANCH   8  10
ATOM     10  C   UNL     1      47.655   4.895  15.399  0.00  0.00    +0.000 A 
ATOM     11  C   UNL     1      47.375   3.585  15.834  0.00  0.00    +0.000 A 
ATOM     12  C   UNL     1      47.924   3.069  17.012  0.00  0.00    +0.000 A 
ATOM     13  C   UNL     1      48.776   3.852  17.781  0.00  0.00    +0.000 A 
ATOM     14  C   UNL     1      49.057   5.157  17.388  0.00  0.00    +0.000 A 
ATOM     15  C   UNL     1      48.493   5.676  16.217  0.00  0.00    +0.000 A 
ENDBRANCH   8  10
ENDBRANCH   1   4
BRANCH   1  16
ATOM     16  C   UNL     1      43.749   4.155  11.168  0.00  0.00    +0.000 C 
BRANCH  16  17
ATOM     17  N   UNL     1      43.802   4.563   9.748  0.00  0.00    +0.000 N 
ATOM     18  H   UNL     1      43.906   5.570   9.646  0.00  0.00    +0.000 HD
BRANCH  17  22
ATOM     19  C   UNL     1      46.530   2.430   7.542  0.00  0.00    +0.000 A 
ATOM     20  C   UNL     1      46.388   3.796   7.357  0.00  0.00    +0.000 A 
ATOM     21  N   UNL     1      45.486   4.541   8.054  0.00  0.00    +0.000 NA
ATOM     22  C   UNL     1      44.719   3.877   8.945  0.00  0.00    +0.000 A 
ATOM     23  C   UNL     1      44.884   2.496   9.119  0.00  0.00    +0.000 A 
ATOM     24  N   UNL     1      45.773   1.733   8.430  0.00  0.00    +0.000 NA
BRANCH  19  26
ATOM     25  N   UNL     1      48.673   2.371   6.419  0.00  0.00    +0.000 N 
ATOM     26  C   UNL     1      47.544   1.674   6.757  0.00  0.00    +0.000 C 
ATOM     27  O   UNL     1      47.381   0.504   6.434  0.00  0.00    +0.000 OA
ATOM     28  H   UNL     1      49.400   1.914   5.882  0.00  0.00    +0.000 HD
ATOM     29  H   UNL     1      48.779   3.337   6.704  0.00  0.00    +0.000 HD
ENDBRANCH  19  26
ENDBRANCH  17  22
ENDBRANCH  16  17
ENDBRANCH   1  16
TORSDOF 6
ENDMDL
MODEL 3
REMARK VINA RESULT:    -7.869      3.676      6.876
REMARK INTER + INTRA:         -11.750
REMARK INTER:                 -10.749
REMARK INTRA:                  -1.001
REMARK UNBOUND:                -1.121
REMARK  Name = 
REMARK  6 active torsions:
REMARK  status: ('A' for Active; 'I' for Inactive)
REMARK    1  A    between atoms: C_2  and  C_4
REMARK    2  A    between atoms: C_7  and  N_8
REMARK    3  A    between atoms: N_8  and  C_9
REMARK    4  A    between atoms: C_9  and  C_10
REMARK    5  A    between atoms: C_10  and  C_13
REMARK    6  A    between atoms: C_17  and  C_18
REMARK                            x       y       z     vdW  Elec       q    Type
REMARK                         _______ _______ _______ _____ _____    ______ ____
ROOT
ATOM      1  C   UNL     1      45.119   6.438  11.791  0.00  0.00    +0.000 C 
ATOM      2  F   UNL     1      44.449   6.746  12.948  0.00  0.00    +0.000 F 
ATOM      3  F   UNL     1      44.774   7.429  10.913  0.00  0.00    +0.000 F 
ENDROOT
BRANCH   1   4
ATOM      4  C   UNL     1      44.744   5.069  11.268  0.00  0.00    +0.000 A 
ATOM      5  C   UNL     1      43.674   4.361  11.829  0.00  0.00    +0.000 A 
ATOM      6  C   UNL     1      43.321   3.114  11.324  0.00  0.00    +0.000 A 
ATOM      7  C   UNL     1      44.019   2.572  10.242  0.00  0.00    +0.000 A 
ATOM      8  C   UNL     1      45.077   3.265   9.627  0.00  0.00    +0.000 A 
ATOM      9  C   UNL     1      45.440   4.507  10.182  0.00  0.00    +0.000 A 
BRANCH   8  10
ATOM     10  C   UNL     1      45.727   2.759   8.393  0.00  0.00    +0.000 A 
ATOM     11  C   UNL     1      45.956   3.615   7.299  0.00  0.00    +0.000 A 
ATOM     12  C   UNL     1      46.655   3.187   6.167  0.00  0.00    +0.000 A 
ATOM     13  C   UNL     1      47.150   1.890   6.105  0.00  0.00    +0.000 A 
ATOM     14  C   UNL     1      46.922   1.014   7.163  0.00  0.00    +0.000 A 
ATOM     15  C   UNL     1      46.208   1.441   8.288  0.00  0.00    +0.000 A 
ENDBRANCH   8  10
ENDBRANCH   1   4
BRANCH   1  16
ATOM     16  C   UNL     1      46.638   6.539  12.091  0.00  0.00    +0.000 C 
BRANCH  16  17
ATOM     17  N   UNL     1      46.890   6.859  13.513  0.00  0.00    +0.000 N 
ATOM     18  H   UNL     1      46.083   7.298  13.951  0.00  0.00    +0.000 HD
BRANCH  17  22
ATOM     19  C   UNL     1      48.175   3.695  15.793  0.00  0.00    +0.000 A 
ATOM     20  C   UNL     1      48.539   4.992  16.118  0.00  0.00    +0.000 A 
ATOM     21  N   UNL     1      48.150   6.070  15.382  0.00  0.00    +0.000 NA
ATOM     22  C   UNL     1      47.385   5.814  14.300  0.00  0.00    +0.000 A 
ATOM     23  C   UNL     1      47.023   4.494  13.994  0.00  0.00    +0.000 A 
ATOM     24  N   UNL     1      47.406   3.405  14.710  0.00  0.00    +0.000 NA
BRANCH  19  26
ATOM     25  N   UNL     1      48.281   2.642  17.969  0.00  0.00    +0.000 N 
ATOM     26  C   UNL     1      48.623   2.560  16.645  0.00  0.00    +0.000 C 
ATOM     27  O   UNL     1      49.255   1.614  16.194  0.00  0.00    +0.000 OA
ATOM     28  H   UNL     1      48.559   1.902  18.603  0.00  0.00    +0.000 HD
ATOM     29  H   UNL     1      47.754   3.436  18.310  0.00  0.00    +0.000 HD
ENDBRANCH  19  26
ENDBRANCH  17  22
ENDBRANCH  16  17
ENDBRANCH   1  16
TORSDOF 6
ENDMDL
MODEL 4
REMARK VINA RESULT:    -7.543      4.313      7.544
REMARK INTER + INTRA:         -11.309
REMARK INTER:                 -10.470
REMARK INTRA:                  -0.839
REMARK UNBOUND:                -1.121
REMARK  Name = 
REMARK  6 active torsions:
REMARK  status: ('A' for Active; 'I' for Inactive)
REMARK    1  A    between atoms: C_2  and  C_4
REMARK    2  A    between atoms: C_7  and  N_8
REMARK    3  A    between atoms: N_8  and  C_9
REMARK    4  A    between atoms: C_9  and  C_10
REMARK    5  A    between atoms: C_10  and  C_13
REMARK    6  A    between atoms: C_17  and  C_18
REMARK                            x       y       z     vdW  Elec       q    Type
REMARK                         _______ _______ _______ _____ _____    ______ ____
ROOT
ATOM      1  C   UNL     1      44.995   6.004  11.479  0.00  0.00    +0.000 C 
ATOM      2  F   UNL     1      43.856   6.766  11.415  0.00  0.00    +0.000 F 
ATOM      3  F   UNL     1      45.934   6.721  10.790  0.00  0.00    +0.000 F 
ENDROOT
BRANCH   1   4
ATOM      4  C   UNL     1      44.789   4.629  10.881  0.00  0.00    +0.000 A 
ATOM      5  C   UNL     1      43.794   3.780  11.378  0.00  0.00    +0.000 A 
ATOM      6  C   UNL     1      43.595   2.527  10.806  0.00  0.00    +0.000 A 
ATOM      7  C   UNL     1      44.375   2.121   9.719  0.00  0.00    +0.000 A 
ATOM      8  C   UNL     1      45.362   2.958   9.168  0.00  0.00    +0.000 A 
ATOM      9  C   UNL     1      45.569   4.204   9.791  0.00  0.00    +0.000 A 
BRANCH   8  10
ATOM     10  C   UNL     1      46.092   2.590   7.931  0.00  0.00    +0.000 A 
ATOM     11  C   UNL     1      46.673   1.315   7.790  0.00  0.00    +0.000 A 
ATOM     12  C   UNL     1      47.278   0.912   6.597  0.00  0.00    +0.000 A 
ATOM     13  C   UNL     1      47.311   1.775   5.508  0.00  0.00    +0.000 A 
ATOM     14  C   UNL     1      46.764   3.049   5.622  0.00  0.00    +0.000 A 
ATOM     15  C   UNL     1      46.172   3.456   6.824  0.00  0.00    +0.000 A 
ENDBRANCH   8  10
ENDBRANCH   1   4
BRANCH   1  16
ATOM     16  C   UNL     1      45.418   5.922  12.970  0.00  0.00    +0.000 C 
BRANCH  16  17
ATOM     17  N   UNL     1      46.583   5.030  13.155  0.00  0.00    +0.000 N 
ATOM     18  H   UNL     1      47.307   5.203  12.460  0.00  0.00    +0.000 HD
BRANCH  17  22
ATOM     19  C   UNL     1      48.340   4.947  16.865  0.00  0.00    +0.000 A 
ATOM     20  C   UNL     1      47.362   4.025  16.527  0.00  0.00    +0.000 A 
ATOM     21  N   UNL     1      46.741   4.025  15.315  0.00  0.00    +0.000 NA
ATOM     22  C   UNL     1      47.122   4.982  14.444  0.00  0.00    +0.000 A 
ATOM     23  C   UNL     1      48.118   5.901  14.805  0.00  0.00    +0.000 A 
ATOM     24  N   UNL     1      48.745   5.924  16.011  0.00  0.00    +0.000 NA
BRANCH  19  26
ATOM     25  N   UNL     1      49.124   3.635  18.741  0.00  0.00    +0.000 N 
ATOM     26  C   UNL     1      48.989   4.887  18.202  0.00  0.00    +0.000 C 
ATOM     27  O   UNL     1      49.380   5.891  18.786  0.00  0.00    +0.000 OA
ATOM     28  H   UNL     1      49.556   3.527  19.651  0.00  0.00    +0.000 HD
ATOM     29  H   UNL     1      48.795   2.824  18.231  0.00  0.00    +0.000 HD
ENDBRANCH  19  26
ENDBRANCH  17  22
ENDBRANCH  16  17
ENDBRANCH   1  16
TORSDOF 6
ENDMDL
MODEL 5
REMARK VINA RESULT:    -7.188      1.628      2.504
REMARK INTER + INTRA:         -10.830
REMARK INTER:                 -10.014
REMARK INTRA:                  -0.816
REMARK UNBOUND:                -1.121
REMARK  Name = 
REMARK  6 active torsions:
REMARK  status: ('A' for Active; 'I' for Inactive)
REMARK    1  A    between atoms: C_2  and  C_4
REMARK    2  A    between atoms: C_7  and  N_8
REMARK    3  A    between atoms: N_8  and  C_9
REMARK    4  A    between atoms: C_9  and  C_10
REMARK    5  A    between atoms: C_10  and  C_13
REMARK    6  A    between atoms: C_17  and  C_18
REMARK                            x       y       z     vdW  Elec       q    Type
REMARK                         _______ _______ _______ _____ _____    ______ ____
ROOT
ATOM      1  C   UNL     1      43.748   4.364  12.429  0.00  0.00    +0.000 C 
ATOM      2  F   UNL     1      42.434   4.706  12.236  0.00  0.00    +0.000 F 
ATOM      3  F   UNL     1      43.788   3.818  13.682  0.00  0.00    +0.000 F 
ENDROOT
BRANCH   1   4
ATOM      4  C   UNL     1      44.667   5.560  12.308  0.00  0.00    +0.000 A 
ATOM      5  C   UNL     1      44.326   6.638  11.483  0.00  0.00    +0.000 A 
ATOM      6  C   UNL     1      45.165   7.745  11.398  0.00  0.00    +0.000 A 
ATOM      7  C   UNL     1      46.342   7.793  12.152  0.00  0.00    +0.000 A 
ATOM      8  C   UNL     1      46.703   6.745  13.018  0.00  0.00    +0.000 A 
ATOM      9  C   UNL     1      45.857   5.621  13.055  0.00  0.00    +0.000 A 
BRANCH   8  10
ATOM     10  C   UNL     1      47.873   6.853  13.923  0.00  0.00    +0.000 A 
ATOM     11  C   UNL     1      47.932   6.105  15.115  0.00  0.00    +0.000 A 
ATOM     12  C   UNL     1      49.066   6.114  15.932  0.00  0.00    +0.000 A 
ATOM     13  C   UNL     1      50.176   6.868  15.571  0.00  0.00    +0.000 A 
ATOM     14  C   UNL     1      50.142   7.633  14.409  0.00  0.00    +0.000 A 
ATOM     15  C   UNL     1      48.999   7.635  13.601  0.00  0.00    +0.000 A 
ENDBRANCH   8  10
ENDBRANCH   1   4
BRANCH   1  16
ATOM     16  C   UNL     1      44.101   3.265  11.391  0.00  0.00    +0.000 C 
BRANCH  16  17
ATOM     17  N   UNL     1      43.860   3.728  10.008  0.00  0.00    +0.000 N 
ATOM     18  H   UNL     1      43.751   4.739   9.960  0.00  0.00    +0.000 HD
BRANCH  17  22
ATOM     19  C   UNL     1      46.597   2.282   7.309  0.00  0.00    +0.000 A 
ATOM     20  C   UNL     1      46.105   3.573   7.192  0.00  0.00    +0.000 A 
ATOM     21  N   UNL     1      45.185   4.089   8.053  0.00  0.00    +0.000 NA
ATOM     22  C   UNL     1      44.762   3.272   9.041  0.00  0.00    +0.000 A 
ATOM     23  C   UNL     1      45.278   1.972   9.144  0.00  0.00    +0.000 A 
ATOM     24  N   UNL     1      46.190   1.435   8.292  0.00  0.00    +0.000 NA
BRANCH  19  26
ATOM     25  N   UNL     1      48.821   2.422   6.366  0.00  0.00    +0.000 N 
ATOM     26  C   UNL     1      47.611   1.781   6.342  0.00  0.00    +0.000 C 
ATOM     27  O   UNL     1      47.381   0.856   5.574  0.00  0.00    +0.000 OA
ATOM     28  H   UNL     1      49.553   2.129   5.730  0.00  0.00    +0.000 HD
ATOM     29  H   UNL     1      48.982   3.181   7.017  0.00  0.00    +0.000 HD
ENDBRANCH  19  26
ENDBRANCH  17  22
ENDBRANCH  16  17
ENDBRANCH   1  16
TORSDOF 6
ENDMDL
MODEL 6
REMARK VINA RESULT:    -7.172      4.716      7.512
REMARK INTER + INTRA:         -10.808
REMARK INTER:                  -9.663
REMARK INTRA:                  -1.146
REMARK UNBOUND:                -1.121
REMARK  Name = 
REMARK  6 active torsions:
REMARK  status: ('A' for Active; 'I' for Inactive)
REMARK    1  A    between atoms: C_2  and  C_4
REMARK    2  A    between atoms: C_7  and  N_8
REMARK    3  A    between atoms: N_8  and  C_9
REMARK    4  A    between atoms: C_9  and  C_10
REMARK    5  A    between atoms: C_10  and  C_13
REMARK    6  A    between atoms: C_17  and  C_18
REMARK                            x       y       z     vdW  Elec       q    Type
REMARK                         _______ _______ _______ _____ _____    ______ ____
ROOT
ATOM      1  C   UNL     1      49.070   8.277  12.237  0.00  0.00    +0.000 C 
ATOM      2  F   UNL     1      49.306   9.598  12.524  0.00  0.00    +0.000 F 
ATOM      3  F   UNL     1      49.764   8.040  11.083  0.00  0.00    +0.000 F 
ENDROOT
BRANCH   1   4
ATOM      4  C   UNL     1      47.593   7.989  12.074  0.00  0.00    +0.000 A 
ATOM      5  C   UNL     1      46.640   8.969  12.373  0.00  0.00    +0.000 A 
ATOM      6  C   UNL     1      45.286   8.703  12.195  0.00  0.00    +0.000 A 
ATOM      7  C   UNL     1      44.874   7.463  11.698  0.00  0.00    +0.000 A 
ATOM      8  C   UNL     1      45.801   6.464  11.354  0.00  0.00    +0.000 A 
ATOM      9  C   UNL     1      47.162   6.744  11.580  0.00  0.00    +0.000 A 
BRANCH   8  10
ATOM     10  C   UNL     1      45.379   5.203  10.695  0.00  0.00    +0.000 A 
ATOM     11  C   UNL     1      44.732   4.190  11.429  0.00  0.00    +0.000 A 
ATOM     12  C   UNL     1      44.237   3.039  10.811  0.00  0.00    +0.000 A 
ATOM     13  C   UNL     1      44.371   2.876   9.437  0.00  0.00    +0.000 A 
ATOM     14  C   UNL     1      45.022   3.850   8.687  0.00  0.00    +0.000 A 
ATOM     15  C   UNL     1      45.532   4.995   9.312  0.00  0.00    +0.000 A 
ENDBRANCH   8  10
ENDBRANCH   1   4
BRANCH   1  16
ATOM     16  C   UNL     1      49.694   7.434  13.382  0.00  0.00    +0.000 C 
BRANCH  16  17
ATOM     17  N   UNL     1      49.077   7.750  14.687  0.00  0.00    +0.000 N 
ATOM     18  H   UNL     1      48.347   8.455  14.601  0.00  0.00    +0.000 HD
BRANCH  17  22
ATOM     19  C   UNL     1      47.945   4.557  17.008  0.00  0.00    +0.000 A 
ATOM     20  C   UNL     1      47.643   4.587  15.655  0.00  0.00    +0.000 A 
ATOM     21  N   UNL     1      47.984   5.632  14.851  0.00  0.00    +0.000 NA
ATOM     22  C   UNL     1      48.636   6.657  15.440  0.00  0.00    +0.000 A 
ATOM     23  C   UNL     1      48.935   6.602  16.809  0.00  0.00    +0.000 A 
ATOM     24  N   UNL     1      48.598   5.574  17.631  0.00  0.00    +0.000 NA
BRANCH  19  26
ATOM     25  N   UNL     1      48.394   3.081  18.872  0.00  0.00    +0.000 N 
ATOM     26  C   UNL     1      47.555   3.381  17.831  0.00  0.00    +0.000 C 
ATOM     27  O   UNL     1      46.550   2.722  17.596  0.00  0.00    +0.000 OA
ATOM     28  H   UNL     1      48.186   2.289  19.468  0.00  0.00    +0.000 HD
ATOM     29  H   UNL     1      49.215   3.648  19.043  0.00  0.00    +0.000 HD
ENDBRANCH  19  26
ENDBRANCH  17  22
ENDBRANCH  16  17
ENDBRANCH   1  16
TORSDOF 6
ENDMDL
MODEL 7
REMARK VINA RESULT:    -7.041      3.109      3.859
REMARK INTER + INTRA:         -10.631
REMARK INTER:                  -9.717
REMARK INTRA:                  -0.914
REMARK UNBOUND:                -1.121
REMARK  Name = 
REMARK  6 active torsions:
REMARK  status: ('A' for Active; 'I' for Inactive)
REMARK    1  A    between atoms: C_2  and  C_4
REMARK    2  A    between atoms: C_7  and  N_8
REMARK    3  A    between atoms: N_8  and  C_9
REMARK    4  A    between atoms: C_9  and  C_10
REMARK    5  A    between atoms: C_10  and  C_13
REMARK    6  A    between atoms: C_17  and  C_18
REMARK                            x       y       z     vdW  Elec       q    Type
REMARK                         _______ _______ _______ _____ _____    ______ ____
ROOT
ATOM      1  C   UNL     1      44.278   5.501  11.895  0.00  0.00    +0.000 C 
ATOM      2  F   UNL     1      43.300   5.274  12.831  0.00  0.00    +0.000 F 
ATOM      3  F   UNL     1      45.290   4.644  12.232  0.00  0.00    +0.000 F 
ENDROOT
BRANCH   1   4
ATOM      4  C   UNL     1      44.739   6.942  11.896  0.00  0.00    +0.000 A 
ATOM      5  C   UNL     1      46.003   7.284  12.387  0.00  0.00    +0.000 A 
ATOM      6  C   UNL     1      46.428   8.609  12.360  0.00  0.00    +0.000 A 
ATOM      7  C   UNL     1      45.601   9.600  11.823  0.00  0.00    +0.000 A 
ATOM      8  C   UNL     1      44.337   9.293  11.288  0.00  0.00    +0.000 A 
ATOM      9  C   UNL     1      43.916   7.951  11.364  0.00  0.00    +0.000 A 
BRANCH   8  10
ATOM     10  C   UNL     1      43.518  10.314  10.592  0.00  0.00    +0.000 A 
ATOM     11  C   UNL     1      43.756  10.628   9.240  0.00  0.00    +0.000 A 
ATOM     12  C   UNL     1      42.934  11.512   8.536  0.00  0.00    +0.000 A 
ATOM     13  C   UNL     1      41.845  12.100   9.167  0.00  0.00    +0.000 A 
ATOM     14  C   UNL     1      41.594  11.825  10.508  0.00  0.00    +0.000 A 
ATOM     15  C   UNL     1      42.428  10.951  11.215  0.00  0.00    +0.000 A 
ENDBRANCH   8  10
ENDBRANCH   1   4
BRANCH   1  16
ATOM     16  C   UNL     1      43.707   5.084  10.513  0.00  0.00    +0.000 C 
BRANCH  16  17
ATOM     17  N   UNL     1      43.858   3.631  10.280  0.00  0.00    +0.000 N 
ATOM     18  H   UNL     1      42.959   3.173  10.149  0.00  0.00    +0.000 HD
BRANCH  17  22
ATOM     19  C   UNL     1      46.590   2.403   7.471  0.00  0.00    +0.000 A 
ATOM     20  C   UNL     1      46.231   3.738   7.568  0.00  0.00    +0.000 A 
ATOM     21  N   UNL     1      45.318   4.188   8.473  0.00  0.00    +0.000 NA
ATOM     22  C   UNL     1      44.764   3.260   9.282  0.00  0.00    +0.000 A 
ATOM     23  C   UNL     1      45.147   1.915   9.169  0.00  0.00    +0.000 A 
ATOM     24  N   UNL     1      46.050   1.444   8.269  0.00  0.00    +0.000 NA
BRANCH  19  26
ATOM     25  N   UNL     1      48.690   2.799   6.336  0.00  0.00    +0.000 N 
ATOM     26  C   UNL     1      47.603   1.976   6.469  0.00  0.00    +0.000 C 
ATOM     27  O   UNL     1      47.476   0.954   5.805  0.00  0.00    +0.000 OA
ATOM     28  H   UNL     1      49.414   2.565   5.668  0.00  0.00    +0.000 HD
ATOM     29  H   UNL     1      48.767   3.634   6.903  0.00  0.00    +0.000 HD
ENDBRANCH  19  26
ENDBRANCH  17  22
ENDBRANCH  16  17
ENDBRANCH   1  16
TORSDOF 6
ENDMDL
MODEL 8
REMARK VINA RESULT:    -6.716      5.317      6.632
REMARK INTER + INTRA:         -10.193
REMARK INTER:                  -9.355
REMARK INTRA:                  -0.837
REMARK UNBOUND:                -1.121
REMARK  Name = 
REMARK  6 active torsions:
REMARK  status: ('A' for Active; 'I' for Inactive)
REMARK    1  A    between atoms: C_2  and  C_4
REMARK    2  A    between atoms: C_7  and  N_8
REMARK    3  A    between atoms: N_8  and  C_9
REMARK    4  A    between atoms: C_9  and  C_10
REMARK    5  A    between atoms: C_10  and  C_13
REMARK    6  A    between atoms: C_17  and  C_18
REMARK                            x       y       z     vdW  Elec       q    Type
REMARK                         _______ _______ _______ _____ _____    ______ ____
ROOT
ATOM      1  C   UNL     1      47.847   3.511  17.118  0.00  0.00    +0.000 C 
ATOM      2  F   UNL     1      46.917   2.559  17.454  0.00  0.00    +0.000 F 
ATOM      3  F   UNL     1      48.954   2.801  16.743  0.00  0.00    +0.000 F 
ENDROOT
BRANCH   1   4
ATOM      4  C   UNL     1      48.142   4.444  18.272  0.00  0.00    +0.000 A 
ATOM      5  C   UNL     1      48.778   3.970  19.425  0.00  0.00    +0.000 A 
ATOM      6  C   UNL     1      49.069   4.841  20.470  0.00  0.00    +0.000 A 
ATOM      7  C   UNL     1      48.745   6.197  20.364  0.00  0.00    +0.000 A 
ATOM      8  C   UNL     1      48.136   6.719  19.209  0.00  0.00    +0.000 A 
ATOM      9  C   UNL     1      47.818   5.809  18.183  0.00  0.00    +0.000 A 
BRANCH   8  10
ATOM     10  C   UNL     1      47.920   8.176  19.034  0.00  0.00    +0.000 A 
ATOM     11  C   UNL     1      48.293   8.821  17.839  0.00  0.00    +0.000 A 
ATOM     12  C   UNL     1      48.008  10.170  17.613  0.00  0.00    +0.000 A 
ATOM     13  C   UNL     1      47.334  10.909  18.578  0.00  0.00    +0.000 A 
ATOM     14  C   UNL     1      46.970  10.306  19.778  0.00  0.00    +0.000 A 
ATOM     15  C   UNL     1      47.270   8.958  20.008  0.00  0.00    +0.000 A 
ENDBRANCH   8  10
ENDBRANCH   1   4
BRANCH   1  16
ATOM     16  C   UNL     1      47.302   4.280  15.885  0.00  0.00    +0.000 C 
BRANCH  16  17
ATOM     17  N   UNL     1      47.315   3.437  14.671  0.00  0.00    +0.000 N 
ATOM     18  H   UNL     1      47.217   2.449  14.894  0.00  0.00    +0.000 HD
BRANCH  17  22
ATOM     19  C   UNL     1      44.663   4.686  11.795  0.00  0.00    +0.000 A 
ATOM     20  C   UNL     1      44.963   3.341  11.941  0.00  0.00    +0.000 A 
ATOM     21  N   UNL     1      45.848   2.883  12.869  0.00  0.00    +0.000 NA
ATOM     22  C   UNL     1      46.434   3.813  13.652  0.00  0.00    +0.000 A 
ATOM     23  C   UNL     1      46.111   5.168  13.491  0.00  0.00    +0.000 A 
ATOM     24  N   UNL     1      45.237   5.647  12.567  0.00  0.00    +0.000 NA
BRANCH  19  26
ATOM     25  N   UNL     1      43.940   4.721   9.486  0.00  0.00    +0.000 N 
ATOM     26  C   UNL     1      43.678   5.122  10.769  0.00  0.00    +0.000 C 
ATOM     27  O   UNL     1      42.695   5.796  11.051  0.00  0.00    +0.000 OA
ATOM     28  H   UNL     1      43.309   4.988   8.741  0.00  0.00    +0.000 HD
ATOM     29  H   UNL     1      44.760   4.160   9.286  0.00  0.00    +0.000 HD
ENDBRANCH  19  26
ENDBRANCH  17  22
ENDBRANCH  16  17
ENDBRANCH   1  16
TORSDOF 6
ENDMDL
MODEL 9
REMARK VINA RESULT:    -6.559      5.428      6.795
REMARK INTER + INTRA:          -9.981
REMARK INTER:                  -9.144
REMARK INTRA:                  -0.837
REMARK UNBOUND:                -1.121
REMARK  Name = 
REMARK  6 active torsions:
REMARK  status: ('A' for Active; 'I' for Inactive)
REMARK    1  A    between atoms: C_2  and  C_4
REMARK    2  A    between atoms: C_7  and  N_8
REMARK    3  A    between atoms: N_8  and  C_9
REMARK    4  A    between atoms: C_9  and  C_10
REMARK    5  A    between atoms: C_10  and  C_13
REMARK    6  A    between atoms: C_17  and  C_18
REMARK                            x       y       z     vdW  Elec       q    Type
REMARK                         _______ _______ _______ _____ _____    ______ ____
ROOT
ATOM      1  C   UNL     1      47.594   3.885  17.189  0.00  0.00    +0.000 C 
ATOM      2  F   UNL     1      47.169   4.744  18.171  0.00  0.00    +0.000 F 
ATOM      3  F   UNL     1      46.785   2.788  17.309  0.00  0.00    +0.000 F 
ENDROOT
BRANCH   1   4
ATOM      4  C   UNL     1      49.056   3.525  17.347  0.00  0.00    +0.000 A 
ATOM      5  C   UNL     1      49.490   2.210  17.143  0.00  0.00    +0.000 A 
ATOM      6  C   UNL     1      50.839   1.894  17.265  0.00  0.00    +0.000 A 
ATOM      7  C   UNL     1      51.769   2.893  17.571  0.00  0.00    +0.000 A 
ATOM      8  C   UNL     1      51.378   4.232  17.749  0.00  0.00    +0.000 A 
ATOM      9  C   UNL     1      50.002   4.517  17.659  0.00  0.00    +0.000 A 
BRANCH   8  10
ATOM     10  C   UNL     1      52.374   5.316  17.933  0.00  0.00    +0.000 A 
ATOM     11  C   UNL     1      53.055   5.861  16.828  0.00  0.00    +0.000 A 
ATOM     12  C   UNL     1      53.922   6.949  16.965  0.00  0.00    +0.000 A 
ATOM     13  C   UNL     1      54.123   7.524  18.214  0.00  0.00    +0.000 A 
ATOM     14  C   UNL     1      53.479   6.995  19.328  0.00  0.00    +0.000 A 
ATOM     15  C   UNL     1      52.624   5.896  19.191  0.00  0.00    +0.000 A 
ENDBRANCH   8  10
ENDBRANCH   1   4
BRANCH   1  16
ATOM     16  C   UNL     1      47.317   4.566  15.822  0.00  0.00    +0.000 C 
BRANCH  16  17
ATOM     17  N   UNL     1      47.178   3.570  14.738  0.00  0.00    +0.000 N 
ATOM     18  H   UNL     1      46.962   2.643  15.100  0.00  0.00    +0.000 HD
BRANCH  17  22
ATOM     19  C   UNL     1      44.571   4.724  11.782  0.00  0.00    +0.000 A 
ATOM     20  C   UNL     1      44.939   3.394  11.918  0.00  0.00    +0.000 A 
ATOM     21  N   UNL     1      45.812   2.969  12.873  0.00  0.00    +0.000 NA
ATOM     22  C   UNL     1      46.317   3.915  13.692  0.00  0.00    +0.000 A 
ATOM     23  C   UNL     1      45.926   5.254  13.539  0.00  0.00    +0.000 A 
ATOM     24  N   UNL     1      45.062   5.701  12.590  0.00  0.00    +0.000 NA
BRANCH  19  26
ATOM     25  N   UNL     1      43.924   4.742   9.451  0.00  0.00    +0.000 N 
ATOM     26  C   UNL     1      43.603   5.124  10.726  0.00  0.00    +0.000 C 
ATOM     27  O   UNL     1      42.583   5.754  10.978  0.00  0.00    +0.000 OA
ATOM     28  H   UNL     1      43.307   4.986   8.686  0.00  0.00    +0.000 HD
ATOM     29  H   UNL     1      44.773   4.218   9.276  0.00  0.00    +0.000 HD
ENDBRANCH  19  26
ENDBRANCH  17  22
ENDBRANCH  16  17
ENDBRANCH   1  16
TORSDOF 6
ENDMDL
