MODEL 1
REMARK VINA RESULT:    -8.220      0.000      0.000
REMARK INTER + INTRA:         -10.696
REMARK INTER:                 -10.622
REMARK INTRA:                  -0.074
REMARK UNBOUND:                -0.074
REMARK  Name = 
REMARK  5 active torsions:
REMARK  status: ('A' for Active; 'I' for Inactive)
REMARK    1  A    between atoms: C_2  and  C_4
REMARK    2  A    between atoms: C_8  and  O_9
REMARK    3  A    between atoms: O_9  and  C_10
REMARK    4  A    between atoms: C_10  and  C_11
REMARK    5  A    between atoms: C_16  and  C_17
REMARK                            x       y       z     vdW  Elec       q    Type
REMARK                         _______ _______ _______ _____ _____    ______ ____
ROOT
ATOM      1  C   UNL     1      44.755   4.546  11.790  0.00  0.00    +0.000 A 
ATOM      2  C   UNL     1      45.418   3.598  12.571  0.00  0.00    +0.000 A 
ATOM      3  C   UNL     1      46.496   3.991  13.351  0.00  0.00    +0.000 A 
ATOM      4  F   UNL     1      47.137   3.080  14.094  0.00  0.00    +0.000 F 
ATOM      5  C   UNL     1      46.951   5.306  13.341  0.00  0.00    +0.000 A 
ATOM      6  C   UNL     1      46.347   6.264  12.519  0.00  0.00    +0.000 A 
ATOM      7  C   UNL     1      45.196   5.878  11.807  0.00  0.00    +0.000 A 
ENDROOT
BRANCH   6   8
ATOM      8  C   UNL     1      46.901   7.673  12.310  0.00  0.00    +0.000 C 
ATOM      9  C   UNL     1      48.298   7.630  11.648  0.00  0.00    +0.000 C 
ATOM     10  C   UNL     1      49.377   7.187  12.637  0.00  0.00    +0.000 C 
ATOM     11  N   UNL     1      49.444   8.073  13.801  0.00  0.00    +0.000 NA
ATOM     12  C   UNL     1      48.159   8.158  14.491  0.00  0.00    +0.000 C 
ATOM     13  C   UNL     1      47.010   8.564  13.565  0.00  0.00    +0.000 C 
ATOM     14  H   UNL     1      49.725   9.006  13.495  0.00  0.00    +0.000 HD
ENDBRANCH   6   8
BRANCH   1  15
ATOM     15  C   UNL     1      43.599   4.142  10.918  0.00  0.00    +0.000 C 
BRANCH  15  16
ATOM     16  O   UNL     1      43.954   2.957  10.216  0.00  0.00    +0.000 OA
BRANCH  16  21
ATOM     17  C   UNL     1      46.388   1.919   7.741  0.00  0.00    +0.000 A 
ATOM     18  C   UNL     1      46.806   3.133   7.191  0.00  0.00    +0.000 A 
ATOM     19  C   UNL     1      46.254   4.330   7.647  0.00  0.00    +0.000 A 
ATOM     20  C   UNL     1      45.291   4.316   8.658  0.00  0.00    +0.000 A 
ATOM     21  C   UNL     1      44.881   3.106   9.222  0.00  0.00    +0.000 A 
ATOM     22  C   UNL     1      45.436   1.908   8.767  0.00  0.00    +0.000 A 
BRANCH  17  24
ATOM     23  N   UNL     1      47.608   0.721   6.015  0.00  0.00    +0.000 N 
ATOM     24  C   UNL     1      46.982   0.660   7.226  0.00  0.00    +0.000 C 
ATOM     25  O   UNL     1      46.954  -0.375   7.877  0.00  0.00    +0.000 OA
ATOM     26  H   UNL     1      48.100  -0.110   5.716  0.00  0.00    +0.000 HD
ATOM     27  H   UNL     1      47.849   1.598   5.566  0.00  0.00    +0.000 HD
ENDBRANCH  17  24
ENDBRANCH  16  21
ENDBRANCH  15  16
ENDBRANCH   1  15
TORSDOF 5
ENDMDL
MODEL 2
REMARK VINA RESULT:    -7.803      4.297      7.692
REMARK INTER + INTRA:         -10.157
REMARK INTER:                 -10.054
REMARK INTRA:                  -0.103
REMARK UNBOUND:                -0.074
REMARK  Name = 
REMARK  5 active torsions:
REMARK  status: ('A' for Active; 'I' for Inactive)
REMARK    1  A    between atoms: C_2  and  C_4
REMARK    2  A    between atoms: C_8  and  O_9
REMARK    3  A    between atoms: O_9  and  C_10
REMARK    4  A    between atoms: C_10  and  C_11
REMARK    5  A    between atoms: C_16  and  C_17
REMARK                            x       y       z     vdW  Elec       q    Type
REMARK                         _______ _______ _______ _____ _____    ______ ____
ROOT
ATOM      1  C   UNL     1      46.752   4.706  13.388  0.00  0.00    +0.000 A 
ATOM      2  C   UNL     1      47.566   5.813  13.140  0.00  0.00    +0.000 A 
ATOM      3  C   UNL     1      47.192   6.731  12.169  0.00  0.00    +0.000 A 
ATOM      4  F   UNL     1      47.976   7.789  11.927  0.00  0.00    +0.000 F 
ATOM      5  C   UNL     1      46.039   6.548  11.411  0.00  0.00    +0.000 A 
ATOM      6  C   UNL     1      45.239   5.414  11.592  0.00  0.00    +0.000 A 
ATOM      7  C   UNL     1      45.574   4.541  12.644  0.00  0.00    +0.000 A 
ENDROOT
BRANCH   6   8
ATOM      8  C   UNL     1      44.070   5.047  10.679  0.00  0.00    +0.000 C 
ATOM      9  C   UNL     1      42.978   4.273  11.455  0.00  0.00    +0.000 C 
ATOM     10  C   UNL     1      43.405   2.834  11.744  0.00  0.00    +0.000 C 
ATOM     11  N   UNL     1      43.706   2.098  10.515  0.00  0.00    +0.000 NA
ATOM     12  C   UNL     1      44.742   2.762   9.727  0.00  0.00    +0.000 C 
ATOM     13  C   UNL     1      44.412   4.225   9.419  0.00  0.00    +0.000 C 
ATOM     14  H   UNL     1      42.855   2.020   9.956  0.00  0.00    +0.000 HD
ENDBRANCH   6   8
BRANCH   1  15
ATOM     15  C   UNL     1      47.147   3.685  14.418  0.00  0.00    +0.000 C 
BRANCH  15  16
ATOM     16  O   UNL     1      46.587   4.063  15.669  0.00  0.00    +0.000 OA
BRANCH  16  21
ATOM     17  C   UNL     1      49.523   3.172  17.595  0.00  0.00    +0.000 A 
ATOM     18  C   UNL     1      49.366   3.921  18.763  0.00  0.00    +0.000 A 
ATOM     19  C   UNL     1      48.259   4.756  18.909  0.00  0.00    +0.000 A 
ATOM     20  C   UNL     1      47.303   4.836  17.894  0.00  0.00    +0.000 A 
ATOM     21  C   UNL     1      47.448   4.077  16.731  0.00  0.00    +0.000 A 
ATOM     22  C   UNL     1      48.556   3.240  16.585  0.00  0.00    +0.000 A 
BRANCH  17  24
ATOM     23  N   UNL     1      51.808   2.626  18.217  0.00  0.00    +0.000 N 
ATOM     24  C   UNL     1      50.720   2.303  17.460  0.00  0.00    +0.000 C 
ATOM     25  O   UNL     1      50.716   1.315  16.739  0.00  0.00    +0.000 OA
ATOM     26  H   UNL     1      52.581   1.975  18.202  0.00  0.00    +0.000 HD
ATOM     27  H   UNL     1      51.764   3.287  18.985  0.00  0.00    +0.000 HD
ENDBRANCH  17  24
ENDBRANCH  16  21
ENDBRANCH  15  16
ENDBRANCH   1  15
TORSDOF 5
ENDMDL
MODEL 3
REMARK VINA RESULT:    -7.406      3.741      7.276
REMARK INTER + INTRA:          -9.644
REMARK INTER:                  -9.166
REMARK INTRA:                  -0.479
REMARK UNBOUND:                -0.074
REMARK  Name = 
REMARK  5 active torsions:
REMARK  status: ('A' for Active; 'I' for Inactive)
REMARK    1  A    between atoms: C_2  and  C_4
REMARK    2  A    between atoms: C_8  and  O_9
REMARK    3  A    between atoms: O_9  and  C_10
REMARK    4  A    between atoms: C_10  and  C_11
REMARK    5  A    between atoms: C_16  and  C_17
REMARK                            x       y       z     vdW  Elec       q    Type
REMARK                         _______ _______ _______ _____ _____    ______ ____
ROOT
ATOM      1  C   UNL     1      47.300   6.756  12.416  0.00  0.00    +0.000 A 
ATOM      2  C   UNL     1      47.390   6.063  13.625  0.00  0.00    +0.000 A 
ATOM      3  C   UNL     1      46.572   4.965  13.845  0.00  0.00    +0.000 A 
ATOM      4  F   UNL     1      46.654   4.306  15.007  0.00  0.00    +0.000 F 
ATOM      5  C   UNL     1      45.635   4.564  12.897  0.00  0.00    +0.000 A 
ATOM      6  C   UNL     1      45.476   5.277  11.704  0.00  0.00    +0.000 A 
ATOM      7  C   UNL     1      46.377   6.329  11.449  0.00  0.00    +0.000 A 
ENDROOT
BRANCH   6   8
ATOM      8  C   UNL     1      44.351   5.017  10.703  0.00  0.00    +0.000 C 
ATOM      9  C   UNL     1      43.150   4.319  11.383  0.00  0.00    +0.000 C 
ATOM     10  C   UNL     1      43.443   2.846  11.670  0.00  0.00    +0.000 C 
ATOM     11  N   UNL     1      43.774   2.109  10.449  0.00  0.00    +0.000 NA
ATOM     12  C   UNL     1      44.912   2.702   9.752  0.00  0.00    +0.000 C 
ATOM     13  C   UNL     1      44.719   4.192   9.453  0.00  0.00    +0.000 C 
ATOM     14  H   UNL     1      42.962   2.107   9.830  0.00  0.00    +0.000 HD
ENDBRANCH   6   8
BRANCH   1  15
ATOM     15  C   UNL     1      48.159   7.962  12.162  0.00  0.00    +0.000 C 
BRANCH  15  16
ATOM     16  O   UNL     1      47.600   9.071  12.857  0.00  0.00    +0.000 OA
BRANCH  16  21
ATOM     17  C   UNL     1      44.670  10.608  11.381  0.00  0.00    +0.000 A 
ATOM     18  C   UNL     1      45.216  11.642  10.618  0.00  0.00    +0.000 A 
ATOM     19  C   UNL     1      46.596  11.843  10.603  0.00  0.00    +0.000 A 
ATOM     20  C   UNL     1      47.432  11.004  11.343  0.00  0.00    +0.000 A 
ATOM     21  C   UNL     1      46.893   9.959  12.096  0.00  0.00    +0.000 A 
ATOM     22  C   UNL     1      45.511   9.758  12.109  0.00  0.00    +0.000 A 
BRANCH  17  24
ATOM     23  N   UNL     1      42.703   9.331  10.746  0.00  0.00    +0.000 N 
ATOM     24  C   UNL     1      43.197  10.428  11.390  0.00  0.00    +0.000 C 
ATOM     25  O   UNL     1      42.460  11.201  11.987  0.00  0.00    +0.000 OA
ATOM     26  H   UNL     1      41.712   9.157  10.842  0.00  0.00    +0.000 HD
ATOM     27  H   UNL     1      43.291   8.561  10.448  0.00  0.00    +0.000 HD
ENDBRANCH  17  24
ENDBRANCH  16  21
ENDBRANCH  15  16
ENDBRANCH   1  15
TORSDOF 5
ENDMDL
MODEL 4
REMARK VINA RESULT:    -7.330      4.242      7.590
REMARK INTER + INTRA:          -9.546
REMARK INTER:                  -8.619
REMARK INTRA:                  -0.927
REMARK UNBOUND:                -0.074
REMARK  Name = 
REMARK  5 active torsions:
REMARK  status: ('A' for Active; 'I' for Inactive)
REMARK    1  A    between atoms: C_2  and  C_4
REMARK    2  A    between atoms: C_8  and  O_9
REMARK    3  A    between atoms: O_9  and  C_10
REMARK    4  A    between atoms: C_10  and  C_11
REMARK    5  A    between atoms: C_16  and  C_17
REMARK                            x       y       z     vdW  Elec       q    Type
REMARK                         _______ _______ _______ _____ _____    ______ ____
ROOT
ATOM      1  C   UNL     1      47.252   7.633  12.608  0.00  0.00    +0.000 A 
ATOM      2  C   UNL     1      46.717   8.922  12.605  0.00  0.00    +0.000 A 
ATOM      3  C   UNL     1      45.415   9.120  12.171  0.00  0.00    +0.000 A 
ATOM      4  F   UNL     1      44.905  10.358  12.161  0.00  0.00    +0.000 F 
ATOM      5  C   UNL     1      44.643   8.060  11.703  0.00  0.00    +0.000 A 
ATOM      6  C   UNL     1      45.174   6.767  11.634  0.00  0.00    +0.000 A 
ATOM      7  C   UNL     1      46.460   6.562  12.167  0.00  0.00    +0.000 A 
ENDROOT
BRANCH   6   8
ATOM      8  C   UNL     1      44.463   5.593  10.962  0.00  0.00    +0.000 C 
ATOM      9  C   UNL     1      43.003   5.468  11.459  0.00  0.00    +0.000 C 
ATOM     10  C   UNL     1      42.937   4.897  12.875  0.00  0.00    +0.000 C 
ATOM     11  N   UNL     1      43.568   3.579  12.961  0.00  0.00    +0.000 NA
ATOM     12  C   UNL     1      44.960   3.616  12.519  0.00  0.00    +0.000 C 
ATOM     13  C   UNL     1      45.125   4.208  11.116  0.00  0.00    +0.000 C 
ATOM     14  H   UNL     1      43.047   2.920  12.380  0.00  0.00    +0.000 HD
ENDBRANCH   6   8
BRANCH   1  15
ATOM     15  C   UNL     1      48.668   7.396  13.052  0.00  0.00    +0.000 C 
BRANCH  15  16
ATOM     16  O   UNL     1      48.725   6.156  13.746  0.00  0.00    +0.000 OA
BRANCH  16  21
ATOM     17  C   UNL     1      47.966   5.008  17.098  0.00  0.00    +0.000 A 
ATOM     18  C   UNL     1      48.292   6.114  17.885  0.00  0.00    +0.000 A 
ATOM     19  C   UNL     1      48.791   7.271  17.286  0.00  0.00    +0.000 A 
ATOM     20  C   UNL     1      48.955   7.326  15.900  0.00  0.00    +0.000 A 
ATOM     21  C   UNL     1      48.615   6.228  15.108  0.00  0.00    +0.000 A 
ATOM     22  C   UNL     1      48.114   5.071  15.708  0.00  0.00    +0.000 A 
BRANCH  17  24
ATOM     23  N   UNL     1      48.029   3.438  18.952  0.00  0.00    +0.000 N 
ATOM     24  C   UNL     1      47.452   3.785  17.765  0.00  0.00    +0.000 C 
ATOM     25  O   UNL     1      46.522   3.143  17.297  0.00  0.00    +0.000 OA
ATOM     26  H   UNL     1      47.608   2.667  19.452  0.00  0.00    +0.000 HD
ATOM     27  H   UNL     1      48.630   4.066  19.473  0.00  0.00    +0.000 HD
ENDBRANCH  17  24
ENDBRANCH  16  21
ENDBRANCH  15  16
ENDBRANCH   1  15
TORSDOF 5
ENDMDL
MODEL 5
REMARK VINA RESULT:    -7.180      4.596      8.524
REMARK INTER + INTRA:          -9.352
REMARK INTER:                  -8.990
REMARK INTRA:                  -0.363
REMARK UNBOUND:                -0.074
REMARK  Name = 
REMARK  5 active torsions:
REMARK  status: ('A' for Active; 'I' for Inactive)
REMARK    1  A    between atoms: C_2  and  C_4
REMARK    2  A    between atoms: C_8  and  O_9
REMARK    3  A    between atoms: O_9  and  C_10
REMARK    4  A    between atoms: C_10  and  C_11
REMARK    5  A    between atoms: C_16  and  C_17
REMARK                            x       y       z     vdW  Elec       q    Type
REMARK                         _______ _______ _______ _____ _____    ______ ____
ROOT
ATOM      1  C   UNL     1      46.781   5.331  13.847  0.00  0.00    +0.000 A 
ATOM      2  C   UNL     1      47.737   6.094  13.175  0.00  0.00    +0.000 A 
ATOM      3  C   UNL     1      47.404   6.701  11.973  0.00  0.00    +0.000 A 
ATOM      4  F   UNL     1      48.324   7.427  11.325  0.00  0.00    +0.000 F 
ATOM      5  C   UNL     1      46.144   6.533  11.406  0.00  0.00    +0.000 A 
ATOM      6  C   UNL     1      45.187   5.721  12.024  0.00  0.00    +0.000 A 
ATOM      7  C   UNL     1      45.501   5.190  13.289  0.00  0.00    +0.000 A 
ENDROOT
BRANCH   6   8
ATOM      8  C   UNL     1      43.856   5.336  11.378  0.00  0.00    +0.000 C 
ATOM      9  C   UNL     1      43.028   4.420  12.310  0.00  0.00    +0.000 C 
ATOM     10  C   UNL     1      43.594   3.001  12.354  0.00  0.00    +0.000 C 
ATOM     11  N   UNL     1      43.635   2.390  11.024  0.00  0.00    +0.000 NA
ATOM     12  C   UNL     1      44.413   3.192  10.084  0.00  0.00    +0.000 C 
ATOM     13  C   UNL     1      43.935   4.645  10.000  0.00  0.00    +0.000 C 
ATOM     14  H   UNL     1      42.681   2.289  10.674  0.00  0.00    +0.000 HD
ENDBRANCH   6   8
BRANCH   1  15
ATOM     15  C   UNL     1      47.125   4.644  15.139  0.00  0.00    +0.000 C 
BRANCH  15  16
ATOM     16  O   UNL     1      48.451   5.004  15.506  0.00  0.00    +0.000 OA
BRANCH  16  21
ATOM     17  C   UNL     1      48.593   5.601  19.076  0.00  0.00    +0.000 A 
ATOM     18  C   UNL     1      48.797   6.980  19.151  0.00  0.00    +0.000 A 
ATOM     19  C   UNL     1      48.903   7.732  17.982  0.00  0.00    +0.000 A 
ATOM     20  C   UNL     1      48.796   7.108  16.737  0.00  0.00    +0.000 A 
ATOM     21  C   UNL     1      48.576   5.731  16.657  0.00  0.00    +0.000 A 
ATOM     22  C   UNL     1      48.468   4.979  17.829  0.00  0.00    +0.000 A 
BRANCH  17  24
ATOM     23  N   UNL     1      48.535   3.464  20.232  0.00  0.00    +0.000 N 
ATOM     24  C   UNL     1      48.498   4.824  20.338  0.00  0.00    +0.000 C 
ATOM     25  O   UNL     1      48.439   5.377  21.428  0.00  0.00    +0.000 OA
ATOM     26  H   UNL     1      48.575   2.943  21.097  0.00  0.00    +0.000 HD
ATOM     27  H   UNL     1      48.814   2.988  19.382  0.00  0.00    +0.000 HD
ENDBRANCH  17  24
ENDBRANCH  16  21
ENDBRANCH  15  16
ENDBRANCH   1  15
TORSDOF 5
ENDMDL
MODEL 6
REMARK VINA RESULT:    -7.017      3.509      5.253
REMARK INTER + INTRA:          -9.142
REMARK INTER:                  -8.388
REMARK INTRA:                  -0.754
REMARK UNBOUND:                -0.074
REMARK  Name = 
REMARK  5 active torsions:
REMARK  status: ('A' for Active; 'I' for Inactive)
REMARK    1  A    between atoms: C_2  and  C_4
REMARK    2  A    between atoms: C_8  and  O_9
REMARK    3  A    between atoms: O_9  and  C_10
REMARK    4  A    between atoms: C_10  and  C_11
REMARK    5  A    between atoms: C_16  and  C_17
REMARK                            x       y       z     vdW  Elec       q    Type
REMARK                         _______ _______ _______ _____ _____    ______ ____
ROOT
ATOM      1  C   UNL     1      48.028   6.603  14.024  0.00  0.00    +0.000 A 
ATOM      2  C   UNL     1      48.920   7.657  14.227  0.00  0.00    +0.000 A 
ATOM      3  C   UNL     1      49.637   7.726  15.413  0.00  0.00    +0.000 A 
ATOM      4  F   UNL     1      50.486   8.742  15.610  0.00  0.00    +0.000 F 
ATOM      5  C   UNL     1      49.456   6.783  16.420  0.00  0.00    +0.000 A 
ATOM      6  C   UNL     1      48.521   5.752  16.272  0.00  0.00    +0.000 A 
ATOM      7  C   UNL     1      47.871   5.635  15.029  0.00  0.00    +0.000 A 
ENDROOT
BRANCH   6   8
ATOM      8  C   UNL     1      48.129   4.794  17.396  0.00  0.00    +0.000 C 
ATOM      9  C   UNL     1      49.338   4.481  18.309  0.00  0.00    +0.000 C 
ATOM     10  C   UNL     1      50.323   3.528  17.632  0.00  0.00    +0.000 C 
ATOM     11  N   UNL     1      49.687   2.263  17.259  0.00  0.00    +0.000 NA
ATOM     12  C   UNL     1      48.538   2.474  16.383  0.00  0.00    +0.000 C 
ATOM     13  C   UNL     1      47.511   3.446  16.969  0.00  0.00    +0.000 C 
ATOM     14  H   UNL     1      49.383   1.780  18.105  0.00  0.00    +0.000 HD
ENDBRANCH   6   8
BRANCH   1  15
ATOM     15  C   UNL     1      47.222   6.518  12.759  0.00  0.00    +0.000 C 
BRANCH  15  16
ATOM     16  O   UNL     1      45.853   6.347  13.104  0.00  0.00    +0.000 OA
BRANCH  16  21
ATOM     17  C   UNL     1      44.842   4.344  10.258  0.00  0.00    +0.000 A 
ATOM     18  C   UNL     1      43.947   3.434  10.824  0.00  0.00    +0.000 A 
ATOM     19  C   UNL     1      43.681   3.478  12.192  0.00  0.00    +0.000 A 
ATOM     20  C   UNL     1      44.302   4.438  12.994  0.00  0.00    +0.000 A 
ATOM     21  C   UNL     1      45.186   5.361  12.431  0.00  0.00    +0.000 A 
ATOM     22  C   UNL     1      45.450   5.317  11.060  0.00  0.00    +0.000 A 
BRANCH  17  24
ATOM     23  N   UNL     1      44.326   3.429   8.067  0.00  0.00    +0.000 N 
ATOM     24  C   UNL     1      45.117   4.264   8.802  0.00  0.00    +0.000 C 
ATOM     25  O   UNL     1      45.983   4.949   8.274  0.00  0.00    +0.000 OA
ATOM     26  H   UNL     1      44.447   3.455   7.064  0.00  0.00    +0.000 HD
ATOM     27  H   UNL     1      43.465   3.033   8.427  0.00  0.00    +0.000 HD
ENDBRANCH  17  24
ENDBRANCH  16  21
ENDBRANCH  15  16
ENDBRANCH   1  15
TORSDOF 5
ENDMDL
MODEL 7
REMARK VINA RESULT:    -6.686      4.615      7.730
REMARK INTER + INTRA:          -8.714
REMARK INTER:                  -8.087
REMARK INTRA:                  -0.627
REMARK UNBOUND:                -0.074
REMARK  Name = 
REMARK  5 active torsions:
REMARK  status: ('A' for Active; 'I' for Inactive)
REMARK    1  A    between atoms: C_2  and  C_4
REMARK    2  A    between atoms: C_8  and  O_9
REMARK    3  A    between atoms: O_9  and  C_10
REMARK    4  A    between atoms: C_10  and  C_11
REMARK    5  A    between atoms: C_16  and  C_17
REMARK                            x       y       z     vdW  Elec       q    Type
REMARK                         _______ _______ _______ _____ _____    ______ ____
ROOT
ATOM      1  C   UNL     1      47.747   7.016  13.918  0.00  0.00    +0.000 A 
ATOM      2  C   UNL     1      47.347   8.327  13.651  0.00  0.00    +0.000 A 
ATOM      3  C   UNL     1      46.270   8.553  12.808  0.00  0.00    +0.000 A 
ATOM      4  F   UNL     1      45.892   9.811  12.546  0.00  0.00    +0.000 F 
ATOM      5  C   UNL     1      45.602   7.498  12.194  0.00  0.00    +0.000 A 
ATOM      6  C   UNL     1      46.020   6.177  12.391  0.00  0.00    +0.000 A 
ATOM      7  C   UNL     1      47.051   5.953  13.323  0.00  0.00    +0.000 A 
ENDROOT
BRANCH   6   8
ATOM      8  C   UNL     1      45.465   4.986  11.612  0.00  0.00    +0.000 C 
ATOM      9  C   UNL     1      44.386   5.436  10.599  0.00  0.00    +0.000 C 
ATOM     10  C   UNL     1      43.072   5.790  11.295  0.00  0.00    +0.000 C 
ATOM     11  N   UNL     1      42.542   4.661  12.062  0.00  0.00    +0.000 NA
ATOM     12  C   UNL     1      43.502   4.184  13.054  0.00  0.00    +0.000 C 
ATOM     13  C   UNL     1      44.864   3.836  12.447  0.00  0.00    +0.000 C 
ATOM     14  H   UNL     1      42.311   3.901  11.421  0.00  0.00    +0.000 HD
ENDBRANCH   6   8
BRANCH   1  15
ATOM     15  C   UNL     1      48.927   6.745  14.809  0.00  0.00    +0.000 C 
BRANCH  15  16
ATOM     16  O   UNL     1      48.462   6.604  16.146  0.00  0.00    +0.000 OA
BRANCH  16  21
ATOM     17  C   UNL     1      49.705   3.453  17.430  0.00  0.00    +0.000 A 
ATOM     18  C   UNL     1      48.536   2.713  17.618  0.00  0.00    +0.000 A 
ATOM     19  C   UNL     1      47.298   3.282  17.322  0.00  0.00    +0.000 A 
ATOM     20  C   UNL     1      47.228   4.587  16.829  0.00  0.00    +0.000 A 
ATOM     21  C   UNL     1      48.395   5.325  16.624  0.00  0.00    +0.000 A 
ATOM     22  C   UNL     1      49.635   4.754  16.919  0.00  0.00    +0.000 A 
BRANCH  17  24
ATOM     23  N   UNL     1      51.800   3.486  18.662  0.00  0.00    +0.000 N 
ATOM     24  C   UNL     1      51.008   2.826  17.768  0.00  0.00    +0.000 C 
ATOM     25  O   UNL     1      51.339   1.744  17.303  0.00  0.00    +0.000 OA
ATOM     26  H   UNL     1      52.636   3.008  18.968  0.00  0.00    +0.000 HD
ATOM     27  H   UNL     1      51.459   4.252  19.233  0.00  0.00    +0.000 HD
ENDBRANCH  17  24
ENDBRANCH  16  21
ENDBRANCH  15  16
ENDBRANCH   1  15
TORSDOF 5
ENDMDL
MODEL 8
REMARK VINA RESULT:    -6.680      4.115      6.117
REMARK INTER + INTRA:          -8.706
REMARK INTER:                  -8.159
REMARK INTRA:                  -0.547
REMARK UNBOUND:                -0.074
REMARK  Name = 
REMARK  5 active torsions:
REMARK  status: ('A' for Active; 'I' for Inactive)
REMARK    1  A    between atoms: C_2  and  C_4
REMARK    2  A    between atoms: C_8  and  O_9
REMARK    3  A    between atoms: O_9  and  C_10
REMARK    4  A    between atoms: C_10  and  C_11
REMARK    5  A    between atoms: C_16  and  C_17
REMARK                            x       y       z     vdW  Elec       q    Type
REMARK                         _______ _______ _______ _____ _____    ______ ____
ROOT
ATOM      1  C   UNL     1      48.701   7.023  15.249  0.00  0.00    +0.000 A 
ATOM      2  C   UNL     1      48.825   8.201  15.987  0.00  0.00    +0.000 A 
ATOM      3  C   UNL     1      48.814   8.143  17.373  0.00  0.00    +0.000 A 
ATOM      4  F   UNL     1      48.925   9.274  18.080  0.00  0.00    +0.000 F 
ATOM      5  C   UNL     1      48.645   6.934  18.041  0.00  0.00    +0.000 A 
ATOM      6  C   UNL     1      48.453   5.745  17.328  0.00  0.00    +0.000 A 
ATOM      7  C   UNL     1      48.563   5.802  15.926  0.00  0.00    +0.000 A 
ENDROOT
BRANCH   6   8
ATOM      8  C   UNL     1      48.074   4.416  17.981  0.00  0.00    +0.000 C 
ATOM      9  C   UNL     1      49.322   3.696  18.544  0.00  0.00    +0.000 C 
ATOM     10  C   UNL     1      50.170   3.084  17.429  0.00  0.00    +0.000 C 
ATOM     11  N   UNL     1      49.406   2.125  16.629  0.00  0.00    +0.000 NA
ATOM     12  C   UNL     1      48.212   2.735  16.049  0.00  0.00    +0.000 C 
ATOM     13  C   UNL     1      47.317   3.405  17.095  0.00  0.00    +0.000 C 
ATOM     14  H   UNL     1      49.131   1.340  17.221  0.00  0.00    +0.000 HD
ENDBRANCH   6   8
BRANCH   1  15
ATOM     15  C   UNL     1      48.686   7.062  13.747  0.00  0.00    +0.000 C 
BRANCH  15  16
ATOM     16  O   UNL     1      48.186   5.821  13.265  0.00  0.00    +0.000 OA
BRANCH  16  21
ATOM     17  C   UNL     1      44.891   4.698  12.261  0.00  0.00    +0.000 A 
ATOM     18  C   UNL     1      44.458   5.724  11.419  0.00  0.00    +0.000 A 
ATOM     19  C   UNL     1      45.279   6.828  11.189  0.00  0.00    +0.000 A 
ATOM     20  C   UNL     1      46.537   6.902  11.792  0.00  0.00    +0.000 A 
ATOM     21  C   UNL     1      46.981   5.870  12.621  0.00  0.00    +0.000 A 
ATOM     22  C   UNL     1      46.159   4.764  12.850  0.00  0.00    +0.000 A 
BRANCH  17  24
ATOM     23  N   UNL     1      43.954   2.576  11.536  0.00  0.00    +0.000 N 
ATOM     24  C   UNL     1      43.990   3.542  12.499  0.00  0.00    +0.000 C 
ATOM     25  O   UNL     1      43.343   3.436  13.532  0.00  0.00    +0.000 OA
ATOM     26  H   UNL     1      43.421   1.743  11.748  0.00  0.00    +0.000 HD
ATOM     27  H   UNL     1      44.640   2.519  10.792  0.00  0.00    +0.000 HD
ENDBRANCH  17  24
ENDBRANCH  16  21
ENDBRANCH  15  16
ENDBRANCH   1  15
TORSDOF 5
ENDMDL
MODEL 9
REMARK VINA RESULT:    -6.636      3.809      5.621
REMARK INTER + INTRA:          -8.650
REMARK INTER:                  -7.886
REMARK INTRA:                  -0.764
REMARK UNBOUND:                -0.074
REMARK  Name = 
REMARK  5 active torsions:
REMARK  status: ('A' for Active; 'I' for Inactive)
REMARK    1  A    between atoms: C_2  and  C_4
REMARK    2  A    between atoms: C_8  and  O_9
REMARK    3  A    between atoms: O_9  and  C_10
REMARK    4  A    between atoms: C_10  and  C_11
REMARK    5  A    between atoms: C_16  and  C_17
REMARK                            x       y       z     vdW  Elec       q    Type
REMARK                         _______ _______ _______ _____ _____    ______ ____
ROOT
ATOM      1  C   UNL     1      48.195   7.114  13.967  0.00  0.00    +0.000 A 
ATOM      2  C   UNL     1      48.137   8.491  14.190  0.00  0.00    +0.000 A 
ATOM      3  C   UNL     1      48.543   9.001  15.414  0.00  0.00    +0.000 A 
ATOM      4  F   UNL     1      48.479  10.321  15.631  0.00  0.00    +0.000 F 
ATOM      5  C   UNL     1      48.973   8.162  16.438  0.00  0.00    +0.000 A 
ATOM      6  C   UNL     1      48.981   6.773  16.266  0.00  0.00    +0.000 A 
ATOM      7  C   UNL     1      48.660   6.273  14.990  0.00  0.00    +0.000 A 
ENDROOT
BRANCH   6   8
ATOM      8  C   UNL     1      49.257   5.780  17.394  0.00  0.00    +0.000 C 
ATOM      9  C   UNL     1      48.695   4.380  17.054  0.00  0.00    +0.000 C 
ATOM     10  C   UNL     1      47.172   4.338  17.183  0.00  0.00    +0.000 C 
ATOM     11  N   UNL     1      46.730   4.698  18.531  0.00  0.00    +0.000 NA
ATOM     12  C   UNL     1      47.212   6.020  18.923  0.00  0.00    +0.000 C 
ATOM     13  C   UNL     1      48.731   6.163  18.793  0.00  0.00    +0.000 C 
ATOM     14  H   UNL     1      47.075   4.002  19.193  0.00  0.00    +0.000 HD
ENDBRANCH   6   8
BRANCH   1  15
ATOM     15  C   UNL     1      47.738   6.534  12.658  0.00  0.00    +0.000 C 
BRANCH  15  16
ATOM     16  O   UNL     1      46.785   7.416  12.079  0.00  0.00    +0.000 OA
BRANCH  16  21
ATOM     17  C   UNL     1      44.307   4.803  11.676  0.00  0.00    +0.000 A 
ATOM     18  C   UNL     1      43.175   5.511  11.268  0.00  0.00    +0.000 A 
ATOM     19  C   UNL     1      43.233   6.898  11.135  0.00  0.00    +0.000 A 
ATOM     20  C   UNL     1      44.424   7.577  11.401  0.00  0.00    +0.000 A 
ATOM     21  C   UNL     1      45.563   6.872  11.794  0.00  0.00    +0.000 A 
ATOM     22  C   UNL     1      45.505   5.483  11.925  0.00  0.00    +0.000 A 
BRANCH  17  24
ATOM     23  N   UNL     1      45.223   2.707  12.497  0.00  0.00    +0.000 N 
ATOM     24  C   UNL     1      44.212   3.329  11.823  0.00  0.00    +0.000 C 
ATOM     25  O   UNL     1      43.249   2.703  11.402  0.00  0.00    +0.000 OA
ATOM     26  H   UNL     1      45.104   1.721  12.685  0.00  0.00    +0.000 HD
ATOM     27  H   UNL     1      45.904   3.214  13.052  0.00  0.00    +0.000 HD
ENDBRANCH  17  24
ENDBRANCH  16  21
ENDBRANCH  15  16
ENDBRANCH   1  15
TORSDOF 5
ENDMDL
