MODEL 1
REMARK VINA RESULT:    -8.482      0.000      0.000
REMARK INTER + INTRA:         -13.104
REMARK INTER:                 -12.201
REMARK INTRA:                  -0.903
REMARK UNBOUND:                -0.903
REMARK  Name = 
REMARK  8 active torsions:
REMARK  status: ('A' for Active; 'I' for Inactive)
REMARK    1  A    between atoms: N_1  and  C_2
REMARK    2  A    between atoms: C_2  and  N_3
REMARK    3  A    between atoms: C_2  and  C_19
REMARK    4  A    between atoms: N_3  and  C_4
REMARK    5  A    between atoms: C_4  and  C_5
REMARK    6  A    between atoms: C_8  and  C_9
REMARK    7  A    between atoms: C_9  and  N_10
REMARK    8  A    between atoms: N_10  and  C_11
REMARK                            x       y       z     vdW  Elec       q    Type
REMARK                         _______ _______ _______ _____ _____    ______ ____
ROOT
ATOM      1  N   UNL     1      46.840   4.652  15.901  0.00  0.00    +0.000 NA
ATOM      2  H   UNL     1      46.859   5.443  16.553  0.00  0.00    +0.000 HD
ENDROOT
BRANCH   1   3
ATOM      3  C   UNL     1      47.516   3.567  16.573  0.00  0.00    +0.000 C 
BRANCH   3   4
ATOM      4  C   UNL     1      48.689   4.118  17.357  0.00  0.00    +0.000 A 
ATOM      5  C   UNL     1      48.700   5.306  18.083  0.00  0.00    +0.000 A 
ATOM      6  S   UNL     1      50.161   5.596  18.912  0.00  0.00    +0.000 S 
ATOM      7  C   UNL     1      50.831   4.138  18.348  0.00  0.00    +0.000 A 
ATOM      8  N   UNL     1      52.078   3.743  18.719  0.00  0.00    +0.000 NA
ATOM      9  C   UNL     1      52.434   2.605  18.229  0.00  0.00    +0.000 A 
ATOM     10  N   UNL     1      51.674   1.831  17.392  0.00  0.00    +0.000 N 
ATOM     11  C   UNL     1      50.422   2.207  16.952  0.00  0.00    +0.000 A 
ATOM     12  O   UNL     1      49.780   1.541  16.149  0.00  0.00    +0.000 OA
ATOM     13  C   UNL     1      49.959   3.462  17.518  0.00  0.00    +0.000 A 
ATOM     14  H   UNL     1      52.028   0.958  17.029  0.00  0.00    +0.000 HD
ENDBRANCH   3   4
BRANCH   3  15
ATOM     15  N   UNL     1      46.573   3.021  17.520  0.00  0.00    +0.000 NA
ATOM     16  H   UNL     1      46.267   2.112  17.194  0.00  0.00    +0.000 HD
ATOM     17  H   UNL     1      45.761   3.632  17.448  0.00  0.00    +0.000 HD
ENDBRANCH   3  15
ENDBRANCH   1   3
BRANCH   1  18
ATOM     18  C   UNL     1      47.534   5.101  14.691  0.00  0.00    +0.000 C 
BRANCH  18  19
ATOM     19  C   UNL     1      46.699   4.931  13.450  0.00  0.00    +0.000 A 
ATOM     20  C   UNL     1      45.950   3.768  13.235  0.00  0.00    +0.000 A 
ATOM     21  C   UNL     1      45.124   3.661  12.116  0.00  0.00    +0.000 A 
ATOM     22  C   UNL     1      45.020   4.722  11.203  0.00  0.00    +0.000 A 
ATOM     23  C   UNL     1      45.789   5.872  11.406  0.00  0.00    +0.000 A 
ATOM     24  C   UNL     1      46.622   5.975  12.516  0.00  0.00    +0.000 A 
BRANCH  22  25
ATOM     25  C   UNL     1      44.143   4.617   9.982  0.00  0.00    +0.000 C 
BRANCH  25  26
ATOM     26  N   UNL     1      43.951   3.230   9.552  0.00  0.00    +0.000 NA
ATOM     27  H   UNL     1      42.970   3.110   9.296  0.00  0.00    +0.000 HD
BRANCH  26  28
ATOM     28  C   UNL     1      44.803   2.876   8.404  0.00  0.00    +0.000 C 
ATOM     29  C   UNL     1      45.680   1.668   8.764  0.00  0.00    +0.000 C 
ATOM     30  C   UNL     1      46.638   1.347   7.622  0.00  0.00    +0.000 C 
ATOM     31  O   UNL     1      47.429   2.481   7.275  0.00  0.00    +0.000 OA
ATOM     32  C   UNL     1      46.632   3.576   6.835  0.00  0.00    +0.000 C 
ATOM     33  C   UNL     1      45.694   4.037   7.938  0.00  0.00    +0.000 C 
ENDBRANCH  26  28
ENDBRANCH  25  26
ENDBRANCH  22  25
ENDBRANCH  18  19
ENDBRANCH   1  18
TORSDOF 8
ENDMDL
MODEL 2
REMARK VINA RESULT:    -7.620      1.860      2.694
REMARK INTER + INTRA:         -11.864
REMARK INTER:                 -11.218
REMARK INTRA:                  -0.646
REMARK UNBOUND:                -0.903
REMARK  Name = 
REMARK  8 active torsions:
REMARK  status: ('A' for Active; 'I' for Inactive)
REMARK    1  A    between atoms: N_1  and  C_2
REMARK    2  A    between atoms: C_2  and  N_3
REMARK    3  A    between atoms: C_2  and  C_19
REMARK    4  A    between atoms: N_3  and  C_4
REMARK    5  A    between atoms: C_4  and  C_5
REMARK    6  A    between atoms: C_8  and  C_9
REMARK    7  A    between atoms: C_9  and  N_10
REMARK    8  A    between atoms: N_10  and  C_11
REMARK                            x       y       z     vdW  Elec       q    Type
REMARK                         _______ _______ _______ _____ _____    ______ ____
ROOT
ATOM      1  N   UNL     1      47.018   4.852  16.039  0.00  0.00    +0.000 NA
ATOM      2  H   UNL     1      47.212   5.621  16.688  0.00  0.00    +0.000 HD
ENDROOT
BRANCH   1   3
ATOM      3  C   UNL     1      47.607   3.673  16.632  0.00  0.00    +0.000 C 
BRANCH   3   4
ATOM      4  C   UNL     1      48.741   4.089  17.546  0.00  0.00    +0.000 A 
ATOM      5  C   UNL     1      50.062   3.660  17.454  0.00  0.00    +0.000 A 
ATOM      6  S   UNL     1      51.103   4.380  18.597  0.00  0.00    +0.000 S 
ATOM      7  C   UNL     1      49.833   5.306  19.248  0.00  0.00    +0.000 A 
ATOM      8  N   UNL     1      50.049   6.189  20.259  0.00  0.00    +0.000 NA
ATOM      9  C   UNL     1      48.994   6.831  20.626  0.00  0.00    +0.000 A 
ATOM     10  N   UNL     1      47.742   6.669  20.093  0.00  0.00    +0.000 N 
ATOM     11  C   UNL     1      47.463   5.756  19.097  0.00  0.00    +0.000 A 
ATOM     12  O   UNL     1      46.328   5.569  18.676  0.00  0.00    +0.000 OA
ATOM     13  C   UNL     1      48.633   5.042  18.618  0.00  0.00    +0.000 A 
ATOM     14  H   UNL     1      46.956   7.194  20.447  0.00  0.00    +0.000 HD
ENDBRANCH   3   4
BRANCH   3  15
ATOM     15  N   UNL     1      46.582   3.070  17.450  0.00  0.00    +0.000 NA
ATOM     16  H   UNL     1      46.765   3.288  18.422  0.00  0.00    +0.000 HD
ATOM     17  H   UNL     1      46.739   2.068  17.354  0.00  0.00    +0.000 HD
ENDBRANCH   3  15
ENDBRANCH   1   3
BRANCH   1  18
ATOM     18  C   UNL     1      47.635   5.224  14.764  0.00  0.00    +0.000 C 
BRANCH  18  19
ATOM     19  C   UNL     1      46.714   5.009  13.592  0.00  0.00    +0.000 A 
ATOM     20  C   UNL     1      46.374   6.064  12.736  0.00  0.00    +0.000 A 
ATOM     21  C   UNL     1      45.580   5.829  11.613  0.00  0.00    +0.000 A 
ATOM     22  C   UNL     1      45.129   4.534  11.318  0.00  0.00    +0.000 A 
ATOM     23  C   UNL     1      45.448   3.486  12.189  0.00  0.00    +0.000 A 
ATOM     24  C   UNL     1      46.229   3.722  13.316  0.00  0.00    +0.000 A 
BRANCH  22  25
ATOM     25  C   UNL     1      44.259   4.265  10.117  0.00  0.00    +0.000 C 
BRANCH  25  26
ATOM     26  N   UNL     1      44.878   4.719   8.869  0.00  0.00    +0.000 NA
ATOM     27  H   UNL     1      45.666   5.323   9.106  0.00  0.00    +0.000 HD
BRANCH  26  28
ATOM     28  C   UNL     1      45.352   3.599   8.039  0.00  0.00    +0.000 C 
ATOM     29  C   UNL     1      45.481   2.335   8.901  0.00  0.00    +0.000 C 
ATOM     30  C   UNL     1      46.063   1.188   8.082  0.00  0.00    +0.000 C 
ATOM     31  O   UNL     1      47.312   1.551   7.498  0.00  0.00    +0.000 OA
ATOM     32  C   UNL     1      47.188   2.657   6.610  0.00  0.00    +0.000 C 
ATOM     33  C   UNL     1      46.694   3.889   7.350  0.00  0.00    +0.000 C 
ENDBRANCH  26  28
ENDBRANCH  25  26
ENDBRANCH  22  25
ENDBRANCH  18  19
ENDBRANCH   1  18
TORSDOF 8
ENDMDL
MODEL 3
REMARK VINA RESULT:    -7.243      2.770      8.909
REMARK INTER + INTRA:         -11.321
REMARK INTER:                 -10.147
REMARK INTRA:                  -1.174
REMARK UNBOUND:                -0.903
REMARK  Name = 
REMARK  8 active torsions:
REMARK  status: ('A' for Active; 'I' for Inactive)
REMARK    1  A    between atoms: N_1  and  C_2
REMARK    2  A    between atoms: C_2  and  N_3
REMARK    3  A    between atoms: C_2  and  C_19
REMARK    4  A    between atoms: N_3  and  C_4
REMARK    5  A    between atoms: C_4  and  C_5
REMARK    6  A    between atoms: C_8  and  C_9
REMARK    7  A    between atoms: C_9  and  N_10
REMARK    8  A    between atoms: N_10  and  C_11
REMARK                            x       y       z     vdW  Elec       q    Type
REMARK                         _______ _______ _______ _____ _____    ______ ____
ROOT
ATOM      1  N   UNL     1      45.325   7.018  12.219  0.00  0.00    +0.000 NA
ATOM      2  H   UNL     1      44.844   6.591  13.018  0.00  0.00    +0.000 HD
ENDROOT
BRANCH   1   3
ATOM      3  C   UNL     1      44.549   6.662  11.053  0.00  0.00    +0.000 C 
BRANCH   3   4
ATOM      4  C   UNL     1      44.295   5.169  11.059  0.00  0.00    +0.000 A 
ATOM      5  C   UNL     1      43.504   4.480  11.973  0.00  0.00    +0.000 A 
ATOM      6  S   UNL     1      43.369   2.810  11.649  0.00  0.00    +0.000 S 
ATOM      7  C   UNL     1      44.348   2.947  10.265  0.00  0.00    +0.000 A 
ATOM      8  N   UNL     1      44.613   1.870   9.478  0.00  0.00    +0.000 NA
ATOM      9  C   UNL     1      45.350   2.139   8.455  0.00  0.00    +0.000 A 
ATOM     10  N   UNL     1      45.860   3.374   8.149  0.00  0.00    +0.000 N 
ATOM     11  C   UNL     1      45.656   4.486   8.937  0.00  0.00    +0.000 A 
ATOM     12  O   UNL     1      46.174   5.569   8.692  0.00  0.00    +0.000 OA
ATOM     13  C   UNL     1      44.791   4.242  10.078  0.00  0.00    +0.000 A 
ATOM     14  H   UNL     1      46.448   3.505   7.339  0.00  0.00    +0.000 HD
ENDBRANCH   3   4
BRANCH   3  15
ATOM     15  N   UNL     1      43.275   7.325  11.191  0.00  0.00    +0.000 NA
ATOM     16  H   UNL     1      42.554   6.743  10.783  0.00  0.00    +0.000 HD
ATOM     17  H   UNL     1      43.349   8.143  10.587  0.00  0.00    +0.000 HD
ENDBRANCH   3  15
ENDBRANCH   1   3
BRANCH   1  18
ATOM     18  C   UNL     1      46.677   6.455  12.205  0.00  0.00    +0.000 C 
BRANCH  18  19
ATOM     19  C   UNL     1      47.102   5.939  13.554  0.00  0.00    +0.000 A 
ATOM     20  C   UNL     1      46.586   4.743  14.067  0.00  0.00    +0.000 A 
ATOM     21  C   UNL     1      47.049   4.243  15.285  0.00  0.00    +0.000 A 
ATOM     22  C   UNL     1      48.047   4.922  16.000  0.00  0.00    +0.000 A 
ATOM     23  C   UNL     1      48.542   6.130  15.499  0.00  0.00    +0.000 A 
ATOM     24  C   UNL     1      48.072   6.636  14.290  0.00  0.00    +0.000 A 
BRANCH  22  25
ATOM     25  C   UNL     1      48.548   4.404  17.323  0.00  0.00    +0.000 C 
BRANCH  25  26
ATOM     26  N   UNL     1      49.882   4.912  17.652  0.00  0.00    +0.000 NA
ATOM     27  H   UNL     1      49.883   5.192  18.633  0.00  0.00    +0.000 HD
BRANCH  26  28
ATOM     28  C   UNL     1      50.935   3.906  17.429  0.00  0.00    +0.000 C 
ATOM     29  C   UNL     1      50.316   2.501  17.429  0.00  0.00    +0.000 C 
ATOM     30  C   UNL     1      51.403   1.440  17.296  0.00  0.00    +0.000 C 
ATOM     31  O   UNL     1      52.387   1.577  18.319  0.00  0.00    +0.000 OA
ATOM     32  C   UNL     1      53.047   2.837  18.263  0.00  0.00    +0.000 C 
ATOM     33  C   UNL     1      52.058   3.972  18.474  0.00  0.00    +0.000 C 
ENDBRANCH  26  28
ENDBRANCH  25  26
ENDBRANCH  22  25
ENDBRANCH  18  19
ENDBRANCH   1  18
TORSDOF 8
ENDMDL
MODEL 4
REMARK VINA RESULT:    -7.172      2.353      2.758
REMARK INTER + INTRA:         -11.220
REMARK INTER:                 -10.478
REMARK INTRA:                  -0.741
REMARK UNBOUND:                -0.903
REMARK  Name = 
REMARK  8 active torsions:
REMARK  status: ('A' for Active; 'I' for Inactive)
REMARK    1  A    between atoms: N_1  and  C_2
REMARK    2  A    between atoms: C_2  and  N_3
REMARK    3  A    between atoms: C_2  and  C_19
REMARK    4  A    between atoms: N_3  and  C_4
REMARK    5  A    between atoms: C_4  and  C_5
REMARK    6  A    between atoms: C_8  and  C_9
REMARK    7  A    between atoms: C_9  and  N_10
REMARK    8  A    between atoms: N_10  and  C_11
REMARK                            x       y       z     vdW  Elec       q    Type
REMARK                         _______ _______ _______ _____ _____    ______ ____
ROOT
ATOM      1  N   UNL     1      46.654   4.590  15.209  0.00  0.00    +0.000 NA
ATOM      2  H   UNL     1      46.034   4.986  15.922  0.00  0.00    +0.000 HD
ENDROOT
BRANCH   1   3
ATOM      3  C   UNL     1      47.911   4.333  15.875  0.00  0.00    +0.000 C 
BRANCH   3   4
ATOM      4  C   UNL     1      48.003   5.196  17.117  0.00  0.00    +0.000 A 
ATOM      5  C   UNL     1      47.326   4.980  18.313  0.00  0.00    +0.000 A 
ATOM      6  S   UNL     1      47.713   6.100  19.539  0.00  0.00    +0.000 S 
ATOM      7  C   UNL     1      48.814   6.908  18.524  0.00  0.00    +0.000 A 
ATOM      8  N   UNL     1      49.538   7.969  18.970  0.00  0.00    +0.000 NA
ATOM      9  C   UNL     1      50.345   8.458  18.092  0.00  0.00    +0.000 A 
ATOM     10  N   UNL     1      50.488   8.002  16.807  0.00  0.00    +0.000 N 
ATOM     11  C   UNL     1      49.746   6.959  16.295  0.00  0.00    +0.000 A 
ATOM     12  O   UNL     1      49.831   6.605  15.125  0.00  0.00    +0.000 OA
ATOM     13  C   UNL     1      48.856   6.345  17.264  0.00  0.00    +0.000 A 
ATOM     14  H   UNL     1      51.127   8.449  16.166  0.00  0.00    +0.000 HD
ENDBRANCH   3   4
BRANCH   3  15
ATOM     15  N   UNL     1      47.875   2.954  16.300  0.00  0.00    +0.000 NA
ATOM     16  H   UNL     1      47.840   2.358  15.482  0.00  0.00    +0.000 HD
ATOM     17  H   UNL     1      46.971   2.854  16.758  0.00  0.00    +0.000 HD
ENDBRANCH   3  15
ENDBRANCH   1   3
BRANCH   1  18
ATOM     18  C   UNL     1      46.759   5.596  14.150  0.00  0.00    +0.000 C 
BRANCH  18  19
ATOM     19  C   UNL     1      46.177   5.122  12.844  0.00  0.00    +0.000 A 
ATOM     20  C   UNL     1      45.586   3.858  12.731  0.00  0.00    +0.000 A 
ATOM     21  C   UNL     1      44.986   3.468  11.534  0.00  0.00    +0.000 A 
ATOM     22  C   UNL     1      44.951   4.340  10.437  0.00  0.00    +0.000 A 
ATOM     23  C   UNL     1      45.566   5.593  10.543  0.00  0.00    +0.000 A 
ATOM     24  C   UNL     1      46.176   5.978  11.733  0.00  0.00    +0.000 A 
BRANCH  22  25
ATOM     25  C   UNL     1      44.320   3.929   9.132  0.00  0.00    +0.000 C 
BRANCH  25  26
ATOM     26  N   UNL     1      45.128   4.321   7.974  0.00  0.00    +0.000 NA
ATOM     27  H   UNL     1      45.858   4.957   8.297  0.00  0.00    +0.000 HD
BRANCH  26  28
ATOM     28  C   UNL     1      45.747   3.164   7.305  0.00  0.00    +0.000 C 
ATOM     29  C   UNL     1      46.034   2.063   8.337  0.00  0.00    +0.000 C 
ATOM     30  C   UNL     1      46.763   0.896   7.681  0.00  0.00    +0.000 C 
ATOM     31  O   UNL     1      47.957   1.329   7.034  0.00  0.00    +0.000 OA
ATOM     32  C   UNL     1      47.695   2.271   5.999  0.00  0.00    +0.000 C 
ATOM     33  C   UNL     1      47.042   3.523   6.563  0.00  0.00    +0.000 C 
ENDBRANCH  26  28
ENDBRANCH  25  26
ENDBRANCH  22  25
ENDBRANCH  18  19
ENDBRANCH   1  18
TORSDOF 8
ENDMDL
MODEL 5
REMARK VINA RESULT:    -7.107      3.182      4.171
REMARK INTER + INTRA:         -11.126
REMARK INTER:                 -10.168
REMARK INTRA:                  -0.958
REMARK UNBOUND:                -0.903
REMARK  Name = 
REMARK  8 active torsions:
REMARK  status: ('A' for Active; 'I' for Inactive)
REMARK    1  A    between atoms: N_1  and  C_2
REMARK    2  A    between atoms: C_2  and  N_3
REMARK    3  A    between atoms: C_2  and  C_19
REMARK    4  A    between atoms: N_3  and  C_4
REMARK    5  A    between atoms: C_4  and  C_5
REMARK    6  A    between atoms: C_8  and  C_9
REMARK    7  A    between atoms: C_9  and  N_10
REMARK    8  A    between atoms: N_10  and  C_11
REMARK                            x       y       z     vdW  Elec       q    Type
REMARK                         _______ _______ _______ _____ _____    ______ ____
ROOT
ATOM      1  N   UNL     1      45.995   6.453  13.648  0.00  0.00    +0.000 NA
ATOM      2  H   UNL     1      46.348   7.044  12.889  0.00  0.00    +0.000 HD
ENDROOT
BRANCH   1   3
ATOM      3  C   UNL     1      47.029   5.476  13.904  0.00  0.00    +0.000 C 
BRANCH   3   4
ATOM      4  C   UNL     1      48.182   6.147  14.622  0.00  0.00    +0.000 A 
ATOM      5  C   UNL     1      48.505   5.996  15.967  0.00  0.00    +0.000 A 
ATOM      6  S   UNL     1      49.912   6.836  16.438  0.00  0.00    +0.000 S 
ATOM      7  C   UNL     1      50.155   7.422  14.859  0.00  0.00    +0.000 A 
ATOM      8  N   UNL     1      51.229   8.195  14.550  0.00  0.00    +0.000 NA
ATOM      9  C   UNL     1      51.285   8.539  13.309  0.00  0.00    +0.000 A 
ATOM     10  N   UNL     1      50.367   8.199  12.350  0.00  0.00    +0.000 N 
ATOM     11  C   UNL     1      49.239   7.454  12.623  0.00  0.00    +0.000 A 
ATOM     12  O   UNL     1      48.389   7.214  11.774  0.00  0.00    +0.000 OA
ATOM     13  C   UNL     1      49.158   7.003  14.001  0.00  0.00    +0.000 A 
ATOM     14  H   UNL     1      50.465   8.524  11.400  0.00  0.00    +0.000 HD
ENDBRANCH   3   4
BRANCH   3  15
ATOM     15  N   UNL     1      46.459   4.502  14.804  0.00  0.00    +0.000 NA
ATOM     16  H   UNL     1      47.207   3.974  15.235  0.00  0.00    +0.000 HD
ATOM     17  H   UNL     1      45.971   3.849  14.193  0.00  0.00    +0.000 HD
ENDBRANCH   3  15
ENDBRANCH   1   3
BRANCH   1  18
ATOM     18  C   UNL     1      44.749   5.857  13.160  0.00  0.00    +0.000 C 
BRANCH  18  19
ATOM     19  C   UNL     1      44.885   5.292  11.771  0.00  0.00    +0.000 A 
ATOM     20  C   UNL     1      44.231   4.110  11.403  0.00  0.00    +0.000 A 
ATOM     21  C   UNL     1      44.308   3.643  10.091  0.00  0.00    +0.000 A 
ATOM     22  C   UNL     1      45.027   4.359   9.121  0.00  0.00    +0.000 A 
ATOM     23  C   UNL     1      45.703   5.525   9.497  0.00  0.00    +0.000 A 
ATOM     24  C   UNL     1      45.636   5.984  10.809  0.00  0.00    +0.000 A 
BRANCH  22  25
ATOM     25  C   UNL     1      45.132   3.861   7.703  0.00  0.00    +0.000 C 
BRANCH  25  26
ATOM     26  N   UNL     1      46.454   4.111   7.122  0.00  0.00    +0.000 NA
ATOM     27  H   UNL     1      47.017   4.607   7.814  0.00  0.00    +0.000 HD
BRANCH  26  28
ATOM     28  C   UNL     1      47.140   2.867   6.735  0.00  0.00    +0.000 C 
ATOM     29  C   UNL     1      46.872   2.569   5.252  0.00  0.00    +0.000 C 
ATOM     30  C   UNL     1      47.494   1.234   4.856  0.00  0.00    +0.000 C 
ATOM     31  O   UNL     1      47.029   0.178   5.693  0.00  0.00    +0.000 OA
ATOM     32  C   UNL     1      47.366   0.389   7.060  0.00  0.00    +0.000 C 
ATOM     33  C   UNL     1      46.719   1.660   7.585  0.00  0.00    +0.000 C 
ENDBRANCH  26  28
ENDBRANCH  25  26
ENDBRANCH  22  25
ENDBRANCH  18  19
ENDBRANCH   1  18
TORSDOF 8
ENDMDL
MODEL 6
REMARK VINA RESULT:    -7.004      1.708      2.232
REMARK INTER + INTRA:         -10.978
REMARK INTER:                  -9.879
REMARK INTRA:                  -1.099
REMARK UNBOUND:                -0.903
REMARK  Name = 
REMARK  8 active torsions:
REMARK  status: ('A' for Active; 'I' for Inactive)
REMARK    1  A    between atoms: N_1  and  C_2
REMARK    2  A    between atoms: C_2  and  N_3
REMARK    3  A    between atoms: C_2  and  C_19
REMARK    4  A    between atoms: N_3  and  C_4
REMARK    5  A    between atoms: C_4  and  C_5
REMARK    6  A    between atoms: C_8  and  C_9
REMARK    7  A    between atoms: C_9  and  N_10
REMARK    8  A    between atoms: N_10  and  C_11
REMARK                            x       y       z     vdW  Elec       q    Type
REMARK                         _______ _______ _______ _____ _____    ______ ____
ROOT
ATOM      1  N   UNL     1      48.831   5.350  16.168  0.00  0.00    +0.000 NA
ATOM      2  H   UNL     1      47.845   5.088  16.255  0.00  0.00    +0.000 HD
ENDROOT
BRANCH   1   3
ATOM      3  C   UNL     1      49.304   5.575  17.515  0.00  0.00    +0.000 C 
BRANCH   3   4
ATOM      4  C   UNL     1      50.696   4.995  17.658  0.00  0.00    +0.000 A 
ATOM      5  C   UNL     1      51.856   5.715  17.926  0.00  0.00    +0.000 A 
ATOM      6  S   UNL     1      53.247   4.744  18.099  0.00  0.00    +0.000 S 
ATOM      7  C   UNL     1      52.351   3.322  17.839  0.00  0.00    +0.000 A 
ATOM      8  N   UNL     1      52.939   2.097  17.890  0.00  0.00    +0.000 NA
ATOM      9  C   UNL     1      52.123   1.118  17.697  0.00  0.00    +0.000 A 
ATOM     10  N   UNL     1      50.782   1.241  17.442  0.00  0.00    +0.000 N 
ATOM     11  C   UNL     1      50.149   2.461  17.338  0.00  0.00    +0.000 A 
ATOM     12  O   UNL     1      48.965   2.563  17.041  0.00  0.00    +0.000 OA
ATOM     13  C   UNL     1      51.019   3.595  17.596  0.00  0.00    +0.000 A 
ATOM     14  H   UNL     1      50.208   0.427  17.280  0.00  0.00    +0.000 HD
ENDBRANCH   3   4
BRANCH   3  15
ATOM     15  N   UNL     1      49.404   7.005  17.681  0.00  0.00    +0.000 NA
ATOM     16  H   UNL     1      50.236   7.217  18.217  0.00  0.00    +0.000 HD
ATOM     17  H   UNL     1      48.616   7.245  18.280  0.00  0.00    +0.000 HD
ENDBRANCH   3  15
ENDBRANCH   1   3
BRANCH   1  18
ATOM     18  C   UNL     1      48.863   6.557  15.338  0.00  0.00    +0.000 C 
BRANCH  18  19
ATOM     19  C   UNL     1      47.977   6.447  14.126  0.00  0.00    +0.000 A 
ATOM     20  C   UNL     1      47.176   5.319  13.914  0.00  0.00    +0.000 A 
ATOM     21  C   UNL     1      46.306   5.269  12.825  0.00  0.00    +0.000 A 
ATOM     22  C   UNL     1      46.209   6.354  11.940  0.00  0.00    +0.000 A 
ATOM     23  C   UNL     1      47.030   7.469  12.138  0.00  0.00    +0.000 A 
ATOM     24  C   UNL     1      47.907   7.514  13.218  0.00  0.00    +0.000 A 
BRANCH  22  25
ATOM     25  C   UNL     1      45.285   6.311  10.751  0.00  0.00    +0.000 C 
BRANCH  25  26
ATOM     26  N   UNL     1      44.315   5.215  10.838  0.00  0.00    +0.000 NA
ATOM     27  H   UNL     1      43.378   5.621  10.854  0.00  0.00    +0.000 HD
BRANCH  26  28
ATOM     28  C   UNL     1      44.424   4.280   9.706  0.00  0.00    +0.000 C 
ATOM     29  C   UNL     1      44.605   2.849  10.234  0.00  0.00    +0.000 C 
ATOM     30  C   UNL     1      44.816   1.877   9.078  0.00  0.00    +0.000 C 
ATOM     31  O   UNL     1      45.916   2.275   8.262  0.00  0.00    +0.000 OA
ATOM     32  C   UNL     1      45.713   3.558   7.677  0.00  0.00    +0.000 C 
ATOM     33  C   UNL     1      45.577   4.624   8.752  0.00  0.00    +0.000 C 
ENDBRANCH  26  28
ENDBRANCH  25  26
ENDBRANCH  22  25
ENDBRANCH  18  19
ENDBRANCH   1  18
TORSDOF 8
ENDMDL
MODEL 7
REMARK VINA RESULT:    -6.917      2.823      4.176
REMARK INTER + INTRA:         -10.853
REMARK INTER:                  -9.573
REMARK INTRA:                  -1.281
REMARK UNBOUND:                -0.903
REMARK  Name = 
REMARK  8 active torsions:
REMARK  status: ('A' for Active; 'I' for Inactive)
REMARK    1  A    between atoms: N_1  and  C_2
REMARK    2  A    between atoms: C_2  and  N_3
REMARK    3  A    between atoms: C_2  and  C_19
REMARK    4  A    between atoms: N_3  and  C_4
REMARK    5  A    between atoms: C_4  and  C_5
REMARK    6  A    between atoms: C_8  and  C_9
REMARK    7  A    between atoms: C_9  and  N_10
REMARK    8  A    between atoms: N_10  and  C_11
REMARK                            x       y       z     vdW  Elec       q    Type
REMARK                         _______ _______ _______ _____ _____    ______ ____
ROOT
ATOM      1  N   UNL     1      50.336   7.014  14.972  0.00  0.00    +0.000 NA
ATOM      2  H   UNL     1      49.903   6.139  14.659  0.00  0.00    +0.000 HD
ENDROOT
BRANCH   1   3
ATOM      3  C   UNL     1      49.622   7.406  16.165  0.00  0.00    +0.000 C 
BRANCH   3   4
ATOM      4  C   UNL     1      49.636   6.259  17.155  0.00  0.00    +0.000 A 
ATOM      5  C   UNL     1      50.413   6.184  18.306  0.00  0.00    +0.000 A 
ATOM      6  S   UNL     1      50.132   4.785  19.240  0.00  0.00    +0.000 S 
ATOM      7  C   UNL     1      48.948   4.232  18.151  0.00  0.00    +0.000 A 
ATOM      8  N   UNL     1      48.264   3.079  18.376  0.00  0.00    +0.000 NA
ATOM      9  C   UNL     1      47.385   2.808  17.473  0.00  0.00    +0.000 A 
ATOM     10  N   UNL     1      47.132   3.567  16.360  0.00  0.00    +0.000 N 
ATOM     11  C   UNL     1      47.828   4.720  16.065  0.00  0.00    +0.000 A 
ATOM     12  O   UNL     1      47.643   5.353  15.033  0.00  0.00    +0.000 OA
ATOM     13  C   UNL     1      48.798   5.092  17.080  0.00  0.00    +0.000 A 
ATOM     14  H   UNL     1      46.441   3.280  15.683  0.00  0.00    +0.000 HD
ENDBRANCH   3   4
BRANCH   3  15
ATOM     15  N   UNL     1      50.364   8.497  16.748  0.00  0.00    +0.000 NA
ATOM     16  H   UNL     1      51.323   8.205  16.891  0.00  0.00    +0.000 HD
ATOM     17  H   UNL     1      49.964   8.607  17.678  0.00  0.00    +0.000 HD
ENDBRANCH   3  15
ENDBRANCH   1   3
BRANCH   1  18
ATOM     18  C   UNL     1      50.181   7.966  13.870  0.00  0.00    +0.000 C 
BRANCH  18  19
ATOM     19  C   UNL     1      48.820   7.892  13.230  0.00  0.00    +0.000 A 
ATOM     20  C   UNL     1      48.564   7.012  12.172  0.00  0.00    +0.000 A 
ATOM     21  C   UNL     1      47.278   6.904  11.643  0.00  0.00    +0.000 A 
ATOM     22  C   UNL     1      46.223   7.661  12.174  0.00  0.00    +0.000 A 
ATOM     23  C   UNL     1      46.487   8.560  13.213  0.00  0.00    +0.000 A 
ATOM     24  C   UNL     1      47.772   8.677  13.733  0.00  0.00    +0.000 A 
BRANCH  22  25
ATOM     25  C   UNL     1      44.832   7.568  11.605  0.00  0.00    +0.000 C 
BRANCH  25  26
ATOM     26  N   UNL     1      43.971   6.672  12.382  0.00  0.00    +0.000 NA
ATOM     27  H   UNL     1      42.999   6.911  12.180  0.00  0.00    +0.000 HD
BRANCH  26  28
ATOM     28  C   UNL     1      44.204   5.254  12.062  0.00  0.00    +0.000 C 
ATOM     29  C   UNL     1      43.873   4.996  10.584  0.00  0.00    +0.000 C 
ATOM     30  C   UNL     1      44.015   3.514  10.258  0.00  0.00    +0.000 C 
ATOM     31  O   UNL     1      43.208   2.715  11.119  0.00  0.00    +0.000 OA
ATOM     32  C   UNL     1      43.576   2.861  12.487  0.00  0.00    +0.000 C 
ATOM     33  C   UNL     1      43.387   4.298  12.944  0.00  0.00    +0.000 C 
ENDBRANCH  26  28
ENDBRANCH  25  26
ENDBRANCH  22  25
ENDBRANCH  18  19
ENDBRANCH   1  18
TORSDOF 8
ENDMDL
MODEL 8
REMARK VINA RESULT:    -6.636      2.080      2.833
REMARK INTER + INTRA:         -10.449
REMARK INTER:                  -9.736
REMARK INTRA:                  -0.712
REMARK UNBOUND:                -0.903
REMARK  Name = 
REMARK  8 active torsions:
REMARK  status: ('A' for Active; 'I' for Inactive)
REMARK    1  A    between atoms: N_1  and  C_2
REMARK    2  A    between atoms: C_2  and  N_3
REMARK    3  A    between atoms: C_2  and  C_19
REMARK    4  A    between atoms: N_3  and  C_4
REMARK    5  A    between atoms: C_4  and  C_5
REMARK    6  A    between atoms: C_8  and  C_9
REMARK    7  A    between atoms: C_9  and  N_10
REMARK    8  A    between atoms: N_10  and  C_11
REMARK                            x       y       z     vdW  Elec       q    Type
REMARK                         _______ _______ _______ _____ _____    ______ ____
ROOT
ATOM      1  N   UNL     1      48.059   6.614  15.315  0.00  0.00    +0.000 NA
ATOM      2  H   UNL     1      47.113   7.005  15.348  0.00  0.00    +0.000 HD
ENDROOT
BRANCH   1   3
ATOM      3  C   UNL     1      48.908   7.569  15.990  0.00  0.00    +0.000 C 
BRANCH   3   4
ATOM      4  C   UNL     1      48.689   7.461  17.485  0.00  0.00    +0.000 A 
ATOM      5  C   UNL     1      48.293   8.495  18.328  0.00  0.00    +0.000 A 
ATOM      6  S   UNL     1      48.066   8.016  19.949  0.00  0.00    +0.000 S 
ATOM      7  C   UNL     1      48.472   6.405  19.584  0.00  0.00    +0.000 A 
ATOM      8  N   UNL     1      48.443   5.436  20.538  0.00  0.00    +0.000 NA
ATOM      9  C   UNL     1      48.753   4.264  20.101  0.00  0.00    +0.000 A 
ATOM     10  N   UNL     1      49.103   3.966  18.810  0.00  0.00    +0.000 N 
ATOM     11  C   UNL     1      49.189   4.920  17.818  0.00  0.00    +0.000 A 
ATOM     12  O   UNL     1      49.571   4.655  16.684  0.00  0.00    +0.000 OA
ATOM     13  C   UNL     1      48.802   6.250  18.252  0.00  0.00    +0.000 A 
ATOM     14  H   UNL     1      49.354   3.025  18.544  0.00  0.00    +0.000 HD
ENDBRANCH   3   4
BRANCH   3  15
ATOM     15  N   UNL     1      50.268   7.173  15.716  0.00  0.00    +0.000 NA
ATOM     16  H   UNL     1      50.671   7.818  15.046  0.00  0.00    +0.000 HD
ATOM     17  H   UNL     1      50.179   6.283  15.228  0.00  0.00    +0.000 HD
ENDBRANCH   3  15
ENDBRANCH   1   3
BRANCH   1  18
ATOM     18  C   UNL     1      48.388   6.453  13.897  0.00  0.00    +0.000 C 
BRANCH  18  19
ATOM     19  C   UNL     1      47.213   5.981  13.082  0.00  0.00    +0.000 A 
ATOM     20  C   UNL     1      46.421   4.908  13.507  0.00  0.00    +0.000 A 
ATOM     21  C   UNL     1      45.293   4.534  12.777  0.00  0.00    +0.000 A 
ATOM     22  C   UNL     1      44.928   5.238  11.620  0.00  0.00    +0.000 A 
ATOM     23  C   UNL     1      45.735   6.293  11.181  0.00  0.00    +0.000 A 
ATOM     24  C   UNL     1      46.868   6.659  11.903  0.00  0.00    +0.000 A 
BRANCH  22  25
ATOM     25  C   UNL     1      43.721   4.839  10.811  0.00  0.00    +0.000 C 
BRANCH  25  26
ATOM     26  N   UNL     1      43.783   3.443  10.370  0.00  0.00    +0.000 NA
ATOM     27  H   UNL     1      42.947   3.247   9.817  0.00  0.00    +0.000 HD
BRANCH  26  28
ATOM     28  C   UNL     1      44.981   3.163   9.562  0.00  0.00    +0.000 C 
ATOM     29  C   UNL     1      45.039   4.130   8.370  0.00  0.00    +0.000 C 
ATOM     30  C   UNL     1      46.221   3.794   7.468  0.00  0.00    +0.000 C 
ATOM     31  O   UNL     1      46.172   2.436   7.036  0.00  0.00    +0.000 OA
ATOM     32  C   UNL     1      46.228   1.523   8.127  0.00  0.00    +0.000 C 
ATOM     33  C   UNL     1      45.036   1.716   9.051  0.00  0.00    +0.000 C 
ENDBRANCH  26  28
ENDBRANCH  25  26
ENDBRANCH  22  25
ENDBRANCH  18  19
ENDBRANCH   1  18
TORSDOF 8
ENDMDL
MODEL 9
REMARK VINA RESULT:    -6.636      5.099      8.287
REMARK INTER + INTRA:         -10.449
REMARK INTER:                  -9.465
REMARK INTRA:                  -0.983
REMARK UNBOUND:                -0.903
REMARK  Name = 
REMARK  8 active torsions:
REMARK  status: ('A' for Active; 'I' for Inactive)
REMARK    1  A    between atoms: N_1  and  C_2
REMARK    2  A    between atoms: C_2  and  N_3
REMARK    3  A    between atoms: C_2  and  C_19
REMARK    4  A    between atoms: N_3  and  C_4
REMARK    5  A    between atoms: C_4  and  C_5
REMARK    6  A    between atoms: C_8  and  C_9
REMARK    7  A    between atoms: C_9  and  N_10
REMARK    8  A    between atoms: N_10  and  C_11
REMARK                            x       y       z     vdW  Elec       q    Type
REMARK                         _______ _______ _______ _____ _____    ______ ____
ROOT
ATOM      1  N   UNL     1      44.694   7.090  12.584  0.00  0.00    +0.000 NA
ATOM      2  H   UNL     1      43.952   6.783  13.220  0.00  0.00    +0.000 HD
ENDROOT
BRANCH   1   3
ATOM      3  C   UNL     1      44.263   6.710  11.258  0.00  0.00    +0.000 C 
BRANCH   3   4
ATOM      4  C   UNL     1      44.101   5.205  11.198  0.00  0.00    +0.000 A 
ATOM      5  C   UNL     1      43.332   4.432  12.061  0.00  0.00    +0.000 A 
ATOM      6  S   UNL     1      43.308   2.773  11.668  0.00  0.00    +0.000 S 
ATOM      7  C   UNL     1      44.311   3.026  10.318  0.00  0.00    +0.000 A 
ATOM      8  N   UNL     1      44.662   2.000   9.497  0.00  0.00    +0.000 NA
ATOM      9  C   UNL     1      45.406   2.355   8.505  0.00  0.00    +0.000 A 
ATOM     10  N   UNL     1      45.846   3.630   8.262  0.00  0.00    +0.000 N 
ATOM     11  C   UNL     1      45.554   4.695   9.089  0.00  0.00    +0.000 A 
ATOM     12  O   UNL     1      46.010   5.816   8.901  0.00  0.00    +0.000 OA
ATOM     13  C   UNL     1      44.678   4.351  10.195  0.00  0.00    +0.000 A 
ATOM     14  H   UNL     1      46.445   3.830   7.475  0.00  0.00    +0.000 HD
ENDBRANCH   3   4
BRANCH   3  15
ATOM     15  N   UNL     1      42.960   7.300  11.067  0.00  0.00    +0.000 NA
ATOM     16  H   UNL     1      43.033   8.052  10.392  0.00  0.00    +0.000 HD
ATOM     17  H   UNL     1      42.750   7.745  11.959  0.00  0.00    +0.000 HD
ENDBRANCH   3  15
ENDBRANCH   1   3
BRANCH   1  18
ATOM     18  C   UNL     1      45.913   6.401  13.012  0.00  0.00    +0.000 C 
BRANCH  18  19
ATOM     19  C   UNL     1      47.161   7.175  12.678  0.00  0.00    +0.000 A 
ATOM     20  C   UNL     1      48.423   6.571  12.732  0.00  0.00    +0.000 A 
ATOM     21  C   UNL     1      49.560   7.283  12.347  0.00  0.00    +0.000 A 
ATOM     22  C   UNL     1      49.451   8.603  11.885  0.00  0.00    +0.000 A 
ATOM     23  C   UNL     1      48.192   9.213  11.857  0.00  0.00    +0.000 A 
ATOM     24  C   UNL     1      47.059   8.508  12.253  0.00  0.00    +0.000 A 
BRANCH  22  25
ATOM     25  C   UNL     1      50.669   9.391  11.478  0.00  0.00    +0.000 C 
BRANCH  25  26
ATOM     26  N   UNL     1      51.915   8.669  11.748  0.00  0.00    +0.000 NA
ATOM     27  H   UNL     1      51.679   7.786  12.204  0.00  0.00    +0.000 HD
BRANCH  26  28
ATOM     28  C   UNL     1      52.681   8.395  10.521  0.00  0.00    +0.000 C 
ATOM     29  C   UNL     1      52.600   9.606   9.580  0.00  0.00    +0.000 C 
ATOM     30  C   UNL     1      53.307   9.305   8.263  0.00  0.00    +0.000 C 
ATOM     31  O   UNL     1      52.779   8.132   7.649  0.00  0.00    +0.000 OA
ATOM     32  C   UNL     1      52.946   6.978   8.467  0.00  0.00    +0.000 C 
ATOM     33  C   UNL     1      52.201   7.138   9.782  0.00  0.00    +0.000 C 
ENDBRANCH  26  28
ENDBRANCH  25  26
ENDBRANCH  22  25
ENDBRANCH  18  19
ENDBRANCH   1  18
TORSDOF 8
ENDMDL
