MODEL 1
REMARK VINA RESULT:    -7.306      0.000      0.000
REMARK INTER + INTRA:          -9.810
REMARK INTER:                  -9.441
REMARK INTRA:                  -0.369
REMARK UNBOUND:                -0.369
REMARK  Name = 
REMARK  6 active torsions:
REMARK  status: ('A' for Active; 'I' for Inactive)
REMARK    1  A    between atoms: C_1  and  C_2
REMARK    2  A    between atoms: C_2  and  C_3
REMARK    3  A    between atoms: C_3  and  C_4
REMARK    4  A    between atoms: C_8  and  C_9
REMARK    5  A    between atoms: C_9  and  N_10
REMARK    6  A    between atoms: C_14  and  C_15
REMARK                            x       y       z     vdW  Elec       q    Type
REMARK                         _______ _______ _______ _____ _____    ______ ____
ROOT
ATOM      1  N   UNL     1      43.949   3.404  10.414  0.00  0.00    +0.000 N 
ATOM      2  C   UNL     1      44.843   3.173   9.360  0.00  0.00    +0.000 A 
ATOM      3  C   UNL     1      45.161   1.861   9.014  0.00  0.00    +0.000 A 
ATOM      4  C   UNL     1      46.021   1.620   7.942  0.00  0.00    +0.000 A 
ATOM      5  C   UNL     1      46.558   2.691   7.229  0.00  0.00    +0.000 A 
ATOM      6  C   UNL     1      46.211   3.962   7.654  0.00  0.00    +0.000 A 
ATOM      7  N   UNL     1      45.383   4.217   8.699  0.00  0.00    +0.000 NA
ATOM      8  H   UNL     1      43.073   2.932  10.211  0.00  0.00    +0.000 HD
ENDROOT
BRANCH   5   9
ATOM      9  C   UNL     1      47.441   2.436   6.069  0.00  0.00    +0.000 C 
ATOM     10  N   UNL     1      48.798   2.409   6.259  0.00  0.00    +0.000 N 
ATOM     11  O   UNL     1      46.980   2.255   4.950  0.00  0.00    +0.000 OA
ATOM     12  H   UNL     1      49.286   2.545   7.132  0.00  0.00    +0.000 HD
ATOM     13  H   UNL     1      49.362   2.236   5.434  0.00  0.00    +0.000 HD
ENDBRANCH   5   9
BRANCH   1  14
ATOM     14  C   UNL     1      43.722   4.829  10.665  0.00  0.00    +0.000 C 
BRANCH  14  19
ATOM     15  C   UNL     1      46.377   4.951  13.421  0.00  0.00    +0.000 A 
ATOM     16  C   UNL     1      46.748   6.300  13.366  0.00  0.00    +0.000 A 
ATOM     17  C   UNL     1      46.099   7.182  12.503  0.00  0.00    +0.000 A 
ATOM     18  C   UNL     1      45.088   6.720  11.660  0.00  0.00    +0.000 A 
ATOM     19  C   UNL     1      44.719   5.367  11.669  0.00  0.00    +0.000 A 
ATOM     20  C   UNL     1      45.359   4.497  12.566  0.00  0.00    +0.000 A 
BRANCH  15  21
ATOM     21  C   UNL     1      47.107   3.983  14.321  0.00  0.00    +0.000 C 
BRANCH  21  23
ATOM     22  C   UNL     1      47.615   3.360  16.705  0.00  0.00    +0.000 C 
ATOM     23  C   UNL     1      47.317   4.503  15.746  0.00  0.00    +0.000 C 
ENDBRANCH  21  23
ENDBRANCH  15  21
ENDBRANCH  14  19
ENDBRANCH   1  14
TORSDOF 5
ENDMDL
MODEL 2
REMARK VINA RESULT:    -7.281      3.230      7.228
REMARK INTER + INTRA:          -9.778
REMARK INTER:                  -9.343
REMARK INTRA:                  -0.435
REMARK UNBOUND:                -0.369
REMARK  Name = 
REMARK  6 active torsions:
REMARK  status: ('A' for Active; 'I' for Inactive)
REMARK    1  A    between atoms: C_1  and  C_2
REMARK    2  A    between atoms: C_2  and  C_3
REMARK    3  A    between atoms: C_3  and  C_4
REMARK    4  A    between atoms: C_8  and  C_9
REMARK    5  A    between atoms: C_9  and  N_10
REMARK    6  A    between atoms: C_14  and  C_15
REMARK                            x       y       z     vdW  Elec       q    Type
REMARK                         _______ _______ _______ _____ _____    ______ ____
ROOT
ATOM      1  N   UNL     1      45.293   6.077  10.651  0.00  0.00    +0.000 N 
ATOM      2  C   UNL     1      45.878   5.691  11.866  0.00  0.00    +0.000 A 
ATOM      3  C   UNL     1      46.962   6.414  12.357  0.00  0.00    +0.000 A 
ATOM      4  C   UNL     1      47.527   6.060  13.583  0.00  0.00    +0.000 A 
ATOM      5  C   UNL     1      47.006   4.987  14.303  0.00  0.00    +0.000 A 
ATOM      6  C   UNL     1      45.945   4.307  13.732  0.00  0.00    +0.000 A 
ATOM      7  N   UNL     1      45.387   4.630  12.537  0.00  0.00    +0.000 NA
ATOM      8  H   UNL     1      44.995   7.045  10.724  0.00  0.00    +0.000 HD
ENDROOT
BRANCH   5   9
ATOM      9  C   UNL     1      47.581   4.633  15.620  0.00  0.00    +0.000 C 
ATOM     10  N   UNL     1      46.944   3.702  16.396  0.00  0.00    +0.000 N 
ATOM     11  O   UNL     1      48.610   5.161  16.024  0.00  0.00    +0.000 OA
ATOM     12  H   UNL     1      46.095   3.206  16.168  0.00  0.00    +0.000 HD
ATOM     13  H   UNL     1      47.373   3.497  17.293  0.00  0.00    +0.000 HD
ENDBRANCH   5   9
BRANCH   1  14
ATOM     14  C   UNL     1      44.173   5.218  10.260  0.00  0.00    +0.000 C 
BRANCH  14  19
ATOM     15  C   UNL     1      46.049   3.185   7.614  0.00  0.00    +0.000 A 
ATOM     16  C   UNL     1      45.755   1.880   8.031  0.00  0.00    +0.000 A 
ATOM     17  C   UNL     1      44.899   1.653   9.108  0.00  0.00    +0.000 A 
ATOM     18  C   UNL     1      44.349   2.730   9.804  0.00  0.00    +0.000 A 
ATOM     19  C   UNL     1      44.653   4.047   9.431  0.00  0.00    +0.000 A 
ATOM     20  C   UNL     1      45.491   4.260   8.324  0.00  0.00    +0.000 A 
BRANCH  15  21
ATOM     21  C   UNL     1      47.010   3.436   6.478  0.00  0.00    +0.000 C 
BRANCH  21  23
ATOM     22  C   UNL     1      47.070   1.769   4.594  0.00  0.00    +0.000 C 
ATOM     23  C   UNL     1      47.670   2.165   5.935  0.00  0.00    +0.000 C 
ENDBRANCH  21  23
ENDBRANCH  15  21
ENDBRANCH  14  19
ENDBRANCH   1  14
TORSDOF 5
ENDMDL
MODEL 3
REMARK VINA RESULT:    -6.903      1.091      2.502
REMARK INTER + INTRA:          -9.289
REMARK INTER:                  -8.866
REMARK INTRA:                  -0.423
REMARK UNBOUND:                -0.369
REMARK  Name = 
REMARK  6 active torsions:
REMARK  status: ('A' for Active; 'I' for Inactive)
REMARK    1  A    between atoms: C_1  and  C_2
REMARK    2  A    between atoms: C_2  and  C_3
REMARK    3  A    between atoms: C_3  and  C_4
REMARK    4  A    between atoms: C_8  and  C_9
REMARK    5  A    between atoms: C_9  and  N_10
REMARK    6  A    between atoms: C_14  and  C_15
REMARK                            x       y       z     vdW  Elec       q    Type
REMARK                         _______ _______ _______ _____ _____    ______ ____
ROOT
ATOM      1  N   UNL     1      44.011   3.026  10.379  0.00  0.00    +0.000 N 
ATOM      2  C   UNL     1      44.915   2.879   9.318  0.00  0.00    +0.000 A 
ATOM      3  C   UNL     1      45.272   1.598   8.903  0.00  0.00    +0.000 A 
ATOM      4  C   UNL     1      46.142   1.441   7.823  0.00  0.00    +0.000 A 
ATOM      5  C   UNL     1      46.649   2.564   7.172  0.00  0.00    +0.000 A 
ATOM      6  C   UNL     1      46.262   3.800   7.663  0.00  0.00    +0.000 A 
ATOM      7  N   UNL     1      45.424   3.972   8.717  0.00  0.00    +0.000 NA
ATOM      8  H   UNL     1      43.150   2.539  10.147  0.00  0.00    +0.000 HD
ENDROOT
BRANCH   5   9
ATOM      9  C   UNL     1      47.543   2.400   6.004  0.00  0.00    +0.000 C 
ATOM     10  N   UNL     1      48.898   2.386   6.201  0.00  0.00    +0.000 N 
ATOM     11  O   UNL     1      47.091   2.280   4.873  0.00  0.00    +0.000 OA
ATOM     12  H   UNL     1      49.380   2.476   7.083  0.00  0.00    +0.000 HD
ATOM     13  H   UNL     1      49.471   2.276   5.370  0.00  0.00    +0.000 HD
ENDBRANCH   5   9
BRANCH   1  14
ATOM     14  C   UNL     1      43.740   4.428  10.706  0.00  0.00    +0.000 C 
BRANCH  14  19
ATOM     15  C   UNL     1      46.277   6.828  12.275  0.00  0.00    +0.000 A 
ATOM     16  C   UNL     1      46.592   6.140  13.454  0.00  0.00    +0.000 A 
ATOM     17  C   UNL     1      46.051   4.880  13.708  0.00  0.00    +0.000 A 
ATOM     18  C   UNL     1      45.164   4.302  12.800  0.00  0.00    +0.000 A 
ATOM     19  C   UNL     1      44.803   4.983  11.628  0.00  0.00    +0.000 A 
ATOM     20  C   UNL     1      45.380   6.237  11.370  0.00  0.00    +0.000 A 
BRANCH  15  21
ATOM     21  C   UNL     1      46.823   8.211  12.017  0.00  0.00    +0.000 C 
BRANCH  21  23
ATOM     22  C   UNL     1      49.253   7.903  11.439  0.00  0.00    +0.000 C 
ATOM     23  C   UNL     1      48.268   8.401  12.487  0.00  0.00    +0.000 C 
ENDBRANCH  21  23
ENDBRANCH  15  21
ENDBRANCH  14  19
ENDBRANCH   1  14
TORSDOF 5
ENDMDL
MODEL 4
REMARK VINA RESULT:    -6.705      3.358      6.996
REMARK INTER + INTRA:          -9.034
REMARK INTER:                  -8.468
REMARK INTRA:                  -0.567
REMARK UNBOUND:                -0.369
REMARK  Name = 
REMARK  6 active torsions:
REMARK  status: ('A' for Active; 'I' for Inactive)
REMARK    1  A    between atoms: C_1  and  C_2
REMARK    2  A    between atoms: C_2  and  C_3
REMARK    3  A    between atoms: C_3  and  C_4
REMARK    4  A    between atoms: C_8  and  C_9
REMARK    5  A    between atoms: C_9  and  N_10
REMARK    6  A    between atoms: C_14  and  C_15
REMARK                            x       y       z     vdW  Elec       q    Type
REMARK                         _______ _______ _______ _____ _____    ______ ____
ROOT
ATOM      1  N   UNL     1      44.858   4.926  12.005  0.00  0.00    +0.000 N 
ATOM      2  C   UNL     1      46.008   5.651  12.348  0.00  0.00    +0.000 A 
ATOM      3  C   UNL     1      46.567   5.478  13.612  0.00  0.00    +0.000 A 
ATOM      4  C   UNL     1      47.733   6.167  13.950  0.00  0.00    +0.000 A 
ATOM      5  C   UNL     1      48.326   7.023  13.024  0.00  0.00    +0.000 A 
ATOM      6  C   UNL     1      47.692   7.156  11.800  0.00  0.00    +0.000 A 
ATOM      7  N   UNL     1      46.554   6.501  11.456  0.00  0.00    +0.000 NA
ATOM      8  H   UNL     1      45.052   3.935  12.110  0.00  0.00    +0.000 HD
ENDROOT
BRANCH   5   9
ATOM      9  C   UNL     1      49.582   7.727  13.367  0.00  0.00    +0.000 C 
ATOM     10  N   UNL     1      50.324   7.282  14.429  0.00  0.00    +0.000 N 
ATOM     11  O   UNL     1      49.961   8.696  12.723  0.00  0.00    +0.000 OA
ATOM     12  H   UNL     1      50.110   6.499  15.028  0.00  0.00    +0.000 HD
ATOM     13  H   UNL     1      51.174   7.800  14.629  0.00  0.00    +0.000 HD
ENDBRANCH   5   9
BRANCH   1  14
ATOM     14  C   UNL     1      44.383   5.220  10.650  0.00  0.00    +0.000 C 
BRANCH  14  19
ATOM     15  C   UNL     1      45.925   3.293   7.724  0.00  0.00    +0.000 A 
ATOM     16  C   UNL     1      45.576   1.980   8.063  0.00  0.00    +0.000 A 
ATOM     17  C   UNL     1      44.787   1.720   9.183  0.00  0.00    +0.000 A 
ATOM     18  C   UNL     1      44.361   2.770   9.997  0.00  0.00    +0.000 A 
ATOM     19  C   UNL     1      44.724   4.092   9.701  0.00  0.00    +0.000 A 
ATOM     20  C   UNL     1      45.492   4.340   8.553  0.00  0.00    +0.000 A 
BRANCH  15  21
ATOM     21  C   UNL     1      46.817   3.574   6.539  0.00  0.00    +0.000 C 
BRANCH  21  23
ATOM     22  C   UNL     1      47.105   1.837   4.742  0.00  0.00    +0.000 C 
ATOM     23  C   UNL     1      47.625   2.361   6.072  0.00  0.00    +0.000 C 
ENDBRANCH  21  23
ENDBRANCH  15  21
ENDBRANCH  14  19
ENDBRANCH   1  14
TORSDOF 5
ENDMDL
MODEL 5
REMARK VINA RESULT:    -6.561      4.045      7.500
REMARK INTER + INTRA:          -8.848
REMARK INTER:                  -8.330
REMARK INTRA:                  -0.518
REMARK UNBOUND:                -0.369
REMARK  Name = 
REMARK  6 active torsions:
REMARK  status: ('A' for Active; 'I' for Inactive)
REMARK    1  A    between atoms: C_1  and  C_2
REMARK    2  A    between atoms: C_2  and  C_3
REMARK    3  A    between atoms: C_3  and  C_4
REMARK    4  A    between atoms: C_8  and  C_9
REMARK    5  A    between atoms: C_9  and  N_10
REMARK    6  A    between atoms: C_14  and  C_15
REMARK                            x       y       z     vdW  Elec       q    Type
REMARK                         _______ _______ _______ _____ _____    ______ ____
ROOT
ATOM      1  N   UNL     1      44.840   5.698  11.710  0.00  0.00    +0.000 N 
ATOM      2  C   UNL     1      44.932   7.095  11.790  0.00  0.00    +0.000 A 
ATOM      3  C   UNL     1      45.860   7.665  12.658  0.00  0.00    +0.000 A 
ATOM      4  C   UNL     1      45.985   9.054  12.717  0.00  0.00    +0.000 A 
ATOM      5  C   UNL     1      45.178   9.858  11.914  0.00  0.00    +0.000 A 
ATOM      6  C   UNL     1      44.265   9.212  11.099  0.00  0.00    +0.000 A 
ATOM      7  N   UNL     1      44.123   7.863  11.033  0.00  0.00    +0.000 NA
ATOM      8  H   UNL     1      45.750   5.324  11.457  0.00  0.00    +0.000 HD
ENDROOT
BRANCH   5   9
ATOM      9  C   UNL     1      45.334  11.329  11.949  0.00  0.00    +0.000 C 
ATOM     10  N   UNL     1      46.572  11.862  12.196  0.00  0.00    +0.000 N 
ATOM     11  O   UNL     1      44.378  12.072  11.766  0.00  0.00    +0.000 OA
ATOM     12  H   UNL     1      47.426  11.350  12.361  0.00  0.00    +0.000 HD
ATOM     13  H   UNL     1      46.627  12.875  12.216  0.00  0.00    +0.000 HD
ENDBRANCH   5   9
BRANCH   1  14
ATOM     14  C   UNL     1      43.815   5.249  10.765  0.00  0.00    +0.000 C 
BRANCH  14  19
ATOM     15  C   UNL     1      45.770   3.403   8.040  0.00  0.00    +0.000 A 
ATOM     16  C   UNL     1      45.525   2.072   8.398  0.00  0.00    +0.000 A 
ATOM     17  C   UNL     1      44.677   1.767   9.462  0.00  0.00    +0.000 A 
ATOM     18  C   UNL     1      44.085   2.791  10.202  0.00  0.00    +0.000 A 
ATOM     19  C   UNL     1      44.340   4.134   9.887  0.00  0.00    +0.000 A 
ATOM     20  C   UNL     1      45.171   4.425   8.794  0.00  0.00    +0.000 A 
BRANCH  15  21
ATOM     21  C   UNL     1      46.724   3.739   6.918  0.00  0.00    +0.000 C 
BRANCH  21  23
ATOM     22  C   UNL     1      47.390   2.142   5.092  0.00  0.00    +0.000 C 
ATOM     23  C   UNL     1      47.647   2.583   6.526  0.00  0.00    +0.000 C 
ENDBRANCH  21  23
ENDBRANCH  15  21
ENDBRANCH  14  19
ENDBRANCH   1  14
TORSDOF 5
ENDMDL
MODEL 6
REMARK VINA RESULT:    -6.468      4.871      8.318
REMARK INTER + INTRA:          -8.727
REMARK INTER:                  -8.222
REMARK INTRA:                  -0.506
REMARK UNBOUND:                -0.369
REMARK  Name = 
REMARK  6 active torsions:
REMARK  status: ('A' for Active; 'I' for Inactive)
REMARK    1  A    between atoms: C_1  and  C_2
REMARK    2  A    between atoms: C_2  and  C_3
REMARK    3  A    between atoms: C_3  and  C_4
REMARK    4  A    between atoms: C_8  and  C_9
REMARK    5  A    between atoms: C_9  and  N_10
REMARK    6  A    between atoms: C_14  and  C_15
REMARK                            x       y       z     vdW  Elec       q    Type
REMARK                         _______ _______ _______ _____ _____    ______ ____
ROOT
ATOM      1  N   UNL     1      46.529   3.919  14.831  0.00  0.00    +0.000 N 
ATOM      2  C   UNL     1      47.389   4.182  15.906  0.00  0.00    +0.000 A 
ATOM      3  C   UNL     1      47.379   3.329  17.007  0.00  0.00    +0.000 A 
ATOM      4  C   UNL     1      48.258   3.561  18.066  0.00  0.00    +0.000 A 
ATOM      5  C   UNL     1      49.134   4.644  18.017  0.00  0.00    +0.000 A 
ATOM      6  C   UNL     1      49.061   5.456  16.898  0.00  0.00    +0.000 A 
ATOM      7  N   UNL     1      48.208   5.252  15.862  0.00  0.00    +0.000 NA
ATOM      8  H   UNL     1      46.716   2.984  14.482  0.00  0.00    +0.000 HD
ENDROOT
BRANCH   5   9
ATOM      9  C   UNL     1      50.091   4.870  19.123  0.00  0.00    +0.000 C 
ATOM     10  N   UNL     1      49.798   4.378  20.367  0.00  0.00    +0.000 N 
ATOM     11  O   UNL     1      51.131   5.490  18.942  0.00  0.00    +0.000 OA
ATOM     12  H   UNL     1      48.976   3.856  20.630  0.00  0.00    +0.000 HD
ATOM     13  H   UNL     1      50.482   4.563  21.094  0.00  0.00    +0.000 HD
ENDBRANCH   5   9
BRANCH   1  14
ATOM     14  C   UNL     1      46.646   4.906  13.754  0.00  0.00    +0.000 C 
BRANCH  14  19
ATOM     15  C   UNL     1      44.279   3.646  11.022  0.00  0.00    +0.000 A 
ATOM     16  C   UNL     1      43.179   4.490  11.221  0.00  0.00    +0.000 A 
ATOM     17  C   UNL     1      43.224   5.505  12.175  0.00  0.00    +0.000 A 
ATOM     18  C   UNL     1      44.361   5.673  12.965  0.00  0.00    +0.000 A 
ATOM     19  C   UNL     1      45.465   4.821  12.812  0.00  0.00    +0.000 A 
ATOM     20  C   UNL     1      45.416   3.823  11.826  0.00  0.00    +0.000 A 
BRANCH  15  21
ATOM     21  C   UNL     1      44.217   2.516  10.022  0.00  0.00    +0.000 C 
BRANCH  21  23
ATOM     22  C   UNL     1      45.217   3.729   8.058  0.00  0.00    +0.000 C 
ATOM     23  C   UNL     1      45.352   2.538   8.995  0.00  0.00    +0.000 C 
ENDBRANCH  21  23
ENDBRANCH  15  21
ENDBRANCH  14  19
ENDBRANCH   1  14
TORSDOF 5
ENDMDL
MODEL 7
REMARK VINA RESULT:    -6.407      3.234      5.762
REMARK INTER + INTRA:          -8.649
REMARK INTER:                  -8.220
REMARK INTRA:                  -0.429
REMARK UNBOUND:                -0.369
REMARK  Name = 
REMARK  6 active torsions:
REMARK  status: ('A' for Active; 'I' for Inactive)
REMARK    1  A    between atoms: C_1  and  C_2
REMARK    2  A    between atoms: C_2  and  C_3
REMARK    3  A    between atoms: C_3  and  C_4
REMARK    4  A    between atoms: C_8  and  C_9
REMARK    5  A    between atoms: C_9  and  N_10
REMARK    6  A    between atoms: C_14  and  C_15
REMARK                            x       y       z     vdW  Elec       q    Type
REMARK                         _______ _______ _______ _____ _____    ______ ____
ROOT
ATOM      1  N   UNL     1      47.057   5.271  14.761  0.00  0.00    +0.000 N 
ATOM      2  C   UNL     1      46.339   4.902  13.614  0.00  0.00    +0.000 A 
ATOM      3  C   UNL     1      46.311   5.768  12.524  0.00  0.00    +0.000 A 
ATOM      4  C   UNL     1      45.630   5.394  11.365  0.00  0.00    +0.000 A 
ATOM      5  C   UNL     1      44.982   4.161  11.308  0.00  0.00    +0.000 A 
ATOM      6  C   UNL     1      45.039   3.372  12.445  0.00  0.00    +0.000 A 
ATOM      7  N   UNL     1      45.689   3.722  13.584  0.00  0.00    +0.000 NA
ATOM      8  H   UNL     1      48.022   5.451  14.500  0.00  0.00    +0.000 HD
ENDROOT
BRANCH   5   9
ATOM      9  C   UNL     1      44.290   3.747  10.067  0.00  0.00    +0.000 C 
ATOM     10  N   UNL     1      43.998   4.693   9.121  0.00  0.00    +0.000 N 
ATOM     11  O   UNL     1      43.974   2.579   9.878  0.00  0.00    +0.000 OA
ATOM     12  H   UNL     1      44.209   5.679   9.169  0.00  0.00    +0.000 HD
ATOM     13  H   UNL     1      43.519   4.362   8.290  0.00  0.00    +0.000 HD
ENDBRANCH   5   9
BRANCH   1  14
ATOM     14  C   UNL     1      46.987   4.266  15.824  0.00  0.00    +0.000 C 
BRANCH  14  19
ATOM     15  C   UNL     1      50.236   2.948  17.361  0.00  0.00    +0.000 A 
ATOM     16  C   UNL     1      50.804   4.139  17.832  0.00  0.00    +0.000 A 
ATOM     17  C   UNL     1      50.116   5.346  17.724  0.00  0.00    +0.000 A 
ATOM     18  C   UNL     1      48.860   5.385  17.116  0.00  0.00    +0.000 A 
ATOM     19  C   UNL     1      48.282   4.214  16.605  0.00  0.00    +0.000 A 
ATOM     20  C   UNL     1      48.973   3.000  16.749  0.00  0.00    +0.000 A 
BRANCH  15  21
ATOM     21  C   UNL     1      50.997   1.646  17.435  0.00  0.00    +0.000 C 
BRANCH  21  23
ATOM     22  C   UNL     1      53.181   0.467  17.849  0.00  0.00    +0.000 C 
ATOM     23  C   UNL     1      52.471   1.813  17.812  0.00  0.00    +0.000 C 
ENDBRANCH  21  23
ENDBRANCH  15  21
ENDBRANCH  14  19
ENDBRANCH   1  14
TORSDOF 5
ENDMDL
MODEL 8
REMARK VINA RESULT:    -6.122      3.811      6.608
REMARK INTER + INTRA:          -8.280
REMARK INTER:                  -7.692
REMARK INTRA:                  -0.588
REMARK UNBOUND:                -0.369
REMARK  Name = 
REMARK  6 active torsions:
REMARK  status: ('A' for Active; 'I' for Inactive)
REMARK    1  A    between atoms: C_1  and  C_2
REMARK    2  A    between atoms: C_2  and  C_3
REMARK    3  A    between atoms: C_3  and  C_4
REMARK    4  A    between atoms: C_8  and  C_9
REMARK    5  A    between atoms: C_9  and  N_10
REMARK    6  A    between atoms: C_14  and  C_15
REMARK                            x       y       z     vdW  Elec       q    Type
REMARK                         _______ _______ _______ _____ _____    ______ ____
ROOT
ATOM      1  N   UNL     1      45.903   5.967  13.659  0.00  0.00    +0.000 N 
ATOM      2  C   UNL     1      47.045   6.668  13.248  0.00  0.00    +0.000 A 
ATOM      3  C   UNL     1      48.236   6.493  13.948  0.00  0.00    +0.000 A 
ATOM      4  C   UNL     1      49.388   7.158  13.524  0.00  0.00    +0.000 A 
ATOM      5  C   UNL     1      49.337   7.992  12.409  0.00  0.00    +0.000 A 
ATOM      6  C   UNL     1      48.108   8.130  11.787  0.00  0.00    +0.000 A 
ATOM      7  N   UNL     1      46.975   7.498  12.189  0.00  0.00    +0.000 NA
ATOM      8  H   UNL     1      46.107   4.972  13.651  0.00  0.00    +0.000 HD
ENDROOT
BRANCH   5   9
ATOM      9  C   UNL     1      50.565   8.670  11.937  0.00  0.00    +0.000 C 
ATOM     10  N   UNL     1      51.758   8.000  11.994  0.00  0.00    +0.000 N 
ATOM     11  O   UNL     1      50.530   9.814  11.503  0.00  0.00    +0.000 OA
ATOM     12  H   UNL     1      51.906   7.060  12.331  0.00  0.00    +0.000 HD
ATOM     13  H   UNL     1      52.573   8.507  11.664  0.00  0.00    +0.000 HD
ENDBRANCH   5   9
BRANCH   1  14
ATOM     14  C   UNL     1      44.727   6.260  12.834  0.00  0.00    +0.000 C 
BRANCH  14  19
ATOM     15  C   UNL     1      44.549   3.970   9.772  0.00  0.00    +0.000 A 
ATOM     16  C   UNL     1      43.982   2.821  10.338  0.00  0.00    +0.000 A 
ATOM     17  C   UNL     1      43.590   2.807  11.676  0.00  0.00    +0.000 A 
ATOM     18  C   UNL     1      43.787   3.933  12.475  0.00  0.00    +0.000 A 
ATOM     19  C   UNL     1      44.385   5.085  11.945  0.00  0.00    +0.000 A 
ATOM     20  C   UNL     1      44.745   5.096  10.588  0.00  0.00    +0.000 A 
BRANCH  15  21
ATOM     21  C   UNL     1      45.016   3.975   8.336  0.00  0.00    +0.000 C 
BRANCH  21  23
ATOM     22  C   UNL     1      46.941   3.144   6.947  0.00  0.00    +0.000 C 
ATOM     23  C   UNL     1      45.874   2.763   7.962  0.00  0.00    +0.000 C 
ENDBRANCH  21  23
ENDBRANCH  15  21
ENDBRANCH  14  19
ENDBRANCH   1  14
TORSDOF 5
ENDMDL
MODEL 9
REMARK VINA RESULT:    -6.028      3.137      5.713
REMARK INTER + INTRA:          -8.158
REMARK INTER:                  -7.692
REMARK INTRA:                  -0.466
REMARK UNBOUND:                -0.369
REMARK  Name = 
REMARK  6 active torsions:
REMARK  status: ('A' for Active; 'I' for Inactive)
REMARK    1  A    between atoms: C_1  and  C_2
REMARK    2  A    between atoms: C_2  and  C_3
REMARK    3  A    between atoms: C_3  and  C_4
REMARK    4  A    between atoms: C_8  and  C_9
REMARK    5  A    between atoms: C_9  and  N_10
REMARK    6  A    between atoms: C_14  and  C_15
REMARK                            x       y       z     vdW  Elec       q    Type
REMARK                         _______ _______ _______ _____ _____    ______ ____
ROOT
ATOM      1  N   UNL     1      46.961   5.205  14.649  0.00  0.00    +0.000 N 
ATOM      2  C   UNL     1      46.272   4.826  13.488  0.00  0.00    +0.000 A 
ATOM      3  C   UNL     1      46.123   5.749  12.456  0.00  0.00    +0.000 A 
ATOM      4  C   UNL     1      45.472   5.369  11.281  0.00  0.00    +0.000 A 
ATOM      5  C   UNL     1      44.974   4.074  11.151  0.00  0.00    +0.000 A 
ATOM      6  C   UNL     1      45.142   3.228  12.234  0.00  0.00    +0.000 A 
ATOM      7  N   UNL     1      45.765   3.581  13.387  0.00  0.00    +0.000 NA
ATOM      8  H   UNL     1      47.893   5.514  14.392  0.00  0.00    +0.000 HD
ENDROOT
BRANCH   5   9
ATOM      9  C   UNL     1      44.315   3.660   9.893  0.00  0.00    +0.000 C 
ATOM     10  N   UNL     1      44.016   4.611   8.953  0.00  0.00    +0.000 N 
ATOM     11  O   UNL     1      44.032   2.487   9.683  0.00  0.00    +0.000 OA
ATOM     12  H   UNL     1      44.201   5.601   9.018  0.00  0.00    +0.000 HD
ATOM     13  H   UNL     1      43.560   4.279   8.109  0.00  0.00    +0.000 HD
ENDBRANCH   5   9
BRANCH   1  14
ATOM     14  C   UNL     1      47.027   4.133  15.647  0.00  0.00    +0.000 C 
BRANCH  14  19
ATOM     15  C   UNL     1      49.192   5.884  18.274  0.00  0.00    +0.000 A 
ATOM     16  C   UNL     1      50.014   4.826  18.682  0.00  0.00    +0.000 A 
ATOM     17  C   UNL     1      49.925   3.578  18.067  0.00  0.00    +0.000 A 
ATOM     18  C   UNL     1      48.991   3.362  17.053  0.00  0.00    +0.000 A 
ATOM     19  C   UNL     1      48.132   4.394  16.647  0.00  0.00    +0.000 A 
ATOM     20  C   UNL     1      48.255   5.654  17.254  0.00  0.00    +0.000 A 
BRANCH  15  21
ATOM     21  C   UNL     1      49.253   7.224  18.968  0.00  0.00    +0.000 C 
BRANCH  21  23
ATOM     22  C   UNL     1      47.383   8.904  18.890  0.00  0.00    +0.000 C 
ATOM     23  C   UNL     1      47.922   7.661  19.583  0.00  0.00    +0.000 C 
ENDBRANCH  21  23
ENDBRANCH  15  21
ENDBRANCH  14  19
ENDBRANCH   1  14
TORSDOF 5
ENDMDL
