MODEL 1
REMARK VINA RESULT:    -8.566      0.000      0.000
REMARK INTER + INTRA:         -12.368
REMARK INTER:                 -11.571
REMARK INTRA:                  -0.797
REMARK UNBOUND:                -0.797
REMARK  Name = 
REMARK  6 active torsions:
REMARK  status: ('A' for Active; 'I' for Inactive)
REMARK    1  A    between atoms: C_2  and  C_4
REMARK    2  A    between atoms: N_8  and  C_9
REMARK    3  A    between atoms: C_9  and  C_10
REMARK    4  A    between atoms: C_10  and  C_11
REMARK    5  A    between atoms: C_15  and  O_16
REMARK    6  A    between atoms: O_16  and  C_17
REMARK                            x       y       z     vdW  Elec       q    Type
REMARK                         _______ _______ _______ _____ _____    ______ ____
ROOT
ATOM      1  C   UNL     1      43.357   4.465  11.030  0.00  0.00    +0.000 C 
ENDROOT
BRANCH   1   6
ATOM      2  C   UNL     1      46.545   2.494   7.596  0.00  0.00    +0.000 A 
ATOM      3  C   UNL     1      45.672   1.856   8.468  0.00  0.00    +0.000 A 
ATOM      4  C   UNL     1      44.764   2.620   9.202  0.00  0.00    +0.000 A 
ATOM      5  C   UNL     1      44.757   4.006   9.072  0.00  0.00    +0.000 A 
ATOM      6  N   UNL     1      43.818   4.821   9.693  0.00  0.00    +0.000 N 
ATOM      7  N   UNL     1      45.630   4.640   8.262  0.00  0.00    +0.000 NA
ATOM      8  C   UNL     1      46.503   3.879   7.547  0.00  0.00    +0.000 A 
ATOM      9  H   UNL     1      44.129   5.783   9.564  0.00  0.00    +0.000 HD
BRANCH   2  11
ATOM     10  N   UNL     1      48.530   2.478   6.201  0.00  0.00    +0.000 N 
ATOM     11  C   UNL     1      47.491   1.761   6.725  0.00  0.00    +0.000 C 
ATOM     12  O   UNL     1      47.372   0.564   6.518  0.00  0.00    +0.000 OA
ATOM     13  H   UNL     1      49.237   1.950   5.705  0.00  0.00    +0.000 HD
ATOM     14  H   UNL     1      48.797   3.389   6.551  0.00  0.00    +0.000 HD
ENDBRANCH   2  11
ENDBRANCH   1   6
BRANCH   1  15
ATOM     15  C   UNL     1      43.528   5.641  12.004  0.00  0.00    +0.000 C 
BRANCH  15  16
ATOM     16  C   UNL     1      44.927   5.649  12.579  0.00  0.00    +0.000 A 
ATOM     17  C   UNL     1      45.841   6.626  12.161  0.00  0.00    +0.000 A 
ATOM     18  C   UNL     1      47.164   6.582  12.592  0.00  0.00    +0.000 A 
ATOM     19  C   UNL     1      47.588   5.578  13.461  0.00  0.00    +0.000 A 
ATOM     20  C   UNL     1      46.680   4.631  13.937  0.00  0.00    +0.000 A 
ATOM     21  C   UNL     1      45.361   4.649  13.471  0.00  0.00    +0.000 A 
BRANCH  20  22
ATOM     22  O   UNL     1      47.012   3.629  14.818  0.00  0.00    +0.000 OA
BRANCH  22  23
ATOM     23  C   UNL     1      47.889   4.023  15.888  0.00  0.00    +0.000 C 
ATOM     24  C   UNL     1      48.396   2.812  16.657  0.00  0.00    +0.000 C 
ATOM     25  C   UNL     1      47.413   2.646  17.798  0.00  0.00    +0.000 C 
ATOM     26  N   UNL     1      46.963   3.992  18.152  0.00  0.00    +0.000 NA
ATOM     27  C   UNL     1      47.101   4.819  16.940  0.00  0.00    +0.000 C 
ATOM     28  H   UNL     1      47.561   4.370  18.885  0.00  0.00    +0.000 HD
ENDBRANCH  22  23
ENDBRANCH  20  22
ENDBRANCH  15  16
ENDBRANCH   1  15
TORSDOF 6
ENDMDL
MODEL 2
REMARK VINA RESULT:    -7.903      2.510      3.841
REMARK INTER + INTRA:         -11.472
REMARK INTER:                 -10.552
REMARK INTRA:                  -0.920
REMARK UNBOUND:                -0.797
REMARK  Name = 
REMARK  6 active torsions:
REMARK  status: ('A' for Active; 'I' for Inactive)
REMARK    1  A    between atoms: C_2  and  C_4
REMARK    2  A    between atoms: N_8  and  C_9
REMARK    3  A    between atoms: C_9  and  C_10
REMARK    4  A    between atoms: C_10  and  C_11
REMARK    5  A    between atoms: C_15  and  O_16
REMARK    6  A    between atoms: O_16  and  C_17
REMARK                            x       y       z     vdW  Elec       q    Type
REMARK                         _______ _______ _______ _____ _____    ______ ____
ROOT
ATOM      1  C   UNL     1      43.394   4.387  10.987  0.00  0.00    +0.000 C 
ENDROOT
BRANCH   1   6
ATOM      2  C   UNL     1      46.588   2.491   7.517  0.00  0.00    +0.000 A 
ATOM      3  C   UNL     1      45.787   1.833   8.442  0.00  0.00    +0.000 A 
ATOM      4  C   UNL     1      44.856   2.566   9.179  0.00  0.00    +0.000 A 
ATOM      5  C   UNL     1      44.756   3.942   8.999  0.00  0.00    +0.000 A 
ATOM      6  N   UNL     1      43.786   4.720   9.623  0.00  0.00    +0.000 N 
ATOM      7  N   UNL     1      45.559   4.598   8.136  0.00  0.00    +0.000 NA
ATOM      8  C   UNL     1      46.455   3.867   7.419  0.00  0.00    +0.000 A 
ATOM      9  H   UNL     1      44.031   5.693   9.448  0.00  0.00    +0.000 HD
BRANCH   2  11
ATOM     10  N   UNL     1      48.706   2.448   6.336  0.00  0.00    +0.000 N 
ATOM     11  C   UNL     1      47.550   1.786   6.640  0.00  0.00    +0.000 C 
ATOM     12  O   UNL     1      47.339   0.651   6.242  0.00  0.00    +0.000 OA
ATOM     13  H   UNL     1      49.410   1.919   5.835  0.00  0.00    +0.000 HD
ATOM     14  H   UNL     1      49.020   3.264   6.845  0.00  0.00    +0.000 HD
ENDBRANCH   2  11
ENDBRANCH   1   6
BRANCH   1  15
ATOM     15  C   UNL     1      43.603   5.583  11.929  0.00  0.00    +0.000 C 
BRANCH  15  16
ATOM     16  C   UNL     1      44.971   5.516  12.570  0.00  0.00    +0.000 A 
ATOM     17  C   UNL     1      45.367   4.347  13.235  0.00  0.00    +0.000 A 
ATOM     18  C   UNL     1      46.575   4.306  13.927  0.00  0.00    +0.000 A 
ATOM     19  C   UNL     1      47.412   5.420  13.948  0.00  0.00    +0.000 A 
ATOM     20  C   UNL     1      47.065   6.574  13.243  0.00  0.00    +0.000 A 
ATOM     21  C   UNL     1      45.833   6.630  12.582  0.00  0.00    +0.000 A 
BRANCH  20  22
ATOM     22  O   UNL     1      47.849   7.701  13.189  0.00  0.00    +0.000 OA
BRANCH  22  23
ATOM     23  C   UNL     1      48.140   8.179  11.864  0.00  0.00    +0.000 C 
ATOM     24  C   UNL     1      49.569   7.846  11.461  0.00  0.00    +0.000 C 
ATOM     25  C   UNL     1      50.372   9.069  11.856  0.00  0.00    +0.000 C 
ATOM     26  N   UNL     1      49.481  10.217  11.686  0.00  0.00    +0.000 NA
ATOM     27  C   UNL     1      48.105   9.714  11.844  0.00  0.00    +0.000 C 
ATOM     28  H   UNL     1      49.593  10.600  10.748  0.00  0.00    +0.000 HD
ENDBRANCH  22  23
ENDBRANCH  20  22
ENDBRANCH  15  16
ENDBRANCH   1  15
TORSDOF 6
ENDMDL
MODEL 3
REMARK VINA RESULT:    -7.349      2.625      2.974
REMARK INTER + INTRA:         -10.723
REMARK INTER:                  -9.679
REMARK INTRA:                  -1.044
REMARK UNBOUND:                -0.797
REMARK  Name = 
REMARK  6 active torsions:
REMARK  status: ('A' for Active; 'I' for Inactive)
REMARK    1  A    between atoms: C_2  and  C_4
REMARK    2  A    between atoms: N_8  and  C_9
REMARK    3  A    between atoms: C_9  and  C_10
REMARK    4  A    between atoms: C_10  and  C_11
REMARK    5  A    between atoms: C_15  and  O_16
REMARK    6  A    between atoms: O_16  and  C_17
REMARK                            x       y       z     vdW  Elec       q    Type
REMARK                         _______ _______ _______ _____ _____    ______ ____
ROOT
ATOM      1  C   UNL     1      43.279   3.684  11.316  0.00  0.00    +0.000 C 
ENDROOT
BRANCH   1   6
ATOM      2  C   UNL     1      46.400   2.819   7.398  0.00  0.00    +0.000 A 
ATOM      3  C   UNL     1      45.925   4.021   7.908  0.00  0.00    +0.000 A 
ATOM      4  C   UNL     1      45.212   4.016   9.107  0.00  0.00    +0.000 A 
ATOM      5  C   UNL     1      44.964   2.814   9.764  0.00  0.00    +0.000 A 
ATOM      6  N   UNL     1      44.350   2.743  11.009  0.00  0.00    +0.000 N 
ATOM      7  N   UNL     1      45.382   1.637   9.255  0.00  0.00    +0.000 NA
ATOM      8  C   UNL     1      46.083   1.660   8.089  0.00  0.00    +0.000 A 
ATOM      9  H   UNL     1      44.152   1.760  11.185  0.00  0.00    +0.000 HD
BRANCH   2  11
ATOM     10  N   UNL     1      48.582   2.713   6.342  0.00  0.00    +0.000 N 
ATOM     11  C   UNL     1      47.226   2.735   6.172  0.00  0.00    +0.000 C 
ATOM     12  O   UNL     1      46.719   2.648   5.065  0.00  0.00    +0.000 OA
ATOM     13  H   UNL     1      49.137   2.537   5.514  0.00  0.00    +0.000 HD
ATOM     14  H   UNL     1      49.018   2.528   7.236  0.00  0.00    +0.000 HD
ENDBRANCH   2  11
ENDBRANCH   1   6
BRANCH   1  15
ATOM     15  C   UNL     1      43.510   4.360  12.676  0.00  0.00    +0.000 C 
BRANCH  15  16
ATOM     16  C   UNL     1      44.462   5.526  12.530  0.00  0.00    +0.000 A 
ATOM     17  C   UNL     1      44.117   6.601  11.700  0.00  0.00    +0.000 A 
ATOM     18  C   UNL     1      45.028   7.628  11.463  0.00  0.00    +0.000 A 
ATOM     19  C   UNL     1      46.283   7.607  12.067  0.00  0.00    +0.000 A 
ATOM     20  C   UNL     1      46.625   6.577  12.944  0.00  0.00    +0.000 A 
ATOM     21  C   UNL     1      45.727   5.523  13.149  0.00  0.00    +0.000 A 
BRANCH  20  22
ATOM     22  O   UNL     1      47.830   6.500  13.601  0.00  0.00    +0.000 OA
BRANCH  22  23
ATOM     23  C   UNL     1      48.518   7.753  13.762  0.00  0.00    +0.000 C 
ATOM     24  C   UNL     1      50.026   7.552  13.788  0.00  0.00    +0.000 C 
ATOM     25  C   UNL     1      50.367   7.412  15.258  0.00  0.00    +0.000 C 
ATOM     26  N   UNL     1      49.414   8.252  15.982  0.00  0.00    +0.000 NA
ATOM     27  C   UNL     1      48.206   8.344  15.145  0.00  0.00    +0.000 C 
ATOM     28  H   UNL     1      49.808   9.184  16.108  0.00  0.00    +0.000 HD
ENDBRANCH  22  23
ENDBRANCH  20  22
ENDBRANCH  15  16
ENDBRANCH   1  15
TORSDOF 6
ENDMDL
MODEL 4
REMARK VINA RESULT:    -7.288      2.554      4.136
REMARK INTER + INTRA:         -10.641
REMARK INTER:                 -10.759
REMARK INTRA:                   0.118
REMARK UNBOUND:                -0.797
REMARK  Name = 
REMARK  6 active torsions:
REMARK  status: ('A' for Active; 'I' for Inactive)
REMARK    1  A    between atoms: C_2  and  C_4
REMARK    2  A    between atoms: N_8  and  C_9
REMARK    3  A    between atoms: C_9  and  C_10
REMARK    4  A    between atoms: C_10  and  C_11
REMARK    5  A    between atoms: C_15  and  O_16
REMARK    6  A    between atoms: O_16  and  C_17
REMARK                            x       y       z     vdW  Elec       q    Type
REMARK                         _______ _______ _______ _____ _____    ______ ____
ROOT
ATOM      1  C   UNL     1      43.572   4.402  11.022  0.00  0.00    +0.000 C 
ENDROOT
BRANCH   1   6
ATOM      2  C   UNL     1      46.577   2.392   7.449  0.00  0.00    +0.000 A 
ATOM      3  C   UNL     1      45.771   1.763   8.391  0.00  0.00    +0.000 A 
ATOM      4  C   UNL     1      44.897   2.532   9.159  0.00  0.00    +0.000 A 
ATOM      5  C   UNL     1      44.857   3.913   8.994  0.00  0.00    +0.000 A 
ATOM      6  N   UNL     1      43.942   4.729   9.650  0.00  0.00    +0.000 N 
ATOM      7  N   UNL     1      45.666   4.539   8.114  0.00  0.00    +0.000 NA
ATOM      8  C   UNL     1      46.507   3.774   7.367  0.00  0.00    +0.000 A 
ATOM      9  H   UNL     1      44.227   5.692   9.477  0.00  0.00    +0.000 HD
BRANCH   2  11
ATOM     10  N   UNL     1      48.608   2.303   6.124  0.00  0.00    +0.000 N 
ATOM     11  C   UNL     1      47.481   1.651   6.541  0.00  0.00    +0.000 C 
ATOM     12  O   UNL     1      47.252   0.498   6.212  0.00  0.00    +0.000 OA
ATOM     13  H   UNL     1      49.279   1.754   5.601  0.00  0.00    +0.000 HD
ATOM     14  H   UNL     1      48.950   3.144   6.571  0.00  0.00    +0.000 HD
ENDBRANCH   2  11
ENDBRANCH   1   6
BRANCH   1  15
ATOM     15  C   UNL     1      44.668   3.571  11.707  0.00  0.00    +0.000 C 
BRANCH  15  16
ATOM     16  C   UNL     1      45.677   4.479  12.375  0.00  0.00    +0.000 A 
ATOM     17  C   UNL     1      46.282   4.077  13.573  0.00  0.00    +0.000 A 
ATOM     18  C   UNL     1      47.126   4.946  14.262  0.00  0.00    +0.000 A 
ATOM     19  C   UNL     1      47.393   6.216  13.754  0.00  0.00    +0.000 A 
ATOM     20  C   UNL     1      46.848   6.614  12.533  0.00  0.00    +0.000 A 
ATOM     21  C   UNL     1      45.967   5.758  11.862  0.00  0.00    +0.000 A 
BRANCH  20  22
ATOM     22  O   UNL     1      47.087   7.836  11.951  0.00  0.00    +0.000 OA
BRANCH  22  23
ATOM     23  C   UNL     1      46.738   8.974  12.758  0.00  0.00    +0.000 C 
ATOM     24  C   UNL     1      45.248   9.272  12.672  0.00  0.00    +0.000 C 
ATOM     25  C   UNL     1      45.126  10.287  11.553  0.00  0.00    +0.000 C 
ATOM     26  N   UNL     1      46.348  11.088  11.590  0.00  0.00    +0.000 NA
ATOM     27  C   UNL     1      47.395  10.239  12.186  0.00  0.00    +0.000 C 
ATOM     28  H   UNL     1      46.203  11.906  12.180  0.00  0.00    +0.000 HD
ENDBRANCH  22  23
ENDBRANCH  20  22
ENDBRANCH  15  16
ENDBRANCH   1  15
TORSDOF 6
ENDMDL
MODEL 5
REMARK VINA RESULT:    -7.164      3.464      5.607
REMARK INTER + INTRA:         -10.473
REMARK INTER:                  -9.699
REMARK INTRA:                  -0.774
REMARK UNBOUND:                -0.797
REMARK  Name = 
REMARK  6 active torsions:
REMARK  status: ('A' for Active; 'I' for Inactive)
REMARK    1  A    between atoms: C_2  and  C_4
REMARK    2  A    between atoms: N_8  and  C_9
REMARK    3  A    between atoms: C_9  and  C_10
REMARK    4  A    between atoms: C_10  and  C_11
REMARK    5  A    between atoms: C_15  and  O_16
REMARK    6  A    between atoms: O_16  and  C_17
REMARK                            x       y       z     vdW  Elec       q    Type
REMARK                         _______ _______ _______ _____ _____    ______ ____
ROOT
ATOM      1  C   UNL     1      43.281   4.146  10.977  0.00  0.00    +0.000 C 
ENDROOT
BRANCH   1   6
ATOM      2  C   UNL     1      46.602   2.390   7.552  0.00  0.00    +0.000 A 
ATOM      3  C   UNL     1      45.787   1.696   8.437  0.00  0.00    +0.000 A 
ATOM      4  C   UNL     1      44.824   2.395   9.166  0.00  0.00    +0.000 A 
ATOM      5  C   UNL     1      44.706   3.774   9.018  0.00  0.00    +0.000 A 
ATOM      6  N   UNL     1      43.706   4.519   9.633  0.00  0.00    +0.000 N 
ATOM      7  N   UNL     1      45.522   4.464   8.195  0.00  0.00    +0.000 NA
ATOM      8  C   UNL     1      46.450   3.767   7.486  0.00  0.00    +0.000 A 
ATOM      9  H   UNL     1      43.939   5.501   9.490  0.00  0.00    +0.000 HD
BRANCH   2  11
ATOM     10  N   UNL     1      47.190   0.604   6.020  0.00  0.00    +0.000 N 
ATOM     11  C   UNL     1      47.601   1.724   6.686  0.00  0.00    +0.000 C 
ATOM     12  O   UNL     1      48.725   2.178   6.542  0.00  0.00    +0.000 OA
ATOM     13  H   UNL     1      47.837   0.221   5.341  0.00  0.00    +0.000 HD
ATOM     14  H   UNL     1      46.215   0.354   5.918  0.00  0.00    +0.000 HD
ENDBRANCH   2  11
ENDBRANCH   1   6
BRANCH   1  15
ATOM     15  C   UNL     1      42.915   5.387  11.805  0.00  0.00    +0.000 C 
BRANCH  15  16
ATOM     16  C   UNL     1      44.090   6.336  11.880  0.00  0.00    +0.000 A 
ATOM     17  C   UNL     1      45.294   5.903  12.452  0.00  0.00    +0.000 A 
ATOM     18  C   UNL     1      46.348   6.795  12.633  0.00  0.00    +0.000 A 
ATOM     19  C   UNL     1      46.224   8.122  12.226  0.00  0.00    +0.000 A 
ATOM     20  C   UNL     1      45.056   8.559  11.599  0.00  0.00    +0.000 A 
ATOM     21  C   UNL     1      43.982   7.675  11.456  0.00  0.00    +0.000 A 
BRANCH  20  22
ATOM     22  O   UNL     1      44.868   9.842  11.143  0.00  0.00    +0.000 OA
BRANCH  22  23
ATOM     23  C   UNL     1      43.574  10.102  10.571  0.00  0.00    +0.000 C 
ATOM     24  C   UNL     1      43.700  10.702   9.178  0.00  0.00    +0.000 C 
ATOM     25  C   UNL     1      43.674  12.200   9.404  0.00  0.00    +0.000 C 
ATOM     26  N   UNL     1      42.810  12.426  10.561  0.00  0.00    +0.000 NA
ATOM     27  C   UNL     1      42.860  11.199  11.376  0.00  0.00    +0.000 C 
ATOM     28  H   UNL     1      41.853  12.582  10.248  0.00  0.00    +0.000 HD
ENDBRANCH  22  23
ENDBRANCH  20  22
ENDBRANCH  15  16
ENDBRANCH   1  15
TORSDOF 6
ENDMDL
MODEL 6
REMARK VINA RESULT:    -7.085      2.266      8.431
REMARK INTER + INTRA:         -10.367
REMARK INTER:                  -9.753
REMARK INTRA:                  -0.614
REMARK UNBOUND:                -0.797
REMARK  Name = 
REMARK  6 active torsions:
REMARK  status: ('A' for Active; 'I' for Inactive)
REMARK    1  A    between atoms: C_2  and  C_4
REMARK    2  A    between atoms: N_8  and  C_9
REMARK    3  A    between atoms: C_9  and  C_10
REMARK    4  A    between atoms: C_10  and  C_11
REMARK    5  A    between atoms: C_15  and  O_16
REMARK    6  A    between atoms: O_16  and  C_17
REMARK                            x       y       z     vdW  Elec       q    Type
REMARK                         _______ _______ _______ _____ _____    ______ ____
ROOT
ATOM      1  C   UNL     1      45.881   6.019  12.650  0.00  0.00    +0.000 C 
ENDROOT
BRANCH   1   6
ATOM      2  C   UNL     1      48.382   4.550  16.824  0.00  0.00    +0.000 A 
ATOM      3  C   UNL     1      47.369   3.909  16.123  0.00  0.00    +0.000 A 
ATOM      4  C   UNL     1      46.954   4.431  14.897  0.00  0.00    +0.000 A 
ATOM      5  C   UNL     1      47.539   5.593  14.403  0.00  0.00    +0.000 A 
ATOM      6  N   UNL     1      47.248   6.113  13.147  0.00  0.00    +0.000 N 
ATOM      7  N   UNL     1      48.492   6.249  15.097  0.00  0.00    +0.000 NA
ATOM      8  C   UNL     1      48.891   5.722  16.286  0.00  0.00    +0.000 A 
ATOM      9  H   UNL     1      47.683   7.033  13.100  0.00  0.00    +0.000 HD
BRANCH   2  11
ATOM     10  N   UNL     1      49.509   2.791  18.057  0.00  0.00    +0.000 N 
ATOM     11  C   UNL     1      48.936   4.030  18.095  0.00  0.00    +0.000 C 
ATOM     12  O   UNL     1      48.917   4.695  19.119  0.00  0.00    +0.000 OA
ATOM     13  H   UNL     1      49.989   2.490  18.897  0.00  0.00    +0.000 HD
ATOM     14  H   UNL     1      49.765   2.333  17.192  0.00  0.00    +0.000 HD
ENDBRANCH   2  11
ENDBRANCH   1   6
BRANCH   1  15
ATOM     15  C   UNL     1      45.830   6.233  11.129  0.00  0.00    +0.000 C 
BRANCH  15  16
ATOM     16  C   UNL     1      45.252   5.015  10.445  0.00  0.00    +0.000 A 
ATOM     17  C   UNL     1      44.461   4.120  11.178  0.00  0.00    +0.000 A 
ATOM     18  C   UNL     1      44.015   2.935  10.596  0.00  0.00    +0.000 A 
ATOM     19  C   UNL     1      44.332   2.640   9.272  0.00  0.00    +0.000 A 
ATOM     20  C   UNL     1      45.067   3.545   8.506  0.00  0.00    +0.000 A 
ATOM     21  C   UNL     1      45.551   4.715   9.102  0.00  0.00    +0.000 A 
BRANCH  20  22
ATOM     22  O   UNL     1      45.394   3.341   7.186  0.00  0.00    +0.000 OA
BRANCH  22  23
ATOM     23  C   UNL     1      46.787   3.085   6.936  0.00  0.00    +0.000 C 
ATOM     24  C   UNL     1      47.099   3.155   5.448  0.00  0.00    +0.000 C 
ATOM     25  C   UNL     1      46.961   1.727   4.961  0.00  0.00    +0.000 C 
ATOM     26  N   UNL     1      47.373   0.872   6.073  0.00  0.00    +0.000 NA
ATOM     27  C   UNL     1      47.125   1.634   7.310  0.00  0.00    +0.000 C 
ATOM     28  H   UNL     1      48.369   0.670   5.998  0.00  0.00    +0.000 HD
ENDBRANCH  22  23
ENDBRANCH  20  22
ENDBRANCH  15  16
ENDBRANCH   1  15
TORSDOF 6
ENDMDL
MODEL 7
REMARK VINA RESULT:    -6.530      3.338      7.620
REMARK INTER + INTRA:          -9.617
REMARK INTER:                  -8.618
REMARK INTRA:                  -0.999
REMARK UNBOUND:                -0.797
REMARK  Name = 
REMARK  6 active torsions:
REMARK  status: ('A' for Active; 'I' for Inactive)
REMARK    1  A    between atoms: C_2  and  C_4
REMARK    2  A    between atoms: N_8  and  C_9
REMARK    3  A    between atoms: C_9  and  C_10
REMARK    4  A    between atoms: C_10  and  C_11
REMARK    5  A    between atoms: C_15  and  O_16
REMARK    6  A    between atoms: O_16  and  C_17
REMARK                            x       y       z     vdW  Elec       q    Type
REMARK                         _______ _______ _______ _____ _____    ______ ____
ROOT
ATOM      1  C   UNL     1      49.554   8.422  14.018  0.00  0.00    +0.000 C 
ENDROOT
BRANCH   1   6
ATOM      2  C   UNL     1      48.272   4.499  16.986  0.00  0.00    +0.000 A 
ATOM      3  C   UNL     1      47.593   5.061  15.911  0.00  0.00    +0.000 A 
ATOM      4  C   UNL     1      48.231   6.030  15.136  0.00  0.00    +0.000 A 
ATOM      5  C   UNL     1      49.521   6.439  15.457  0.00  0.00    +0.000 A 
ATOM      6  N   UNL     1      50.254   7.323  14.673  0.00  0.00    +0.000 N 
ATOM      7  N   UNL     1      50.173   5.933  16.525  0.00  0.00    +0.000 NA
ATOM      8  C   UNL     1      49.540   4.984  17.266  0.00  0.00    +0.000 A 
ATOM      9  H   UNL     1      51.086   7.571  15.207  0.00  0.00    +0.000 HD
BRANCH   2  11
ATOM     10  N   UNL     1      48.375   3.104  18.968  0.00  0.00    +0.000 N 
ATOM     11  C   UNL     1      47.704   3.416  17.819  0.00  0.00    +0.000 C 
ATOM     12  O   UNL     1      46.662   2.856  17.515  0.00  0.00    +0.000 OA
ATOM     13  H   UNL     1      47.921   2.447  19.591  0.00  0.00    +0.000 HD
ATOM     14  H   UNL     1      49.080   3.707  19.370  0.00  0.00    +0.000 HD
ENDBRANCH   2  11
ENDBRANCH   1   6
BRANCH   1  15
ATOM     15  C   UNL     1      49.291   8.105  12.538  0.00  0.00    +0.000 C 
BRANCH  15  16
ATOM     16  C   UNL     1      47.806   8.132  12.250  0.00  0.00    +0.000 A 
ATOM     17  C   UNL     1      47.072   9.296  12.512  0.00  0.00    +0.000 A 
ATOM     18  C   UNL     1      45.687   9.304  12.361  0.00  0.00    +0.000 A 
ATOM     19  C   UNL     1      45.021   8.160  11.928  0.00  0.00    +0.000 A 
ATOM     20  C   UNL     1      45.739   7.008  11.604  0.00  0.00    +0.000 A 
ATOM     21  C   UNL     1      47.125   6.986  11.795  0.00  0.00    +0.000 A 
BRANCH  20  22
ATOM     22  O   UNL     1      45.160   5.850  11.141  0.00  0.00    +0.000 OA
BRANCH  22  23
ATOM     23  C   UNL     1      44.525   5.042  12.147  0.00  0.00    +0.000 C 
ATOM     24  C   UNL     1      45.024   3.605  12.092  0.00  0.00    +0.000 C 
ATOM     25  C   UNL     1      44.038   2.892  11.190  0.00  0.00    +0.000 C 
ATOM     26  N   UNL     1      42.744   3.538  11.405  0.00  0.00    +0.000 NA
ATOM     27  C   UNL     1      43.024   4.917  11.845  0.00  0.00    +0.000 C 
ATOM     28  H   UNL     1      42.235   3.049  12.140  0.00  0.00    +0.000 HD
ENDBRANCH  22  23
ENDBRANCH  20  22
ENDBRANCH  15  16
ENDBRANCH   1  15
TORSDOF 6
ENDMDL
MODEL 8
REMARK VINA RESULT:    -6.515      2.902      4.350
REMARK INTER + INTRA:          -9.597
REMARK INTER:                  -8.642
REMARK INTRA:                  -0.955
REMARK UNBOUND:                -0.797
REMARK  Name = 
REMARK  6 active torsions:
REMARK  status: ('A' for Active; 'I' for Inactive)
REMARK    1  A    between atoms: C_2  and  C_4
REMARK    2  A    between atoms: N_8  and  C_9
REMARK    3  A    between atoms: C_9  and  C_10
REMARK    4  A    between atoms: C_10  and  C_11
REMARK    5  A    between atoms: C_15  and  O_16
REMARK    6  A    between atoms: O_16  and  C_17
REMARK                            x       y       z     vdW  Elec       q    Type
REMARK                         _______ _______ _______ _____ _____    ______ ____
ROOT
ATOM      1  C   UNL     1      46.140   8.788  13.105  0.00  0.00    +0.000 C 
ENDROOT
BRANCH   1   6
ATOM      2  C   UNL     1      44.468   4.259  11.512  0.00  0.00    +0.000 A 
ATOM      3  C   UNL     1      44.315   4.880  12.746  0.00  0.00    +0.000 A 
ATOM      4  C   UNL     1      44.717   6.208  12.893  0.00  0.00    +0.000 A 
ATOM      5  C   UNL     1      45.284   6.886  11.818  0.00  0.00    +0.000 A 
ATOM      6  N   UNL     1      45.614   8.236  11.862  0.00  0.00    +0.000 N 
ATOM      7  N   UNL     1      45.479   6.279  10.629  0.00  0.00    +0.000 NA
ATOM      8  C   UNL     1      45.074   4.987  10.500  0.00  0.00    +0.000 A 
ATOM      9  H   UNL     1      46.147   8.437  11.017  0.00  0.00    +0.000 HD
BRANCH   2  11
ATOM     10  N   UNL     1      43.642   2.128  12.325  0.00  0.00    +0.000 N 
ATOM     11  C   UNL     1      44.006   2.879  11.243  0.00  0.00    +0.000 C 
ATOM     12  O   UNL     1      43.915   2.446  10.105  0.00  0.00    +0.000 OA
ATOM     13  H   UNL     1      43.217   1.230  12.128  0.00  0.00    +0.000 HD
ATOM     14  H   UNL     1      43.464   2.531  13.236  0.00  0.00    +0.000 HD
ENDBRANCH   2  11
ENDBRANCH   1   6
BRANCH   1  15
ATOM     15  C   UNL     1      47.672   8.680  13.153  0.00  0.00    +0.000 C 
BRANCH  15  16
ATOM     16  C   UNL     1      48.127   8.263  14.534  0.00  0.00    +0.000 A 
ATOM     17  C   UNL     1      48.321   9.239  15.521  0.00  0.00    +0.000 A 
ATOM     18  C   UNL     1      48.848   8.889  16.762  0.00  0.00    +0.000 A 
ATOM     19  C   UNL     1      49.166   7.562  17.042  0.00  0.00    +0.000 A 
ATOM     20  C   UNL     1      48.925   6.566  16.095  0.00  0.00    +0.000 A 
ATOM     21  C   UNL     1      48.436   6.922  14.833  0.00  0.00    +0.000 A 
BRANCH  20  22
ATOM     22  O   UNL     1      49.183   5.232  16.305  0.00  0.00    +0.000 OA
BRANCH  22  23
ATOM     23  C   UNL     1      48.727   4.714  17.566  0.00  0.00    +0.000 C 
ATOM     24  C   UNL     1      49.145   3.262  17.747  0.00  0.00    +0.000 C 
ATOM     25  C   UNL     1      47.971   2.459  17.226  0.00  0.00    +0.000 C 
ATOM     26  N   UNL     1      46.773   3.243  17.523  0.00  0.00    +0.000 NA
ATOM     27  C   UNL     1      47.192   4.654  17.581  0.00  0.00    +0.000 C 
ATOM     28  H   UNL     1      46.400   2.966  18.430  0.00  0.00    +0.000 HD
ENDBRANCH  22  23
ENDBRANCH  20  22
ENDBRANCH  15  16
ENDBRANCH   1  15
TORSDOF 6
ENDMDL
MODEL 9
REMARK VINA RESULT:    -6.465      3.145      7.943
REMARK INTER + INTRA:          -9.529
REMARK INTER:                  -8.742
REMARK INTRA:                  -0.787
REMARK UNBOUND:                -0.797
REMARK  Name = 
REMARK  6 active torsions:
REMARK  status: ('A' for Active; 'I' for Inactive)
REMARK    1  A    between atoms: C_2  and  C_4
REMARK    2  A    between atoms: N_8  and  C_9
REMARK    3  A    between atoms: C_9  and  C_10
REMARK    4  A    between atoms: C_10  and  C_11
REMARK    5  A    between atoms: C_15  and  O_16
REMARK    6  A    between atoms: O_16  and  C_17
REMARK                            x       y       z     vdW  Elec       q    Type
REMARK                         _______ _______ _______ _____ _____    ______ ____
ROOT
ATOM      1  C   UNL     1      48.851   7.699  15.956  0.00  0.00    +0.000 C 
ENDROOT
BRANCH   1   6
ATOM      2  C   UNL     1      50.772   3.223  17.408  0.00  0.00    +0.000 A 
ATOM      3  C   UNL     1      51.348   4.487  17.430  0.00  0.00    +0.000 A 
ATOM      4  C   UNL     1      50.557   5.600  17.140  0.00  0.00    +0.000 A 
ATOM      5  C   UNL     1      49.215   5.432  16.811  0.00  0.00    +0.000 A 
ATOM      6  N   UNL     1      48.345   6.498  16.609  0.00  0.00    +0.000 N 
ATOM      7  N   UNL     1      48.657   4.206  16.742  0.00  0.00    +0.000 NA
ATOM      8  C   UNL     1      49.440   3.132  17.036  0.00  0.00    +0.000 A 
ATOM      9  H   UNL     1      47.483   6.108  16.232  0.00  0.00    +0.000 HD
BRANCH   2  11
ATOM     10  N   UNL     1      52.607   2.149  18.576  0.00  0.00    +0.000 N 
ATOM     11  C   UNL     1      51.513   1.995  17.771  0.00  0.00    +0.000 C 
ATOM     12  O   UNL     1      51.141   0.891  17.403  0.00  0.00    +0.000 OA
ATOM     13  H   UNL     1      53.039   1.299  18.917  0.00  0.00    +0.000 HD
ATOM     14  H   UNL     1      52.787   2.997  19.097  0.00  0.00    +0.000 HD
ENDBRANCH   2  11
ENDBRANCH   1   6
BRANCH   1  15
ATOM     15  C   UNL     1      49.121   7.445  14.465  0.00  0.00    +0.000 C 
BRANCH  15  16
ATOM     16  C   UNL     1      47.821   7.399  13.694  0.00  0.00    +0.000 A 
ATOM     17  C   UNL     1      47.020   8.547  13.621  0.00  0.00    +0.000 A 
ATOM     18  C   UNL     1      45.767   8.493  13.013  0.00  0.00    +0.000 A 
ATOM     19  C   UNL     1      45.308   7.303  12.453  0.00  0.00    +0.000 A 
ATOM     20  C   UNL     1      46.114   6.164  12.462  0.00  0.00    +0.000 A 
ATOM     21  C   UNL     1      47.354   6.206  13.109  0.00  0.00    +0.000 A 
BRANCH  20  22
ATOM     22  O   UNL     1      45.747   4.962  11.906  0.00  0.00    +0.000 OA
BRANCH  22  23
ATOM     23  C   UNL     1      44.356   4.853  11.553  0.00  0.00    +0.000 C 
ATOM     24  C   UNL     1      43.555   4.207  12.674  0.00  0.00    +0.000 C 
ATOM     25  C   UNL     1      43.545   2.730  12.333  0.00  0.00    +0.000 C 
ATOM     26  N   UNL     1      43.552   2.646  10.873  0.00  0.00    +0.000 NA
ATOM     27  C   UNL     1      44.192   3.877  10.379  0.00  0.00    +0.000 C 
ATOM     28  H   UNL     1      42.593   2.604  10.529  0.00  0.00    +0.000 HD
ENDBRANCH  22  23
ENDBRANCH  20  22
ENDBRANCH  15  16
ENDBRANCH   1  15
TORSDOF 6
ENDMDL
