MODEL 1
REMARK VINA RESULT:    -8.433      0.000      0.000
REMARK INTER + INTRA:         -13.722
REMARK INTER:                 -12.623
REMARK INTRA:                  -1.098
REMARK UNBOUND:                -1.098
REMARK  Name = 
REMARK  9 active torsions:
REMARK  status: ('A' for Active; 'I' for Inactive)
REMARK    1  A    between atoms: N_1  and  C_2
REMARK    2  A    between atoms: C_2  and  C_3
REMARK    3  A    between atoms: C_3  and  N_4
REMARK    4  A    between atoms: C_3  and  C_12
REMARK    5  A    between atoms: N_4  and  C_5
REMARK    6  A    between atoms: C_5  and  C_6
REMARK    7  A    between atoms: C_15  and  C_16
REMARK    8  A    between atoms: C_16  and  N_17
REMARK    9  A    between atoms: C_18  and  C_20
REMARK                            x       y       z     vdW  Elec       q    Type
REMARK                         _______ _______ _______ _____ _____    ______ ____
ROOT
ATOM      1  C   UNL     1      45.235   4.726  11.931  0.00  0.00    +0.000 A 
ATOM      2  C   UNL     1      45.805   5.884  11.368  0.00  0.00    +0.000 A 
ATOM      3  C   UNL     1      46.851   6.560  12.003  0.00  0.00    +0.000 A 
ATOM      4  C   UNL     1      47.393   6.061  13.193  0.00  0.00    +0.000 A 
ATOM      5  C   UNL     1      46.846   4.901  13.747  0.00  0.00    +0.000 A 
ATOM      6  C   UNL     1      45.779   4.247  13.132  0.00  0.00    +0.000 A 
ENDROOT
BRANCH   1   7
ATOM      7  C   UNL     1      44.010   4.084  11.270  0.00  0.00    +0.000 C 
BRANCH   7   8
ATOM      8  N   UNL     1      44.238   3.780   9.841  0.00  0.00    +0.000 NA
ATOM      9  H   UNL     1      44.880   4.463   9.446  0.00  0.00    +0.000 HD
BRANCH   8  10
ATOM     10  C   UNL     1      44.733   2.432   9.577  0.00  0.00    +0.000 C 
BRANCH  10  11
ATOM     11  C   UNL     1      45.704   2.399   8.418  0.00  0.00    +0.000 A 
ATOM     12  C   UNL     1      46.373   1.214   8.075  0.00  0.00    +0.000 A 
ATOM     13  C   UNL     1      47.222   1.176   6.968  0.00  0.00    +0.000 A 
ATOM     14  C   UNL     1      47.410   2.323   6.197  0.00  0.00    +0.000 A 
ATOM     15  C   UNL     1      46.760   3.507   6.539  0.00  0.00    +0.000 A 
ATOM     16  C   UNL     1      45.912   3.546   7.645  0.00  0.00    +0.000 A 
ENDBRANCH  10  11
ENDBRANCH   8  10
ENDBRANCH   7   8
BRANCH   7  17
ATOM     17  C   UNL     1      42.723   4.977  11.445  0.00  0.00    +0.000 C 
BRANCH  17  18
ATOM     18  N   UNL     1      42.458   5.484  12.797  0.00  0.00    +0.000 NA
ATOM     19  H   UNL     1      42.550   6.503  12.790  0.00  0.00    +0.000 HD
ATOM     20  H   UNL     1      43.159   5.133  13.442  0.00  0.00    +0.000 HD
ENDBRANCH  17  18
ENDBRANCH   7  17
ENDBRANCH   1   7
BRANCH   4  21
ATOM     21  C   UNL     1      48.518   6.762  13.902  0.00  0.00    +0.000 C 
BRANCH  21  22
ATOM     22  N   UNL     1      48.269   6.868  15.317  0.00  0.00    +0.000 N 
ATOM     23  C   UNL     1      49.190   6.509  16.265  0.00  0.00    +0.000 C 
ATOM     24  O   UNL     1      50.295   6.057  15.980  0.00  0.00    +0.000 OA
ATOM     25  H   UNL     1      47.302   7.006  15.591  0.00  0.00    +0.000 HD
BRANCH  23  26
ATOM     26  C   UNL     1      48.805   6.770  17.659  0.00  0.00    +0.000 A 
ATOM     27  C   UNL     1      48.498   8.064  18.056  0.00  0.00    +0.000 A 
ATOM     28  S   UNL     1      48.019   8.182  19.689  0.00  0.00    +0.000 S 
ATOM     29  C   UNL     1      48.255   6.515  19.935  0.00  0.00    +0.000 A 
ATOM     30  N   UNL     1      48.045   5.953  21.157  0.00  0.00    +0.000 NA
ATOM     31  C   UNL     1      48.287   4.687  21.209  0.00  0.00    +0.000 A 
ATOM     32  N   UNL     1      48.708   3.927  20.149  0.00  0.00    +0.000 N 
ATOM     33  C   UNL     1      48.878   4.438  18.885  0.00  0.00    +0.000 A 
ATOM     34  O   UNL     1      49.151   3.711  17.940  0.00  0.00    +0.000 OA
ATOM     35  C   UNL     1      48.660   5.872  18.779  0.00  0.00    +0.000 A 
ATOM     36  H   UNL     1      48.851   2.934  20.248  0.00  0.00    +0.000 HD
ENDBRANCH  23  26
ENDBRANCH  21  22
ENDBRANCH   4  21
TORSDOF 9
ENDMDL
MODEL 2
REMARK VINA RESULT:    -8.008      1.498      2.277
REMARK INTER + INTRA:         -13.086
REMARK INTER:                 -12.015
REMARK INTRA:                  -1.070
REMARK UNBOUND:                -1.098
REMARK  Name = 
REMARK  9 active torsions:
REMARK  status: ('A' for Active; 'I' for Inactive)
REMARK    1  A    between atoms: N_1  and  C_2
REMARK    2  A    between atoms: C_2  and  C_3
REMARK    3  A    between atoms: C_3  and  N_4
REMARK    4  A    between atoms: C_3  and  C_12
REMARK    5  A    between atoms: N_4  and  C_5
REMARK    6  A    between atoms: C_5  and  C_6
REMARK    7  A    between atoms: C_15  and  C_16
REMARK    8  A    between atoms: C_16  and  N_17
REMARK    9  A    between atoms: C_18  and  C_20
REMARK                            x       y       z     vdW  Elec       q    Type
REMARK                         _______ _______ _______ _____ _____    ______ ____
ROOT
ATOM      1  C   UNL     1      45.679   5.379  12.128  0.00  0.00    +0.000 A 
ATOM      2  C   UNL     1      46.108   4.617  13.232  0.00  0.00    +0.000 A 
ATOM      3  C   UNL     1      47.120   5.078  14.081  0.00  0.00    +0.000 A 
ATOM      4  C   UNL     1      47.690   6.339  13.878  0.00  0.00    +0.000 A 
ATOM      5  C   UNL     1      47.255   7.109  12.796  0.00  0.00    +0.000 A 
ATOM      6  C   UNL     1      46.271   6.634  11.929  0.00  0.00    +0.000 A 
ENDROOT
BRANCH   1   7
ATOM      7  C   UNL     1      44.655   4.788  11.150  0.00  0.00    +0.000 C 
BRANCH   7   8
ATOM      8  N   UNL     1      44.973   5.110   9.743  0.00  0.00    +0.000 NA
ATOM      9  H   UNL     1      45.982   5.180   9.629  0.00  0.00    +0.000 HD
BRANCH   8  10
ATOM     10  C   UNL     1      44.434   4.168   8.766  0.00  0.00    +0.000 C 
BRANCH  10  11
ATOM     11  C   UNL     1      45.500   3.251   8.210  0.00  0.00    +0.000 A 
ATOM     12  C   UNL     1      45.550   1.899   8.580  0.00  0.00    +0.000 A 
ATOM     13  C   UNL     1      46.501   1.046   8.017  0.00  0.00    +0.000 A 
ATOM     14  C   UNL     1      47.411   1.539   7.083  0.00  0.00    +0.000 A 
ATOM     15  C   UNL     1      47.377   2.884   6.719  0.00  0.00    +0.000 A 
ATOM     16  C   UNL     1      46.428   3.737   7.282  0.00  0.00    +0.000 A 
ENDBRANCH  10  11
ENDBRANCH   8  10
ENDBRANCH   7   8
BRANCH   7  17
ATOM     17  C   UNL     1      43.189   5.244  11.503  0.00  0.00    +0.000 C 
BRANCH  17  18
ATOM     18  N   UNL     1      42.808   6.601  11.091  0.00  0.00    +0.000 NA
ATOM     19  H   UNL     1      43.546   6.982  10.493  0.00  0.00    +0.000 HD
ATOM     20  H   UNL     1      42.752   7.206  11.904  0.00  0.00    +0.000 HD
ENDBRANCH  17  18
ENDBRANCH   7  17
ENDBRANCH   1   7
BRANCH   4  21
ATOM     21  C   UNL     1      48.779   6.865  14.770  0.00  0.00    +0.000 C 
BRANCH  21  22
ATOM     22  N   UNL     1      48.497   6.611  16.160  0.00  0.00    +0.000 N 
ATOM     23  C   UNL     1      49.364   5.949  16.988  0.00  0.00    +0.000 C 
ATOM     24  O   UNL     1      50.446   5.512  16.606  0.00  0.00    +0.000 OA
ATOM     25  H   UNL     1      47.533   6.739  16.450  0.00  0.00    +0.000 HD
BRANCH  23  26
ATOM     26  C   UNL     1      48.956   5.859  18.398  0.00  0.00    +0.000 A 
ATOM     27  C   UNL     1      49.116   4.663  19.084  0.00  0.00    +0.000 A 
ATOM     28  S   UNL     1      48.643   4.747  20.720  0.00  0.00    +0.000 S 
ATOM     29  C   UNL     1      48.161   6.370  20.554  0.00  0.00    +0.000 A 
ATOM     30  N   UNL     1      47.624   7.050  21.605  0.00  0.00    +0.000 NA
ATOM     31  C   UNL     1      47.279   8.262  21.333  0.00  0.00    +0.000 A 
ATOM     32  N   UNL     1      47.431   8.863  20.111  0.00  0.00    +0.000 N 
ATOM     33  C   UNL     1      48.019   8.237  19.039  0.00  0.00    +0.000 A 
ATOM     34  O   UNL     1      48.236   8.838  17.996  0.00  0.00    +0.000 OA
ATOM     35  C   UNL     1      48.389   6.851  19.278  0.00  0.00    +0.000 A 
ATOM     36  H   UNL     1      47.167   9.827  19.971  0.00  0.00    +0.000 HD
ENDBRANCH  23  26
ENDBRANCH  21  22
ENDBRANCH   4  21
TORSDOF 9
ENDMDL
MODEL 3
REMARK VINA RESULT:    -7.861      1.590      2.743
REMARK INTER + INTRA:         -12.865
REMARK INTER:                 -11.759
REMARK INTRA:                  -1.106
REMARK UNBOUND:                -1.098
REMARK  Name = 
REMARK  9 active torsions:
REMARK  status: ('A' for Active; 'I' for Inactive)
REMARK    1  A    between atoms: N_1  and  C_2
REMARK    2  A    between atoms: C_2  and  C_3
REMARK    3  A    between atoms: C_3  and  N_4
REMARK    4  A    between atoms: C_3  and  C_12
REMARK    5  A    between atoms: N_4  and  C_5
REMARK    6  A    between atoms: C_5  and  C_6
REMARK    7  A    between atoms: C_15  and  C_16
REMARK    8  A    between atoms: C_16  and  N_17
REMARK    9  A    between atoms: C_18  and  C_20
REMARK                            x       y       z     vdW  Elec       q    Type
REMARK                         _______ _______ _______ _____ _____    ______ ____
ROOT
ATOM      1  C   UNL     1      45.154   4.808  11.826  0.00  0.00    +0.000 A 
ATOM      2  C   UNL     1      45.647   4.244  13.019  0.00  0.00    +0.000 A 
ATOM      3  C   UNL     1      46.763   4.782  13.668  0.00  0.00    +0.000 A 
ATOM      4  C   UNL     1      47.380   5.934  13.169  0.00  0.00    +0.000 A 
ATOM      5  C   UNL     1      46.884   6.511  11.997  0.00  0.00    +0.000 A 
ATOM      6  C   UNL     1      45.793   5.953  11.330  0.00  0.00    +0.000 A 
ENDROOT
BRANCH   1   7
ATOM      7  C   UNL     1      44.006   4.118  11.078  0.00  0.00    +0.000 C 
BRANCH   7   8
ATOM      8  N   UNL     1      44.369   3.776   9.687  0.00  0.00    +0.000 NA
ATOM      9  H   UNL     1      44.996   4.485   9.315  0.00  0.00    +0.000 HD
BRANCH   8  10
ATOM     10  C   UNL     1      44.970   2.455   9.522  0.00  0.00    +0.000 C 
BRANCH  10  11
ATOM     11  C   UNL     1      45.853   2.380   8.297  0.00  0.00    +0.000 A 
ATOM     12  C   UNL     1      46.522   1.193   7.965  0.00  0.00    +0.000 A 
ATOM     13  C   UNL     1      47.288   1.114   6.800  0.00  0.00    +0.000 A 
ATOM     14  C   UNL     1      47.391   2.222   5.960  0.00  0.00    +0.000 A 
ATOM     15  C   UNL     1      46.740   3.409   6.289  0.00  0.00    +0.000 A 
ATOM     16  C   UNL     1      45.976   3.490   7.452  0.00  0.00    +0.000 A 
ENDBRANCH  10  11
ENDBRANCH   8  10
ENDBRANCH   7   8
BRANCH   7  17
ATOM     17  C   UNL     1      42.692   4.987  11.108  0.00  0.00    +0.000 C 
BRANCH  17  18
ATOM     18  N   UNL     1      42.446   5.761  12.331  0.00  0.00    +0.000 NA
ATOM     19  H   UNL     1      42.024   5.145  13.031  0.00  0.00    +0.000 HD
ATOM     20  H   UNL     1      41.771   6.495  12.145  0.00  0.00    +0.000 HD
ENDBRANCH  17  18
ENDBRANCH   7  17
ENDBRANCH   1   7
BRANCH   4  21
ATOM     21  C   UNL     1      48.581   6.539  13.841  0.00  0.00    +0.000 C 
BRANCH  21  22
ATOM     22  N   UNL     1      48.278   6.973  15.181  0.00  0.00    +0.000 N 
ATOM     23  C   UNL     1      49.020   6.601  16.271  0.00  0.00    +0.000 C 
ATOM     24  O   UNL     1      49.995   5.859  16.189  0.00  0.00    +0.000 OA
ATOM     25  H   UNL     1      47.360   7.380  15.321  0.00  0.00    +0.000 HD
BRANCH  23  26
ATOM     26  C   UNL     1      48.624   7.210  17.549  0.00  0.00    +0.000 A 
ATOM     27  C   UNL     1      48.587   6.431  18.698  0.00  0.00    +0.000 A 
ATOM     28  S   UNL     1      48.161   7.304  20.100  0.00  0.00    +0.000 S 
ATOM     29  C   UNL     1      47.962   8.741  19.210  0.00  0.00    +0.000 A 
ATOM     30  N   UNL     1      47.566   9.891  19.822  0.00  0.00    +0.000 NA
ATOM     31  C   UNL     1      47.429  10.897  19.026  0.00  0.00    +0.000 A 
ATOM     32  N   UNL     1      47.664  10.863  17.677  0.00  0.00    +0.000 N 
ATOM     33  C   UNL     1      48.119   9.742  17.025  0.00  0.00    +0.000 A 
ATOM     34  O   UNL     1      48.419   9.777  15.840  0.00  0.00    +0.000 OA
ATOM     35  C   UNL     1      48.249   8.565  17.869  0.00  0.00    +0.000 A 
ATOM     36  H   UNL     1      47.567  11.694  17.113  0.00  0.00    +0.000 HD
ENDBRANCH  23  26
ENDBRANCH  21  22
ENDBRANCH   4  21
TORSDOF 9
ENDMDL
MODEL 4
REMARK VINA RESULT:    -7.826      2.378      2.910
REMARK INTER + INTRA:         -12.814
REMARK INTER:                 -11.837
REMARK INTRA:                  -0.977
REMARK UNBOUND:                -1.098
REMARK  Name = 
REMARK  9 active torsions:
REMARK  status: ('A' for Active; 'I' for Inactive)
REMARK    1  A    between atoms: N_1  and  C_2
REMARK    2  A    between atoms: C_2  and  C_3
REMARK    3  A    between atoms: C_3  and  N_4
REMARK    4  A    between atoms: C_3  and  C_12
REMARK    5  A    between atoms: N_4  and  C_5
REMARK    6  A    between atoms: C_5  and  C_6
REMARK    7  A    between atoms: C_15  and  C_16
REMARK    8  A    between atoms: C_16  and  N_17
REMARK    9  A    between atoms: C_18  and  C_20
REMARK                            x       y       z     vdW  Elec       q    Type
REMARK                         _______ _______ _______ _____ _____    ______ ____
ROOT
ATOM      1  C   UNL     1      45.864   4.506  12.394  0.00  0.00    +0.000 A 
ATOM      2  C   UNL     1      46.376   4.035  13.618  0.00  0.00    +0.000 A 
ATOM      3  C   UNL     1      47.153   4.855  14.442  0.00  0.00    +0.000 A 
ATOM      4  C   UNL     1      47.391   6.188  14.088  0.00  0.00    +0.000 A 
ATOM      5  C   UNL     1      46.870   6.668  12.884  0.00  0.00    +0.000 A 
ATOM      6  C   UNL     1      46.125   5.840  12.045  0.00  0.00    +0.000 A 
ENDROOT
BRANCH   1   7
ATOM      7  C   UNL     1      45.122   3.542  11.460  0.00  0.00    +0.000 C 
BRANCH   7   8
ATOM      8  N   UNL     1      45.151   3.991  10.052  0.00  0.00    +0.000 NA
ATOM      9  H   UNL     1      46.096   4.275   9.805  0.00  0.00    +0.000 HD
BRANCH   8  10
ATOM     10  C   UNL     1      44.670   3.004   9.089  0.00  0.00    +0.000 C 
BRANCH  10  11
ATOM     11  C   UNL     1      45.730   2.629   8.079  0.00  0.00    +0.000 A 
ATOM     12  C   UNL     1      46.329   1.361   8.102  0.00  0.00    +0.000 A 
ATOM     13  C   UNL     1      47.264   1.002   7.130  0.00  0.00    +0.000 A 
ATOM     14  C   UNL     1      47.609   1.909   6.129  0.00  0.00    +0.000 A 
ATOM     15  C   UNL     1      47.028   3.176   6.105  0.00  0.00    +0.000 A 
ATOM     16  C   UNL     1      46.095   3.536   7.077  0.00  0.00    +0.000 A 
ENDBRANCH  10  11
ENDBRANCH   8  10
ENDBRANCH   7   8
BRANCH   7  17
ATOM     17  C   UNL     1      43.637   3.308  11.934  0.00  0.00    +0.000 C 
BRANCH  17  18
ATOM     18  N   UNL     1      43.337   1.998  12.524  0.00  0.00    +0.000 NA
ATOM     19  H   UNL     1      44.084   1.754  13.179  0.00  0.00    +0.000 HD
ATOM     20  H   UNL     1      43.339   1.285  11.802  0.00  0.00    +0.000 HD
ENDBRANCH  17  18
ENDBRANCH   7  17
ENDBRANCH   1   7
BRANCH   4  21
ATOM     21  C   UNL     1      48.222   7.096  14.950  0.00  0.00    +0.000 C 
BRANCH  21  22
ATOM     22  N   UNL     1      49.327   6.395  15.551  0.00  0.00    +0.000 N 
ATOM     23  C   UNL     1      49.339   6.010  16.866  0.00  0.00    +0.000 C 
ATOM     24  O   UNL     1      48.412   6.246  17.636  0.00  0.00    +0.000 OA
ATOM     25  H   UNL     1      50.194   6.394  15.026  0.00  0.00    +0.000 HD
BRANCH  23  26
ATOM     26  C   UNL     1      50.507   5.223  17.289  0.00  0.00    +0.000 A 
ATOM     27  C   UNL     1      51.643   5.873  17.751  0.00  0.00    +0.000 A 
ATOM     28  S   UNL     1      52.881   4.812  18.250  0.00  0.00    +0.000 S 
ATOM     29  C   UNL     1      51.960   3.448  17.819  0.00  0.00    +0.000 A 
ATOM     30  N   UNL     1      52.463   2.191  17.969  0.00  0.00    +0.000 NA
ATOM     31  C   UNL     1      51.669   1.252  17.578  0.00  0.00    +0.000 A 
ATOM     32  N   UNL     1      50.415   1.451  17.063  0.00  0.00    +0.000 N 
ATOM     33  C   UNL     1      49.845   2.696  16.947  0.00  0.00    +0.000 A 
ATOM     34  O   UNL     1      48.685   2.828  16.582  0.00  0.00    +0.000 OA
ATOM     35  C   UNL     1      50.713   3.796  17.333  0.00  0.00    +0.000 A 
ATOM     36  H   UNL     1      49.832   0.671  16.803  0.00  0.00    +0.000 HD
ENDBRANCH  23  26
ENDBRANCH  21  22
ENDBRANCH   4  21
TORSDOF 9
ENDMDL
MODEL 5
REMARK VINA RESULT:    -7.419      4.832      5.777
REMARK INTER + INTRA:         -12.205
REMARK INTER:                 -11.284
REMARK INTRA:                  -0.920
REMARK UNBOUND:                -1.098
REMARK  Name = 
REMARK  9 active torsions:
REMARK  status: ('A' for Active; 'I' for Inactive)
REMARK    1  A    between atoms: N_1  and  C_2
REMARK    2  A    between atoms: C_2  and  C_3
REMARK    3  A    between atoms: C_3  and  N_4
REMARK    4  A    between atoms: C_3  and  C_12
REMARK    5  A    between atoms: N_4  and  C_5
REMARK    6  A    between atoms: C_5  and  C_6
REMARK    7  A    between atoms: C_15  and  C_16
REMARK    8  A    between atoms: C_16  and  N_17
REMARK    9  A    between atoms: C_18  and  C_20
REMARK                            x       y       z     vdW  Elec       q    Type
REMARK                         _______ _______ _______ _____ _____    ______ ____
ROOT
ATOM      1  C   UNL     1      44.836   4.978  11.614  0.00  0.00    +0.000 A 
ATOM      2  C   UNL     1      45.961   5.289  12.402  0.00  0.00    +0.000 A 
ATOM      3  C   UNL     1      46.272   6.612  12.731  0.00  0.00    +0.000 A 
ATOM      4  C   UNL     1      45.432   7.655  12.325  0.00  0.00    +0.000 A 
ATOM      5  C   UNL     1      44.303   7.352  11.560  0.00  0.00    +0.000 A 
ATOM      6  C   UNL     1      44.012   6.035  11.202  0.00  0.00    +0.000 A 
ENDROOT
BRANCH   1   7
ATOM      7  C   UNL     1      44.597   3.529  11.171  0.00  0.00    +0.000 C 
BRANCH   7   8
ATOM      8  N   UNL     1      44.136   3.439   9.770  0.00  0.00    +0.000 NA
ATOM      9  H   UNL     1      43.200   3.830   9.694  0.00  0.00    +0.000 HD
BRANCH   8  10
ATOM     10  C   UNL     1      45.016   4.082   8.798  0.00  0.00    +0.000 C 
BRANCH  10  11
ATOM     11  C   UNL     1      45.896   3.085   8.079  0.00  0.00    +0.000 A 
ATOM     12  C   UNL     1      45.901   1.732   8.451  0.00  0.00    +0.000 A 
ATOM     13  C   UNL     1      46.672   0.807   7.744  0.00  0.00    +0.000 A 
ATOM     14  C   UNL     1      47.445   1.229   6.662  0.00  0.00    +0.000 A 
ATOM     15  C   UNL     1      47.455   2.572   6.294  0.00  0.00    +0.000 A 
ATOM     16  C   UNL     1      46.686   3.497   7.000  0.00  0.00    +0.000 A 
ENDBRANCH  10  11
ENDBRANCH   8  10
ENDBRANCH   7   8
BRANCH   7  17
ATOM     17  C   UNL     1      43.589   2.790  12.132  0.00  0.00    +0.000 C 
BRANCH  17  18
ATOM     18  N   UNL     1      42.875   1.638  11.570  0.00  0.00    +0.000 NA
ATOM     19  H   UNL     1      43.015   1.626  10.556  0.00  0.00    +0.000 HD
ATOM     20  H   UNL     1      41.877   1.742  11.723  0.00  0.00    +0.000 HD
ENDBRANCH  17  18
ENDBRANCH   7  17
ENDBRANCH   1   7
BRANCH   4  21
ATOM     21  C   UNL     1      45.735   9.088  12.661  0.00  0.00    +0.000 C 
BRANCH  21  22
ATOM     22  N   UNL     1      46.984   9.516  12.084  0.00  0.00    +0.000 N 
ATOM     23  C   UNL     1      48.108   9.755  12.831  0.00  0.00    +0.000 C 
ATOM     24  O   UNL     1      48.131   9.635  14.052  0.00  0.00    +0.000 OA
ATOM     25  H   UNL     1      46.942   9.853  11.128  0.00  0.00    +0.000 HD
BRANCH  23  26
ATOM     26  C   UNL     1      49.318  10.095  12.069  0.00  0.00    +0.000 A 
ATOM     27  C   UNL     1      49.617  11.426  11.813  0.00  0.00    +0.000 A 
ATOM     28  S   UNL     1      51.082  11.646  10.967  0.00  0.00    +0.000 S 
ATOM     29  C   UNL     1      51.341   9.967  10.871  0.00  0.00    +0.000 A 
ATOM     30  N   UNL     1      52.432   9.465  10.229  0.00  0.00    +0.000 NA
ATOM     31  C   UNL     1      52.490   8.176  10.208  0.00  0.00    +0.000 A 
ATOM     32  N   UNL     1      51.565   7.343  10.780  0.00  0.00    +0.000 N 
ATOM     33  C   UNL     1      50.479   7.803  11.485  0.00  0.00    +0.000 A 
ATOM     34  O   UNL     1      49.733   7.032  12.072  0.00  0.00    +0.000 OA
ATOM     35  C   UNL     1      50.342   9.251  11.504  0.00  0.00    +0.000 A 
ATOM     36  H   UNL     1      51.684   6.341  10.754  0.00  0.00    +0.000 HD
ENDBRANCH  23  26
ENDBRANCH  21  22
ENDBRANCH   4  21
TORSDOF 9
ENDMDL
MODEL 6
REMARK VINA RESULT:    -6.989      2.194      2.869
REMARK INTER + INTRA:         -11.560
REMARK INTER:                 -10.429
REMARK INTRA:                  -1.131
REMARK UNBOUND:                -1.098
REMARK  Name = 
REMARK  9 active torsions:
REMARK  status: ('A' for Active; 'I' for Inactive)
REMARK    1  A    between atoms: N_1  and  C_2
REMARK    2  A    between atoms: C_2  and  C_3
REMARK    3  A    between atoms: C_3  and  N_4
REMARK    4  A    between atoms: C_3  and  C_12
REMARK    5  A    between atoms: N_4  and  C_5
REMARK    6  A    between atoms: C_5  and  C_6
REMARK    7  A    between atoms: C_15  and  C_16
REMARK    8  A    between atoms: C_16  and  N_17
REMARK    9  A    between atoms: C_18  and  C_20
REMARK                            x       y       z     vdW  Elec       q    Type
REMARK                         _______ _______ _______ _____ _____    ______ ____
ROOT
ATOM      1  C   UNL     1      45.416   6.285  11.953  0.00  0.00    +0.000 A 
ATOM      2  C   UNL     1      44.994   7.415  12.679  0.00  0.00    +0.000 A 
ATOM      3  C   UNL     1      45.884   8.444  13.001  0.00  0.00    +0.000 A 
ATOM      4  C   UNL     1      47.209   8.395  12.556  0.00  0.00    +0.000 A 
ATOM      5  C   UNL     1      47.631   7.286  11.817  0.00  0.00    +0.000 A 
ATOM      6  C   UNL     1      46.752   6.243  11.526  0.00  0.00    +0.000 A 
ENDROOT
BRANCH   1   7
ATOM      7  C   UNL     1      44.444   5.122  11.725  0.00  0.00    +0.000 C 
BRANCH   7   8
ATOM      8  N   UNL     1      44.177   4.886  10.290  0.00  0.00    +0.000 NA
ATOM      9  H   UNL     1      44.876   5.369   9.731  0.00  0.00    +0.000 HD
BRANCH   8  10
ATOM     10  C   UNL     1      44.128   3.478   9.904  0.00  0.00    +0.000 C 
BRANCH  10  11
ATOM     11  C   UNL     1      45.172   3.136   8.865  0.00  0.00    +0.000 A 
ATOM     12  C   UNL     1      45.775   4.140   8.094  0.00  0.00    +0.000 A 
ATOM     13  C   UNL     1      46.781   3.822   7.179  0.00  0.00    +0.000 A 
ATOM     14  C   UNL     1      47.187   2.497   7.027  0.00  0.00    +0.000 A 
ATOM     15  C   UNL     1      46.584   1.491   7.779  0.00  0.00    +0.000 A 
ATOM     16  C   UNL     1      45.579   1.808   8.692  0.00  0.00    +0.000 A 
ENDBRANCH  10  11
ENDBRANCH   8  10
ENDBRANCH   7   8
BRANCH   7  17
ATOM     17  C   UNL     1      43.093   5.335  12.509  0.00  0.00    +0.000 C 
BRANCH  17  18
ATOM     18  N   UNL     1      41.980   5.919  11.750  0.00  0.00    +0.000 NA
ATOM     19  H   UNL     1      42.253   6.853  11.434  0.00  0.00    +0.000 HD
ATOM     20  H   UNL     1      41.175   6.040  12.356  0.00  0.00    +0.000 HD
ENDBRANCH  17  18
ENDBRANCH   7  17
ENDBRANCH   1   7
BRANCH   4  21
ATOM     21  C   UNL     1      48.192   9.483  12.884  0.00  0.00    +0.000 C 
BRANCH  21  22
ATOM     22  N   UNL     1      48.099   9.885  14.264  0.00  0.00    +0.000 N 
ATOM     23  C   UNL     1      48.980   9.465  15.225  0.00  0.00    +0.000 C 
ATOM     24  O   UNL     1      49.911   8.702  14.985  0.00  0.00    +0.000 OA
ATOM     25  H   UNL     1      47.223  10.311  14.547  0.00  0.00    +0.000 HD
BRANCH  23  26
ATOM     26  C   UNL     1      48.791  10.046  16.562  0.00  0.00    +0.000 A 
ATOM     27  C   UNL     1      48.847  11.423  16.726  0.00  0.00    +0.000 A 
ATOM     28  S   UNL     1      48.553  11.932  18.327  0.00  0.00    +0.000 S 
ATOM     29  C   UNL     1      48.390  10.326  18.865  0.00  0.00    +0.000 A 
ATOM     30  N   UNL     1      48.153  10.050  20.178  0.00  0.00    +0.000 NA
ATOM     31  C   UNL     1      48.078   8.791  20.451  0.00  0.00    +0.000 A 
ATOM     32  N   UNL     1      48.207   7.783  19.533  0.00  0.00    +0.000 N 
ATOM     33  C   UNL     1      48.390   8.014  18.190  0.00  0.00    +0.000 A 
ATOM     34  O   UNL     1      48.395   7.093  17.386  0.00  0.00    +0.000 OA
ATOM     35  C   UNL     1      48.525   9.417  17.832  0.00  0.00    +0.000 A 
ATOM     36  H   UNL     1      48.109   6.817  19.807  0.00  0.00    +0.000 HD
ENDBRANCH  23  26
ENDBRANCH  21  22
ENDBRANCH   4  21
TORSDOF 9
ENDMDL
MODEL 7
REMARK VINA RESULT:    -6.791      4.615      5.478
REMARK INTER + INTRA:         -11.264
REMARK INTER:                 -10.365
REMARK INTRA:                  -0.899
REMARK UNBOUND:                -1.098
REMARK  Name = 
REMARK  9 active torsions:
REMARK  status: ('A' for Active; 'I' for Inactive)
REMARK    1  A    between atoms: N_1  and  C_2
REMARK    2  A    between atoms: C_2  and  C_3
REMARK    3  A    between atoms: C_3  and  N_4
REMARK    4  A    between atoms: C_3  and  C_12
REMARK    5  A    between atoms: N_4  and  C_5
REMARK    6  A    between atoms: C_5  and  C_6
REMARK    7  A    between atoms: C_15  and  C_16
REMARK    8  A    between atoms: C_16  and  N_17
REMARK    9  A    between atoms: C_18  and  C_20
REMARK                            x       y       z     vdW  Elec       q    Type
REMARK                         _______ _______ _______ _____ _____    ______ ____
ROOT
ATOM      1  C   UNL     1      45.228   5.871  11.815  0.00  0.00    +0.000 A 
ATOM      2  C   UNL     1      44.839   7.194  11.527  0.00  0.00    +0.000 A 
ATOM      3  C   UNL     1      45.703   8.269  11.753  0.00  0.00    +0.000 A 
ATOM      4  C   UNL     1      47.002   8.043  12.221  0.00  0.00    +0.000 A 
ATOM      5  C   UNL     1      47.403   6.732  12.490  0.00  0.00    +0.000 A 
ATOM      6  C   UNL     1      46.528   5.662  12.298  0.00  0.00    +0.000 A 
ENDROOT
BRANCH   1   7
ATOM      7  C   UNL     1      44.212   4.732  11.670  0.00  0.00    +0.000 C 
BRANCH   7   8
ATOM      8  N   UNL     1      43.936   4.402  10.256  0.00  0.00    +0.000 NA
ATOM      9  H   UNL     1      44.484   5.010   9.652  0.00  0.00    +0.000 HD
BRANCH   8  10
ATOM     10  C   UNL     1      44.179   3.007   9.898  0.00  0.00    +0.000 C 
BRANCH  10  11
ATOM     11  C   UNL     1      45.264   2.868   8.854  0.00  0.00    +0.000 A 
ATOM     12  C   UNL     1      45.825   1.616   8.563  0.00  0.00    +0.000 A 
ATOM     13  C   UNL     1      46.784   1.486   7.557  0.00  0.00    +0.000 A 
ATOM     14  C   UNL     1      47.191   2.609   6.836  0.00  0.00    +0.000 A 
ATOM     15  C   UNL     1      46.648   3.858   7.127  0.00  0.00    +0.000 A 
ATOM     16  C   UNL     1      45.691   3.989   8.133  0.00  0.00    +0.000 A 
ENDBRANCH  10  11
ENDBRANCH   8  10
ENDBRANCH   7   8
BRANCH   7  17
ATOM     17  C   UNL     1      42.871   5.054  12.433  0.00  0.00    +0.000 C 
BRANCH  17  18
ATOM     18  N   UNL     1      41.975   6.030  11.801  0.00  0.00    +0.000 NA
ATOM     19  H   UNL     1      41.606   5.624  10.936  0.00  0.00    +0.000 HD
ATOM     20  H   UNL     1      42.499   6.857  11.533  0.00  0.00    +0.000 HD
ENDBRANCH  17  18
ENDBRANCH   7  17
ENDBRANCH   1   7
BRANCH   4  21
ATOM     21  C   UNL     1      47.957   9.175  12.475  0.00  0.00    +0.000 C 
BRANCH  21  22
ATOM     22  N   UNL     1      49.318   8.795  12.196  0.00  0.00    +0.000 N 
ATOM     23  C   UNL     1      50.184   9.588  11.488  0.00  0.00    +0.000 C 
ATOM     24  O   UNL     1      49.860  10.679  11.028  0.00  0.00    +0.000 OA
ATOM     25  H   UNL     1      49.549   7.819  12.345  0.00  0.00    +0.000 HD
BRANCH  23  26
ATOM     26  C   UNL     1      51.561   9.085  11.376  0.00  0.00    +0.000 A 
ATOM     27  C   UNL     1      52.198   9.100  10.143  0.00  0.00    +0.000 A 
ATOM     28  S   UNL     1      53.806   8.534  10.200  0.00  0.00    +0.000 S 
ATOM     29  C   UNL     1      53.688   8.203  11.864  0.00  0.00    +0.000 A 
ATOM     30  N   UNL     1      54.736   7.660  12.544  0.00  0.00    +0.000 NA
ATOM     31  C   UNL     1      54.501   7.436  13.792  0.00  0.00    +0.000 A 
ATOM     32  N   UNL     1      53.320   7.716  14.428  0.00  0.00    +0.000 N 
ATOM     33  C   UNL     1      52.256   8.315  13.797  0.00  0.00    +0.000 A 
ATOM     34  O   UNL     1      51.257   8.646  14.420  0.00  0.00    +0.000 OA
ATOM     35  C   UNL     1      52.451   8.550  12.376  0.00  0.00    +0.000 A 
ATOM     36  H   UNL     1      53.209   7.543  15.416  0.00  0.00    +0.000 HD
ENDBRANCH  23  26
ENDBRANCH  21  22
ENDBRANCH   4  21
TORSDOF 9
ENDMDL
MODEL 8
REMARK VINA RESULT:    -6.506      3.532      4.369
REMARK INTER + INTRA:         -10.837
REMARK INTER:                 -10.238
REMARK INTRA:                  -0.599
REMARK UNBOUND:                -1.098
REMARK  Name = 
REMARK  9 active torsions:
REMARK  status: ('A' for Active; 'I' for Inactive)
REMARK    1  A    between atoms: N_1  and  C_2
REMARK    2  A    between atoms: C_2  and  C_3
REMARK    3  A    between atoms: C_3  and  N_4
REMARK    4  A    between atoms: C_3  and  C_12
REMARK    5  A    between atoms: N_4  and  C_5
REMARK    6  A    between atoms: C_5  and  C_6
REMARK    7  A    between atoms: C_15  and  C_16
REMARK    8  A    between atoms: C_16  and  N_17
REMARK    9  A    between atoms: C_18  and  C_20
REMARK                            x       y       z     vdW  Elec       q    Type
REMARK                         _______ _______ _______ _____ _____    ______ ____
ROOT
ATOM      1  C   UNL     1      45.230   5.001  11.398  0.00  0.00    +0.000 A 
ATOM      2  C   UNL     1      46.070   4.903  12.524  0.00  0.00    +0.000 A 
ATOM      3  C   UNL     1      46.543   6.046  13.176  0.00  0.00    +0.000 A 
ATOM      4  C   UNL     1      46.142   7.317  12.751  0.00  0.00    +0.000 A 
ATOM      5  C   UNL     1      45.293   7.422  11.647  0.00  0.00    +0.000 A 
ATOM      6  C   UNL     1      44.849   6.283  10.974  0.00  0.00    +0.000 A 
ENDROOT
BRANCH   1   7
ATOM      7  C   UNL     1      44.831   3.732  10.636  0.00  0.00    +0.000 C 
BRANCH   7   8
ATOM      8  N   UNL     1      44.495   4.008   9.223  0.00  0.00    +0.000 NA
ATOM      9  H   UNL     1      43.804   4.753   9.177  0.00  0.00    +0.000 HD
BRANCH   8  10
ATOM     10  C   UNL     1      45.638   4.347   8.380  0.00  0.00    +0.000 C 
BRANCH  10  11
ATOM     11  C   UNL     1      46.176   3.144   7.638  0.00  0.00    +0.000 A 
ATOM     12  C   UNL     1      46.683   3.270   6.337  0.00  0.00    +0.000 A 
ATOM     13  C   UNL     1      47.232   2.167   5.681  0.00  0.00    +0.000 A 
ATOM     14  C   UNL     1      47.275   0.929   6.321  0.00  0.00    +0.000 A 
ATOM     15  C   UNL     1      46.761   0.791   7.609  0.00  0.00    +0.000 A 
ATOM     16  C   UNL     1      46.212   1.893   8.264  0.00  0.00    +0.000 A 
ENDBRANCH  10  11
ENDBRANCH   8  10
ENDBRANCH   7   8
BRANCH   7  17
ATOM     17  C   UNL     1      43.644   2.978  11.348  0.00  0.00    +0.000 C 
BRANCH  17  18
ATOM     18  N   UNL     1      42.482   3.794  11.723  0.00  0.00    +0.000 NA
ATOM     19  H   UNL     1      41.851   3.224  12.292  0.00  0.00    +0.000 HD
ATOM     20  H   UNL     1      41.964   4.059  10.892  0.00  0.00    +0.000 HD
ENDBRANCH  17  18
ENDBRANCH   7  17
ENDBRANCH   1   7
BRANCH   4  21
ATOM     21  C   UNL     1      46.632   8.566  13.429  0.00  0.00    +0.000 C 
BRANCH  21  22
ATOM     22  N   UNL     1      48.051   8.744  13.253  0.00  0.00    +0.000 N 
ATOM     23  C   UNL     1      48.863   9.267  14.225  0.00  0.00    +0.000 C 
ATOM     24  O   UNL     1      48.440   9.635  15.317  0.00  0.00    +0.000 OA
ATOM     25  H   UNL     1      48.394   8.680  12.301  0.00  0.00    +0.000 HD
BRANCH  23  26
ATOM     26  C   UNL     1      50.299   9.292  13.910  0.00  0.00    +0.000 A 
ATOM     27  C   UNL     1      50.781  10.200  12.977  0.00  0.00    +0.000 A 
ATOM     28  S   UNL     1      52.473  10.132  12.771  0.00  0.00    +0.000 S 
ATOM     29  C   UNL     1      52.612   8.853  13.885  0.00  0.00    +0.000 A 
ATOM     30  N   UNL     1      53.823   8.292  14.155  0.00  0.00    +0.000 NA
ATOM     31  C   UNL     1      53.779   7.315  14.998  0.00  0.00    +0.000 A 
ATOM     32  N   UNL     1      52.640   6.856  15.604  0.00  0.00    +0.000 N 
ATOM     33  C   UNL     1      51.405   7.427  15.405  0.00  0.00    +0.000 A 
ATOM     34  O   UNL     1      50.429   7.059  16.043  0.00  0.00    +0.000 OA
ATOM     35  C   UNL     1      51.390   8.506  14.431  0.00  0.00    +0.000 A 
ATOM     36  H   UNL     1      52.677   6.105  16.277  0.00  0.00    +0.000 HD
ENDBRANCH  23  26
ENDBRANCH  21  22
ENDBRANCH   4  21
TORSDOF 9
ENDMDL
MODEL 9
REMARK VINA RESULT:    -6.493      4.428      6.937
REMARK INTER + INTRA:         -10.818
REMARK INTER:                  -9.695
REMARK INTRA:                  -1.123
REMARK UNBOUND:                -1.098
REMARK  Name = 
REMARK  9 active torsions:
REMARK  status: ('A' for Active; 'I' for Inactive)
REMARK    1  A    between atoms: N_1  and  C_2
REMARK    2  A    between atoms: C_2  and  C_3
REMARK    3  A    between atoms: C_3  and  N_4
REMARK    4  A    between atoms: C_3  and  C_12
REMARK    5  A    between atoms: N_4  and  C_5
REMARK    6  A    between atoms: C_5  and  C_6
REMARK    7  A    between atoms: C_15  and  C_16
REMARK    8  A    between atoms: C_16  and  N_17
REMARK    9  A    between atoms: C_18  and  C_20
REMARK                            x       y       z     vdW  Elec       q    Type
REMARK                         _______ _______ _______ _____ _____    ______ ____
ROOT
ATOM      1  C   UNL     1      44.391   9.055  11.629  0.00  0.00    +0.000 A 
ATOM      2  C   UNL     1      43.860   7.843  11.148  0.00  0.00    +0.000 A 
ATOM      3  C   UNL     1      44.407   6.612  11.524  0.00  0.00    +0.000 A 
ATOM      4  C   UNL     1      45.466   6.561  12.436  0.00  0.00    +0.000 A 
ATOM      5  C   UNL     1      45.985   7.758  12.933  0.00  0.00    +0.000 A 
ATOM      6  C   UNL     1      45.463   8.988  12.531  0.00  0.00    +0.000 A 
ENDROOT
BRANCH   1   7
ATOM      7  C   UNL     1      43.845  10.387  11.100  0.00  0.00    +0.000 C 
BRANCH   7   8
ATOM      8  N   UNL     1      42.906  11.024  12.047  0.00  0.00    +0.000 NA
ATOM      9  H   UNL     1      43.430  11.527  12.759  0.00  0.00    +0.000 HD
BRANCH   8  10
ATOM     10  C   UNL     1      41.934  11.922  11.429  0.00  0.00    +0.000 C 
BRANCH  10  11
ATOM     11  C   UNL     1      40.510  11.529  11.749  0.00  0.00    +0.000 A 
ATOM     12  C   UNL     1      39.857  10.530  11.012  0.00  0.00    +0.000 A 
ATOM     13  C   UNL     1      38.563  10.131  11.352  0.00  0.00    +0.000 A 
ATOM     14  C   UNL     1      37.912  10.729  12.430  0.00  0.00    +0.000 A 
ATOM     15  C   UNL     1      38.549  11.731  13.160  0.00  0.00    +0.000 A 
ATOM     16  C   UNL     1      39.840  12.131  12.821  0.00  0.00    +0.000 A 
ENDBRANCH  10  11
ENDBRANCH   8  10
ENDBRANCH   7   8
BRANCH   7  17
ATOM     17  C   UNL     1      43.170  10.214   9.686  0.00  0.00    +0.000 C 
BRANCH  17  18
ATOM     18  N   UNL     1      43.996  10.552   8.520  0.00  0.00    +0.000 NA
ATOM     19  H   UNL     1      43.558  11.331   8.023  0.00  0.00    +0.000 HD
ATOM     20  H   UNL     1      44.018   9.770   7.874  0.00  0.00    +0.000 HD
ENDBRANCH  17  18
ENDBRANCH   7  17
ENDBRANCH   1   7
BRANCH   4  21
ATOM     21  C   UNL     1      46.078   5.256  12.861  0.00  0.00    +0.000 C 
BRANCH  21  22
ATOM     22  N   UNL     1      46.596   5.324  14.204  0.00  0.00    +0.000 N 
ATOM     23  C   UNL     1      47.184   4.258  14.832  0.00  0.00    +0.000 C 
ATOM     24  O   UNL     1      47.303   3.157  14.301  0.00  0.00    +0.000 OA
ATOM     25  H   UNL     1      46.308   6.126  14.753  0.00  0.00    +0.000 HD
BRANCH  23  26
ATOM     26  C   UNL     1      47.739   4.530  16.165  0.00  0.00    +0.000 A 
ATOM     27  C   UNL     1      47.360   3.740  17.242  0.00  0.00    +0.000 A 
ATOM     28  S   UNL     1      48.137   4.157  18.701  0.00  0.00    +0.000 S 
ATOM     29  C   UNL     1      48.969   5.440  17.955  0.00  0.00    +0.000 A 
ATOM     30  N   UNL     1      49.805   6.241  18.672  0.00  0.00    +0.000 NA
ATOM     31  C   UNL     1      50.349   7.190  17.988  0.00  0.00    +0.000 A 
ATOM     32  N   UNL     1      50.146   7.404  16.650  0.00  0.00    +0.000 N 
ATOM     33  C   UNL     1      49.357   6.589  15.874  0.00  0.00    +0.000 A 
ATOM     34  O   UNL     1      49.283   6.748  14.663  0.00  0.00    +0.000 OA
ATOM     35  C   UNL     1      48.684   5.528  16.605  0.00  0.00    +0.000 A 
ATOM     36  H   UNL     1      50.625   8.148  16.166  0.00  0.00    +0.000 HD
ENDBRANCH  23  26
ENDBRANCH  21  22
ENDBRANCH   4  21
TORSDOF 9
ENDMDL
