MODEL 1
REMARK VINA RESULT:    -7.917      0.000      0.000
REMARK INTER + INTRA:         -11.541
REMARK INTER:                 -10.694
REMARK INTRA:                  -0.847
REMARK UNBOUND:                -0.847
REMARK  Name = 
REMARK  6 active torsions:
REMARK  status: ('A' for Active; 'I' for Inactive)
REMARK    1  A    between atoms: C_2  and  C_4
REMARK    2  A    between atoms: C_7  and  O_8
REMARK    3  A    between atoms: O_8  and  C_9
REMARK    4  A    between atoms: C_9  and  C_10
REMARK    5  A    between atoms: C_10  and  C_11
REMARK    6  A    between atoms: C_15  and  C_16
REMARK                            x       y       z     vdW  Elec       q    Type
REMARK                         _______ _______ _______ _____ _____    ______ ____
ROOT
ATOM      1  C   UNL     1      43.716   3.011  11.534  0.00  0.00    +0.000 C 
ENDROOT
BRANCH   1   2
ATOM      2  O   UNL     1      43.630   3.721  10.291  0.00  0.00    +0.000 OA
BRANCH   2   6
ATOM      3  C   UNL     1      46.462   2.423   7.588  0.00  0.00    +0.000 A 
ATOM      4  C   UNL     1      46.128   3.779   7.638  0.00  0.00    +0.000 A 
ATOM      5  C   UNL     1      45.161   4.211   8.550  0.00  0.00    +0.000 A 
ATOM      6  C   UNL     1      44.569   3.270   9.382  0.00  0.00    +0.000 A 
ATOM      7  N   UNL     1      44.867   1.953   9.340  0.00  0.00    +0.000 NA
ATOM      8  C   UNL     1      45.795   1.556   8.441  0.00  0.00    +0.000 A 
BRANCH   3  10
ATOM      9  N   UNL     1      48.613   2.587   6.471  0.00  0.00    +0.000 N 
ATOM     10  C   UNL     1      47.475   1.859   6.676  0.00  0.00    +0.000 C 
ATOM     11  O   UNL     1      47.328   0.757   6.162  0.00  0.00    +0.000 OA
ATOM     12  H   UNL     1      49.348   2.121   5.954  0.00  0.00    +0.000 HD
ATOM     13  H   UNL     1      48.883   3.352   7.074  0.00  0.00    +0.000 HD
ENDBRANCH   3  10
ENDBRANCH   2   6
ENDBRANCH   1   2
BRANCH   1  14
ATOM     14  C   UNL     1      43.611   3.992  12.701  0.00  0.00    +0.000 C 
BRANCH  14  15
ATOM     15  C   UNL     1      44.878   4.785  12.872  0.00  0.00    +0.000 A 
ATOM     16  C   UNL     1      46.065   4.173  13.255  0.00  0.00    +0.000 A 
ATOM     17  N   UNL     1      47.233   4.829  13.406  0.00  0.00    +0.000 NA
ATOM     18  C   UNL     1      47.226   6.160  13.149  0.00  0.00    +0.000 A 
ATOM     19  C   UNL     1      46.114   6.894  12.727  0.00  0.00    +0.000 A 
ATOM     20  C   UNL     1      44.923   6.160  12.596  0.00  0.00    +0.000 A 
BRANCH  19  21
ATOM     21  C   UNL     1      46.191   8.338  12.429  0.00  0.00    +0.000 A 
ATOM     22  C   UNL     1      47.406   8.985  12.152  0.00  0.00    +0.000 A 
ATOM     23  C   UNL     1      47.441  10.351  11.864  0.00  0.00    +0.000 A 
ATOM     24  C   UNL     1      46.249  11.051  11.849  0.00  0.00    +0.000 A 
ATOM     25  N   UNL     1      45.054  10.485  12.109  0.00  0.00    +0.000 NA
ATOM     26  C   UNL     1      45.058   9.157  12.394  0.00  0.00    +0.000 A 
ENDBRANCH  19  21
ENDBRANCH  14  15
ENDBRANCH   1  14
TORSDOF 6
ENDMDL
MODEL 2
REMARK VINA RESULT:    -7.843      2.089      3.831
REMARK INTER + INTRA:         -11.441
REMARK INTER:                 -10.621
REMARK INTRA:                  -0.820
REMARK UNBOUND:                -0.847
REMARK  Name = 
REMARK  6 active torsions:
REMARK  status: ('A' for Active; 'I' for Inactive)
REMARK    1  A    between atoms: C_2  and  C_4
REMARK    2  A    between atoms: C_7  and  O_8
REMARK    3  A    between atoms: O_8  and  C_9
REMARK    4  A    between atoms: C_9  and  C_10
REMARK    5  A    between atoms: C_10  and  C_11
REMARK    6  A    between atoms: C_15  and  C_16
REMARK                            x       y       z     vdW  Elec       q    Type
REMARK                         _______ _______ _______ _____ _____    ______ ____
ROOT
ATOM      1  C   UNL     1      43.687   4.608  10.339  0.00  0.00    +0.000 C 
ENDROOT
BRANCH   1   2
ATOM      2  O   UNL     1      43.743   3.204  10.053  0.00  0.00    +0.000 OA
BRANCH   2   6
ATOM      3  C   UNL     1      46.730   2.381   7.330  0.00  0.00    +0.000 A 
ATOM      4  C   UNL     1      46.255   3.689   7.457  0.00  0.00    +0.000 A 
ATOM      5  C   UNL     1      45.237   3.960   8.376  0.00  0.00    +0.000 A 
ATOM      6  C   UNL     1      44.736   2.911   9.136  0.00  0.00    +0.000 A 
ATOM      7  N   UNL     1      45.171   1.637   9.019  0.00  0.00    +0.000 NA
ATOM      8  C   UNL     1      46.147   1.397   8.114  0.00  0.00    +0.000 A 
BRANCH   3  10
ATOM      9  N   UNL     1      48.895   2.808   6.314  0.00  0.00    +0.000 N 
ATOM     10  C   UNL     1      47.809   1.984   6.405  0.00  0.00    +0.000 C 
ATOM     11  O   UNL     1      47.759   0.932   5.780  0.00  0.00    +0.000 OA
ATOM     12  H   UNL     1      49.677   2.449   5.780  0.00  0.00    +0.000 HD
ATOM     13  H   UNL     1      49.090   3.526   6.998  0.00  0.00    +0.000 HD
ENDBRANCH   3  10
ENDBRANCH   2   6
ENDBRANCH   1   2
BRANCH   1  14
ATOM     14  C   UNL     1      43.769   4.835  11.848  0.00  0.00    +0.000 C 
BRANCH  14  15
ATOM     15  C   UNL     1      45.144   5.284  12.264  0.00  0.00    +0.000 A 
ATOM     16  C   UNL     1      45.887   6.154  11.477  0.00  0.00    +0.000 A 
ATOM     17  N   UNL     1      47.115   6.603  11.807  0.00  0.00    +0.000 NA
ATOM     18  C   UNL     1      47.625   6.178  12.989  0.00  0.00    +0.000 A 
ATOM     19  C   UNL     1      46.974   5.331  13.890  0.00  0.00    +0.000 A 
ATOM     20  C   UNL     1      45.702   4.887  13.489  0.00  0.00    +0.000 A 
BRANCH  19  21
ATOM     21  C   UNL     1      47.579   4.940  15.180  0.00  0.00    +0.000 A 
ATOM     22  C   UNL     1      47.360   3.681  15.762  0.00  0.00    +0.000 A 
ATOM     23  C   UNL     1      47.957   3.341  16.978  0.00  0.00    +0.000 A 
ATOM     24  C   UNL     1      48.777   4.269  17.591  0.00  0.00    +0.000 A 
ATOM     25  N   UNL     1      49.022   5.492  17.081  0.00  0.00    +0.000 NA
ATOM     26  C   UNL     1      48.418   5.794  15.903  0.00  0.00    +0.000 A 
ENDBRANCH  19  21
ENDBRANCH  14  15
ENDBRANCH   1  14
TORSDOF 6
ENDMDL
MODEL 3
REMARK VINA RESULT:    -7.759      1.017      1.484
REMARK INTER + INTRA:         -11.328
REMARK INTER:                 -10.458
REMARK INTRA:                  -0.871
REMARK UNBOUND:                -0.847
REMARK  Name = 
REMARK  6 active torsions:
REMARK  status: ('A' for Active; 'I' for Inactive)
REMARK    1  A    between atoms: C_2  and  C_4
REMARK    2  A    between atoms: C_7  and  O_8
REMARK    3  A    between atoms: O_8  and  C_9
REMARK    4  A    between atoms: C_9  and  C_10
REMARK    5  A    between atoms: C_10  and  C_11
REMARK    6  A    between atoms: C_15  and  C_16
REMARK                            x       y       z     vdW  Elec       q    Type
REMARK                         _______ _______ _______ _____ _____    ______ ____
ROOT
ATOM      1  C   UNL     1      43.383   3.734  11.317  0.00  0.00    +0.000 C 
ENDROOT
BRANCH   1   2
ATOM      2  O   UNL     1      43.636   4.452  10.101  0.00  0.00    +0.000 OA
BRANCH   2   6
ATOM      3  C   UNL     1      46.362   2.457   7.734  0.00  0.00    +0.000 A 
ATOM      4  C   UNL     1      45.614   1.743   8.674  0.00  0.00    +0.000 A 
ATOM      5  C   UNL     1      44.698   2.427   9.478  0.00  0.00    +0.000 A 
ATOM      6  C   UNL     1      44.563   3.798   9.309  0.00  0.00    +0.000 A 
ATOM      7  N   UNL     1      45.286   4.510   8.417  0.00  0.00    +0.000 NA
ATOM      8  C   UNL     1      46.175   3.829   7.658  0.00  0.00    +0.000 A 
BRANCH   3  10
ATOM      9  N   UNL     1      48.463   2.563   6.520  0.00  0.00    +0.000 N 
ATOM     10  C   UNL     1      47.345   1.839   6.824  0.00  0.00    +0.000 C 
ATOM     11  O   UNL     1      47.194   0.701   6.397  0.00  0.00    +0.000 OA
ATOM     12  H   UNL     1      49.183   2.069   6.007  0.00  0.00    +0.000 HD
ATOM     13  H   UNL     1      48.746   3.374   7.054  0.00  0.00    +0.000 HD
ENDBRANCH   3  10
ENDBRANCH   2   6
ENDBRANCH   1   2
BRANCH   1  14
ATOM     14  C   UNL     1      43.378   4.702  12.500  0.00  0.00    +0.000 C 
BRANCH  14  15
ATOM     15  C   UNL     1      44.740   5.296  12.732  0.00  0.00    +0.000 A 
ATOM     16  C   UNL     1      45.790   4.525  13.216  0.00  0.00    +0.000 A 
ATOM     17  N   UNL     1      47.035   4.997  13.427  0.00  0.00    +0.000 NA
ATOM     18  C   UNL     1      47.253   6.302  13.128  0.00  0.00    +0.000 A 
ATOM     19  C   UNL     1      46.299   7.180  12.607  0.00  0.00    +0.000 A 
ATOM     20  C   UNL     1      45.018   6.635  12.417  0.00  0.00    +0.000 A 
BRANCH  19  21
ATOM     21  C   UNL     1      46.621   8.582  12.270  0.00  0.00    +0.000 A 
ATOM     22  C   UNL     1      45.629   9.538  12.000  0.00  0.00    +0.000 A 
ATOM     23  C   UNL     1      45.969  10.857  11.695  0.00  0.00    +0.000 A 
ATOM     24  C   UNL     1      47.307  11.203  11.674  0.00  0.00    +0.000 A 
ATOM     25  N   UNL     1      48.302  10.330  11.922  0.00  0.00    +0.000 NA
ATOM     26  C   UNL     1      47.937   9.053  12.206  0.00  0.00    +0.000 A 
ENDBRANCH  19  21
ENDBRANCH  14  15
ENDBRANCH   1  14
TORSDOF 6
ENDMDL
MODEL 4
REMARK VINA RESULT:    -7.545      2.981      7.499
REMARK INTER + INTRA:         -11.038
REMARK INTER:                 -10.128
REMARK INTRA:                  -0.910
REMARK UNBOUND:                -0.847
REMARK  Name = 
REMARK  6 active torsions:
REMARK  status: ('A' for Active; 'I' for Inactive)
REMARK    1  A    between atoms: C_2  and  C_4
REMARK    2  A    between atoms: C_7  and  O_8
REMARK    3  A    between atoms: O_8  and  C_9
REMARK    4  A    between atoms: C_9  and  C_10
REMARK    5  A    between atoms: C_10  and  C_11
REMARK    6  A    between atoms: C_15  and  C_16
REMARK                            x       y       z     vdW  Elec       q    Type
REMARK                         _______ _______ _______ _____ _____    ______ ____
ROOT
ATOM      1  C   UNL     1      45.269   6.737  12.487  0.00  0.00    +0.000 C 
ENDROOT
BRANCH   1   2
ATOM      2  O   UNL     1      46.678   6.470  12.512  0.00  0.00    +0.000 OA
BRANCH   2   6
ATOM      3  C   UNL     1      47.715   4.012  15.658  0.00  0.00    +0.000 A 
ATOM      4  C   UNL     1      46.969   3.494  14.597  0.00  0.00    +0.000 A 
ATOM      5  C   UNL     1      46.614   4.334  13.538  0.00  0.00    +0.000 A 
ATOM      6  C   UNL     1      47.023   5.660  13.580  0.00  0.00    +0.000 A 
ATOM      7  N   UNL     1      47.732   6.185  14.603  0.00  0.00    +0.000 NA
ATOM      8  C   UNL     1      48.053   5.356  15.622  0.00  0.00    +0.000 A 
BRANCH   3  10
ATOM      9  N   UNL     1      47.209   2.865  17.738  0.00  0.00    +0.000 N 
ATOM     10  C   UNL     1      48.157   3.216  16.819  0.00  0.00    +0.000 C 
ATOM     11  O   UNL     1      49.317   2.839  16.931  0.00  0.00    +0.000 OA
ATOM     12  H   UNL     1      47.506   2.208  18.450  0.00  0.00    +0.000 HD
ATOM     13  H   UNL     1      46.219   2.924  17.546  0.00  0.00    +0.000 HD
ENDBRANCH   3  10
ENDBRANCH   2   6
ENDBRANCH   1   2
BRANCH   1  14
ATOM     14  C   UNL     1      44.744   6.618  11.057  0.00  0.00    +0.000 C 
BRANCH  14  15
ATOM     15  C   UNL     1      44.585   5.180  10.645  0.00  0.00    +0.000 A 
ATOM     16  C   UNL     1      43.658   4.351  11.264  0.00  0.00    +0.000 A 
ATOM     17  N   UNL     1      43.460   3.061  10.925  0.00  0.00    +0.000 NA
ATOM     18  C   UNL     1      44.213   2.572   9.909  0.00  0.00    +0.000 A 
ATOM     19  C   UNL     1      45.157   3.302   9.181  0.00  0.00    +0.000 A 
ATOM     20  C   UNL     1      45.327   4.637   9.585  0.00  0.00    +0.000 A 
BRANCH  19  21
ATOM     21  C   UNL     1      45.914   2.711   8.060  0.00  0.00    +0.000 A 
ATOM     22  C   UNL     1      46.254   3.445   6.912  0.00  0.00    +0.000 A 
ATOM     23  C   UNL     1      46.982   2.856   5.875  0.00  0.00    +0.000 A 
ATOM     24  C   UNL     1      47.366   1.536   6.008  0.00  0.00    +0.000 A 
ATOM     25  N   UNL     1      47.067   0.782   7.083  0.00  0.00    +0.000 NA
ATOM     26  C   UNL     1      46.351   1.382   8.069  0.00  0.00    +0.000 A 
ENDBRANCH  19  21
ENDBRANCH  14  15
ENDBRANCH   1  14
TORSDOF 6
ENDMDL
MODEL 5
REMARK VINA RESULT:    -7.541      1.577      1.950
REMARK INTER + INTRA:         -11.034
REMARK INTER:                 -10.269
REMARK INTRA:                  -0.765
REMARK UNBOUND:                -0.847
REMARK  Name = 
REMARK  6 active torsions:
REMARK  status: ('A' for Active; 'I' for Inactive)
REMARK    1  A    between atoms: C_2  and  C_4
REMARK    2  A    between atoms: C_7  and  O_8
REMARK    3  A    between atoms: O_8  and  C_9
REMARK    4  A    between atoms: C_9  and  C_10
REMARK    5  A    between atoms: C_10  and  C_11
REMARK    6  A    between atoms: C_15  and  C_16
REMARK                            x       y       z     vdW  Elec       q    Type
REMARK                         _______ _______ _______ _____ _____    ______ ____
ROOT
ATOM      1  C   UNL     1      44.101   3.930  11.439  0.00  0.00    +0.000 C 
ENDROOT
BRANCH   1   2
ATOM      2  O   UNL     1      43.572   3.739  10.120  0.00  0.00    +0.000 OA
BRANCH   2   6
ATOM      3  C   UNL     1      46.484   2.383   7.531  0.00  0.00    +0.000 A 
ATOM      4  C   UNL     1      46.148   3.739   7.541  0.00  0.00    +0.000 A 
ATOM      5  C   UNL     1      45.155   4.191   8.415  0.00  0.00    +0.000 A 
ATOM      6  C   UNL     1      44.538   3.268   9.249  0.00  0.00    +0.000 A 
ATOM      7  N   UNL     1      44.837   1.950   9.245  0.00  0.00    +0.000 NA
ATOM      8  C   UNL     1      45.792   1.534   8.382  0.00  0.00    +0.000 A 
BRANCH   3  10
ATOM      9  N   UNL     1      48.656   2.534   6.455  0.00  0.00    +0.000 N 
ATOM     10  C   UNL     1      47.523   1.799   6.663  0.00  0.00    +0.000 C 
ATOM     11  O   UNL     1      47.402   0.677   6.186  0.00  0.00    +0.000 OA
ATOM     12  H   UNL     1      49.408   2.060   5.971  0.00  0.00    +0.000 HD
ATOM     13  H   UNL     1      48.903   3.325   7.035  0.00  0.00    +0.000 HD
ENDBRANCH   3  10
ENDBRANCH   2   6
ENDBRANCH   1   2
BRANCH   1  14
ATOM     14  C   UNL     1      44.353   5.417  11.687  0.00  0.00    +0.000 C 
BRANCH  14  15
ATOM     15  C   UNL     1      45.705   5.652  12.304  0.00  0.00    +0.000 A 
ATOM     16  C   UNL     1      46.198   4.818  13.300  0.00  0.00    +0.000 A 
ATOM     17  N   UNL     1      47.407   4.969  13.876  0.00  0.00    +0.000 NA
ATOM     18  C   UNL     1      48.174   5.994  13.430  0.00  0.00    +0.000 A 
ATOM     19  C   UNL     1      47.816   6.887  12.417  0.00  0.00    +0.000 A 
ATOM     20  C   UNL     1      46.541   6.687  11.860  0.00  0.00    +0.000 A 
BRANCH  19  21
ATOM     21  C   UNL     1      48.722   7.960  11.957  0.00  0.00    +0.000 A 
ATOM     22  C   UNL     1      50.081   7.733  11.688  0.00  0.00    +0.000 A 
ATOM     23  C   UNL     1      50.906   8.769  11.244  0.00  0.00    +0.000 A 
ATOM     24  C   UNL     1      50.351  10.022  11.067  0.00  0.00    +0.000 A 
ATOM     25  N   UNL     1      49.055  10.300  11.312  0.00  0.00    +0.000 NA
ATOM     26  C   UNL     1      48.284   9.273  11.751  0.00  0.00    +0.000 A 
ENDBRANCH  19  21
ENDBRANCH  14  15
ENDBRANCH   1  14
TORSDOF 6
ENDMDL
MODEL 6
REMARK VINA RESULT:    -6.961      3.152      7.704
REMARK INTER + INTRA:         -10.249
REMARK INTER:                  -9.555
REMARK INTRA:                  -0.695
REMARK UNBOUND:                -0.847
REMARK  Name = 
REMARK  6 active torsions:
REMARK  status: ('A' for Active; 'I' for Inactive)
REMARK    1  A    between atoms: C_2  and  C_4
REMARK    2  A    between atoms: C_7  and  O_8
REMARK    3  A    between atoms: O_8  and  C_9
REMARK    4  A    between atoms: C_9  and  C_10
REMARK    5  A    between atoms: C_10  and  C_11
REMARK    6  A    between atoms: C_15  and  C_16
REMARK                            x       y       z     vdW  Elec       q    Type
REMARK                         _______ _______ _______ _____ _____    ______ ____
ROOT
ATOM      1  C   UNL     1      44.426   3.553  12.977  0.00  0.00    +0.000 C 
ENDROOT
BRANCH   1   2
ATOM      2  O   UNL     1      45.807   3.166  12.970  0.00  0.00    +0.000 OA
BRANCH   2   6
ATOM      3  C   UNL     1      48.066   5.715  15.297  0.00  0.00    +0.000 A 
ATOM      4  C   UNL     1      47.736   6.085  13.990  0.00  0.00    +0.000 A 
ATOM      5  C   UNL     1      46.977   5.213  13.205  0.00  0.00    +0.000 A 
ATOM      6  C   UNL     1      46.574   4.005  13.758  0.00  0.00    +0.000 A 
ATOM      7  N   UNL     1      46.894   3.621  15.013  0.00  0.00    +0.000 NA
ATOM      8  C   UNL     1      47.639   4.476  15.751  0.00  0.00    +0.000 A 
BRANCH   3  10
ATOM      9  N   UNL     1      48.163   7.236  17.188  0.00  0.00    +0.000 N 
ATOM     10  C   UNL     1      48.849   6.560  16.219  0.00  0.00    +0.000 C 
ATOM     11  O   UNL     1      50.070   6.616  16.153  0.00  0.00    +0.000 OA
ATOM     12  H   UNL     1      48.730   7.698  17.889  0.00  0.00    +0.000 HD
ATOM     13  H   UNL     1      47.210   7.008  17.438  0.00  0.00    +0.000 HD
ENDBRANCH   3  10
ENDBRANCH   2   6
ENDBRANCH   1   2
BRANCH   1  14
ATOM     14  C   UNL     1      43.775   3.179  11.646  0.00  0.00    +0.000 C 
BRANCH  14  15
ATOM     15  C   UNL     1      44.558   3.718  10.479  0.00  0.00    +0.000 A 
ATOM     16  C   UNL     1      44.865   5.069  10.379  0.00  0.00    +0.000 A 
ATOM     17  N   UNL     1      45.577   5.605   9.368  0.00  0.00    +0.000 NA
ATOM     18  C   UNL     1      46.020   4.751   8.411  0.00  0.00    +0.000 A 
ATOM     19  C   UNL     1      45.810   3.369   8.404  0.00  0.00    +0.000 A 
ATOM     20  C   UNL     1      45.054   2.869   9.478  0.00  0.00    +0.000 A 
BRANCH  19  21
ATOM     21  C   UNL     1      46.356   2.496   7.345  0.00  0.00    +0.000 A 
ATOM     22  C   UNL     1      46.615   2.961   6.046  0.00  0.00    +0.000 A 
ATOM     23  C   UNL     1      47.143   2.110   5.073  0.00  0.00    +0.000 A 
ATOM     24  C   UNL     1      47.412   0.800   5.420  0.00  0.00    +0.000 A 
ATOM     25  N   UNL     1      47.182   0.298   6.649  0.00  0.00    +0.000 NA
ATOM     26  C   UNL     1      46.661   1.149   7.569  0.00  0.00    +0.000 A 
ENDBRANCH  19  21
ENDBRANCH  14  15
ENDBRANCH   1  14
TORSDOF 6
ENDMDL
MODEL 7
REMARK VINA RESULT:    -6.861      2.223      3.188
REMARK INTER + INTRA:         -10.115
REMARK INTER:                  -9.496
REMARK INTRA:                  -0.619
REMARK UNBOUND:                -0.847
REMARK  Name = 
REMARK  6 active torsions:
REMARK  status: ('A' for Active; 'I' for Inactive)
REMARK    1  A    between atoms: C_2  and  C_4
REMARK    2  A    between atoms: C_7  and  O_8
REMARK    3  A    between atoms: O_8  and  C_9
REMARK    4  A    between atoms: C_9  and  C_10
REMARK    5  A    between atoms: C_10  and  C_11
REMARK    6  A    between atoms: C_15  and  C_16
REMARK                            x       y       z     vdW  Elec       q    Type
REMARK                         _______ _______ _______ _____ _____    ______ ____
ROOT
ATOM      1  C   UNL     1      45.353   3.759   8.058  0.00  0.00    +0.000 C 
ENDROOT
BRANCH   1   2
ATOM      2  O   UNL     1      46.702   3.311   7.868  0.00  0.00    +0.000 OA
BRANCH   2   6
ATOM      3  C   UNL     1      47.024   0.709   4.684  0.00  0.00    +0.000 A 
ATOM      4  C   UNL     1      46.797   2.067   4.444  0.00  0.00    +0.000 A 
ATOM      5  C   UNL     1      46.681   2.942   5.528  0.00  0.00    +0.000 A 
ATOM      6  C   UNL     1      46.800   2.425   6.811  0.00  0.00    +0.000 A 
ATOM      7  N   UNL     1      47.005   1.114   7.066  0.00  0.00    +0.000 NA
ATOM      8  C   UNL     1      47.102   0.285   6.002  0.00  0.00    +0.000 A 
BRANCH   3  10
ATOM      9  N   UNL     1      46.635  -1.535   3.840  0.00  0.00    +0.000 N 
ATOM     10  C   UNL     1      47.177  -0.300   3.619  0.00  0.00    +0.000 C 
ATOM     11  O   UNL     1      47.723  -0.030   2.556  0.00  0.00    +0.000 OA
ATOM     12  H   UNL     1      46.632  -2.164   3.046  0.00  0.00    +0.000 HD
ATOM     13  H   UNL     1      45.959  -1.707   4.571  0.00  0.00    +0.000 HD
ENDBRANCH   3  10
ENDBRANCH   2   6
ENDBRANCH   1   2
BRANCH   1  14
ATOM     14  C   UNL     1      44.661   2.892   9.109  0.00  0.00    +0.000 C 
BRANCH  14  15
ATOM     15  C   UNL     1      44.611   3.581  10.446  0.00  0.00    +0.000 A 
ATOM     16  C   UNL     1      43.951   3.009  11.526  0.00  0.00    +0.000 A 
ATOM     17  N   UNL     1      43.887   3.570  12.750  0.00  0.00    +0.000 NA
ATOM     18  C   UNL     1      44.526   4.755  12.914  0.00  0.00    +0.000 A 
ATOM     19  C   UNL     1      45.251   5.424  11.924  0.00  0.00    +0.000 A 
ATOM     20  C   UNL     1      45.274   4.797  10.667  0.00  0.00    +0.000 A 
BRANCH  19  21
ATOM     21  C   UNL     1      45.953   6.697  12.188  0.00  0.00    +0.000 A 
ATOM     22  C   UNL     1      47.286   6.915  11.801  0.00  0.00    +0.000 A 
ATOM     23  C   UNL     1      47.914   8.135  12.057  0.00  0.00    +0.000 A 
ATOM     24  C   UNL     1      47.192   9.128  12.692  0.00  0.00    +0.000 A 
ATOM     25  N   UNL     1      45.914   8.975  13.087  0.00  0.00    +0.000 NA
ATOM     26  C   UNL     1      45.335   7.774  12.832  0.00  0.00    +0.000 A 
ENDBRANCH  19  21
ENDBRANCH  14  15
ENDBRANCH   1  14
TORSDOF 6
ENDMDL
MODEL 8
REMARK VINA RESULT:    -6.844      3.516      7.676
REMARK INTER + INTRA:         -10.091
REMARK INTER:                  -9.238
REMARK INTRA:                  -0.853
REMARK UNBOUND:                -0.847
REMARK  Name = 
REMARK  6 active torsions:
REMARK  status: ('A' for Active; 'I' for Inactive)
REMARK    1  A    between atoms: C_2  and  C_4
REMARK    2  A    between atoms: C_7  and  O_8
REMARK    3  A    between atoms: O_8  and  C_9
REMARK    4  A    between atoms: C_9  and  C_10
REMARK    5  A    between atoms: C_10  and  C_11
REMARK    6  A    between atoms: C_15  and  C_16
REMARK                            x       y       z     vdW  Elec       q    Type
REMARK                         _______ _______ _______ _____ _____    ______ ____
ROOT
ATOM      1  C   UNL     1      49.515   7.292  13.254  0.00  0.00    +0.000 C 
ENDROOT
BRANCH   1   2
ATOM      2  O   UNL     1      49.189   7.732  14.579  0.00  0.00    +0.000 OA
BRANCH   2   6
ATOM      3  C   UNL     1      48.072   4.614  17.038  0.00  0.00    +0.000 A 
ATOM      4  C   UNL     1      48.917   5.611  17.531  0.00  0.00    +0.000 A 
ATOM      5  C   UNL     1      49.298   6.661  16.691  0.00  0.00    +0.000 A 
ATOM      6  C   UNL     1      48.816   6.674  15.389  0.00  0.00    +0.000 A 
ATOM      7  N   UNL     1      48.010   5.713  14.887  0.00  0.00    +0.000 NA
ATOM      8  C   UNL     1      47.665   4.700  15.715  0.00  0.00    +0.000 A 
BRANCH   3  10
ATOM      9  N   UNL     1      48.296   3.157  18.968  0.00  0.00    +0.000 N 
ATOM     10  C   UNL     1      47.595   3.470  17.838  0.00  0.00    +0.000 C 
ATOM     11  O   UNL     1      46.581   2.854  17.531  0.00  0.00    +0.000 OA
ATOM     12  H   UNL     1      47.874   2.460  19.570  0.00  0.00    +0.000 HD
ATOM     13  H   UNL     1      48.959   3.793  19.389  0.00  0.00    +0.000 HD
ENDBRANCH   3  10
ENDBRANCH   2   6
ENDBRANCH   1   2
BRANCH   1  14
ATOM     14  C   UNL     1      48.769   8.141  12.226  0.00  0.00    +0.000 C 
BRANCH  14  15
ATOM     15  C   UNL     1      47.336   7.703  12.084  0.00  0.00    +0.000 A 
ATOM     16  C   UNL     1      46.299   8.439  12.642  0.00  0.00    +0.000 A 
ATOM     17  N   UNL     1      44.997   8.105  12.532  0.00  0.00    +0.000 NA
ATOM     18  C   UNL     1      44.709   6.988  11.819  0.00  0.00    +0.000 A 
ATOM     19  C   UNL     1      45.649   6.175  11.181  0.00  0.00    +0.000 A 
ATOM     20  C   UNL     1      46.990   6.566  11.338  0.00  0.00    +0.000 A 
BRANCH  19  21
ATOM     21  C   UNL     1      45.257   4.992  10.388  0.00  0.00    +0.000 A 
ATOM     22  C   UNL     1      45.564   4.865   9.024  0.00  0.00    +0.000 A 
ATOM     23  C   UNL     1      45.188   3.726   8.308  0.00  0.00    +0.000 A 
ATOM     24  C   UNL     1      44.512   2.723   8.976  0.00  0.00    +0.000 A 
ATOM     25  N   UNL     1      44.188   2.790  10.282  0.00  0.00    +0.000 NA
ATOM     26  C   UNL     1      44.561   3.914  10.946  0.00  0.00    +0.000 A 
ENDBRANCH  19  21
ENDBRANCH  14  15
ENDBRANCH   1  14
TORSDOF 6
ENDMDL
MODEL 9
REMARK VINA RESULT:    -6.661      3.175      8.144
REMARK INTER + INTRA:          -9.845
REMARK INTER:                  -9.185
REMARK INTRA:                  -0.660
REMARK UNBOUND:                -0.847
REMARK  Name = 
REMARK  6 active torsions:
REMARK  status: ('A' for Active; 'I' for Inactive)
REMARK    1  A    between atoms: C_2  and  C_4
REMARK    2  A    between atoms: C_7  and  O_8
REMARK    3  A    between atoms: O_8  and  C_9
REMARK    4  A    between atoms: C_9  and  C_10
REMARK    5  A    between atoms: C_10  and  C_11
REMARK    6  A    between atoms: C_15  and  C_16
REMARK                            x       y       z     vdW  Elec       q    Type
REMARK                         _______ _______ _______ _____ _____    ______ ____
ROOT
ATOM      1  C   UNL     1      46.334   6.642  11.441  0.00  0.00    +0.000 C 
ENDROOT
BRANCH   1   2
ATOM      2  O   UNL     1      46.708   5.796  12.537  0.00  0.00    +0.000 OA
BRANCH   2   6
ATOM      3  C   UNL     1      48.677   7.939  15.460  0.00  0.00    +0.000 A 
ATOM      4  C   UNL     1      47.985   8.620  14.455  0.00  0.00    +0.000 A 
ATOM      5  C   UNL     1      47.327   7.888  13.463  0.00  0.00    +0.000 A 
ATOM      6  C   UNL     1      47.383   6.502  13.517  0.00  0.00    +0.000 A 
ATOM      7  N   UNL     1      48.059   5.824  14.471  0.00  0.00    +0.000 NA
ATOM      8  C   UNL     1      48.698   6.554  15.413  0.00  0.00    +0.000 A 
BRANCH   3  10
ATOM      9  N   UNL     1      50.739   8.387  16.663  0.00  0.00    +0.000 N 
ATOM     10  C   UNL     1      49.395   8.608  16.562  0.00  0.00    +0.000 C 
ATOM     11  O   UNL     1      48.820   9.372  17.328  0.00  0.00    +0.000 OA
ATOM     12  H   UNL     1      51.231   8.959  17.338  0.00  0.00    +0.000 HD
ATOM     13  H   UNL     1      51.282   7.990  15.908  0.00  0.00    +0.000 HD
ENDBRANCH   3  10
ENDBRANCH   2   6
ENDBRANCH   1   2
BRANCH   1  14
ATOM     14  C   UNL     1      44.892   6.349  11.029  0.00  0.00    +0.000 C 
BRANCH  14  15
ATOM     15  C   UNL     1      44.735   4.936  10.537  0.00  0.00    +0.000 A 
ATOM     16  C   UNL     1      43.812   4.071  11.111  0.00  0.00    +0.000 A 
ATOM     17  N   UNL     1      43.615   2.802  10.701  0.00  0.00    +0.000 NA
ATOM     18  C   UNL     1      44.365   2.373   9.656  0.00  0.00    +0.000 A 
ATOM     19  C   UNL     1      45.305   3.145   8.967  0.00  0.00    +0.000 A 
ATOM     20  C   UNL     1      45.474   4.456   9.445  0.00  0.00    +0.000 A 
BRANCH  19  21
ATOM     21  C   UNL     1      46.059   2.619   7.811  0.00  0.00    +0.000 A 
ATOM     22  C   UNL     1      46.283   3.379   6.651  0.00  0.00    +0.000 A 
ATOM     23  C   UNL     1      47.011   2.854   5.581  0.00  0.00    +0.000 A 
ATOM     24  C   UNL     1      47.512   1.571   5.693  0.00  0.00    +0.000 A 
ATOM     25  N   UNL     1      47.327   0.795   6.778  0.00  0.00    +0.000 NA
ATOM     26  C   UNL     1      46.608   1.333   7.797  0.00  0.00    +0.000 A 
ENDBRANCH  19  21
ENDBRANCH  14  15
ENDBRANCH   1  14
TORSDOF 6
ENDMDL
