MODEL 1
REMARK VINA RESULT:    -6.703      0.000      0.000
REMARK INTER + INTRA:         -10.159
REMARK INTER:                  -9.055
REMARK INTRA:                  -1.105
REMARK UNBOUND:                -1.105
REMARK  Name = 
REMARK  7 active torsions:
REMARK  status: ('A' for Active; 'I' for Inactive)
REMARK    1  A    between atoms: C_1  and  O_2
REMARK    2  A    between atoms: O_2  and  C_3
REMARK    3  A    between atoms: C_5  and  C_6
REMARK    4  A    between atoms: C_10  and  N_11
REMARK    5  A    between atoms: N_11  and  C_12
REMARK    6  A    between atoms: C_12  and  C_13
REMARK    7  A    between atoms: C_17  and  C_18
REMARK                            x       y       z     vdW  Elec       q    Type
REMARK                         _______ _______ _______ _____ _____    ______ ____
ROOT
ATOM      1  C   UNL     1      46.365   7.307  12.308  0.00  0.00    +0.000 C 
ATOM      2  C   UNL     1      46.459   8.738  11.805  0.00  0.00    +0.000 C 
ATOM      3  C   UNL     1      45.790   8.459  13.111  0.00  0.00    +0.000 C 
ENDROOT
BRANCH   1   4
ATOM      4  C   UNL     1      45.364   6.335  11.690  0.00  0.00    +0.000 A 
ATOM      5  C   UNL     1      43.980   6.450  11.858  0.00  0.00    +0.000 A 
ATOM      6  C   UNL     1      43.104   5.616  11.164  0.00  0.00    +0.000 A 
ATOM      7  C   UNL     1      43.597   4.670  10.258  0.00  0.00    +0.000 A 
ATOM      8  C   UNL     1      44.975   4.503  10.059  0.00  0.00    +0.000 A 
ATOM      9  C   UNL     1      45.824   5.316  10.832  0.00  0.00    +0.000 A 
BRANCH   8  10
ATOM     10  C   UNL     1      45.525   3.589   9.028  0.00  0.00    +0.000 A 
ATOM     11  C   UNL     1      46.179   4.039   7.873  0.00  0.00    +0.000 A 
ATOM     12  C   UNL     1      46.738   3.133   6.969  0.00  0.00    +0.000 A 
ATOM     13  C   UNL     1      46.618   1.780   7.230  0.00  0.00    +0.000 A 
ATOM     14  N   UNL     1      45.990   1.286   8.312  0.00  0.00    +0.000 NA
ATOM     15  C   UNL     1      45.471   2.195   9.175  0.00  0.00    +0.000 A 
ENDBRANCH   8  10
ENDBRANCH   1   4
BRANCH   1  16
ATOM     16  N   UNL     1      47.668   6.683  12.653  0.00  0.00    +0.000 N 
ATOM     17  H   UNL     1      48.015   6.017  11.965  0.00  0.00    +0.000 HD
BRANCH  16  23
ATOM     18  C   UNL     1      48.714   6.909  14.839  0.00  0.00    +0.000 A 
ATOM     19  C   UNL     1      48.858   6.461  16.157  0.00  0.00    +0.000 A 
ATOM     20  C   UNL     1      48.227   5.284  16.554  0.00  0.00    +0.000 A 
ATOM     21  C   UNL     1      47.486   4.593  15.614  0.00  0.00    +0.000 A 
ATOM     22  N   UNL     1      47.316   5.002  14.335  0.00  0.00    +0.000 NA
ATOM     23  C   UNL     1      47.917   6.153  13.947  0.00  0.00    +0.000 A 
BRANCH  18  25
ATOM     24  C   UNL     1      48.909   9.284  14.936  0.00  0.00    +0.000 C 
ATOM     25  O   UNL     1      49.300   8.049  14.341  0.00  0.00    +0.000 OA
ENDBRANCH  18  25
BRANCH  20  26
ATOM     26  C   UNL     1      48.324   4.813  17.902  0.00  0.00    +0.000 C 
ATOM     27  N   UNL     1      48.395   4.414  18.985  0.00  0.00    +0.000 NA
ENDBRANCH  20  26
ENDBRANCH  16  23
ENDBRANCH   1  16
TORSDOF 6
ENDMDL
MODEL 2
REMARK VINA RESULT:    -6.410      3.121      5.721
REMARK INTER + INTRA:          -9.763
REMARK INTER:                  -8.743
REMARK INTRA:                  -1.020
REMARK UNBOUND:                -1.105
REMARK  Name = 
REMARK  7 active torsions:
REMARK  status: ('A' for Active; 'I' for Inactive)
REMARK    1  A    between atoms: C_1  and  O_2
REMARK    2  A    between atoms: O_2  and  C_3
REMARK    3  A    between atoms: C_5  and  C_6
REMARK    4  A    between atoms: C_10  and  N_11
REMARK    5  A    between atoms: N_11  and  C_12
REMARK    6  A    between atoms: C_12  and  C_13
REMARK    7  A    between atoms: C_17  and  C_18
REMARK                            x       y       z     vdW  Elec       q    Type
REMARK                         _______ _______ _______ _____ _____    ______ ____
ROOT
ATOM      1  C   UNL     1      45.687   7.618  12.289  0.00  0.00    +0.000 C 
ATOM      2  C   UNL     1      46.861   7.445  13.238  0.00  0.00    +0.000 C 
ATOM      3  C   UNL     1      47.116   7.727  11.793  0.00  0.00    +0.000 C 
ENDROOT
BRANCH   1   4
ATOM      4  C   UNL     1      44.888   6.405  11.819  0.00  0.00    +0.000 A 
ATOM      5  C   UNL     1      43.556   6.176  12.183  0.00  0.00    +0.000 A 
ATOM      6  C   UNL     1      42.833   5.125  11.619  0.00  0.00    +0.000 A 
ATOM      7  C   UNL     1      43.419   4.302  10.651  0.00  0.00    +0.000 A 
ATOM      8  C   UNL     1      44.754   4.478  10.258  0.00  0.00    +0.000 A 
ATOM      9  C   UNL     1      45.468   5.504  10.904  0.00  0.00    +0.000 A 
BRANCH   8  10
ATOM     10  C   UNL     1      45.370   3.695   9.159  0.00  0.00    +0.000 A 
ATOM     11  C   UNL     1      45.989   4.286   8.049  0.00  0.00    +0.000 A 
ATOM     12  C   UNL     1      46.614   3.501   7.077  0.00  0.00    +0.000 A 
ATOM     13  C   UNL     1      46.592   2.126   7.224  0.00  0.00    +0.000 A 
ATOM     14  N   UNL     1      46.002   1.499   8.258  0.00  0.00    +0.000 NA
ATOM     15  C   UNL     1      45.417   2.294   9.189  0.00  0.00    +0.000 A 
ENDBRANCH   8  10
ENDBRANCH   1   4
BRANCH   1  16
ATOM     16  N   UNL     1      44.851   8.819  12.547  0.00  0.00    +0.000 N 
ATOM     17  H   UNL     1      44.017   8.644  13.103  0.00  0.00    +0.000 HD
BRANCH  16  23
ATOM     18  C   UNL     1      45.351  10.834  11.278  0.00  0.00    +0.000 A 
ATOM     19  C   UNL     1      45.097  11.656  10.174  0.00  0.00    +0.000 A 
ATOM     20  C   UNL     1      44.021  11.367   9.337  0.00  0.00    +0.000 A 
ATOM     21  C   UNL     1      43.232  10.275   9.644  0.00  0.00    +0.000 A 
ATOM     22  N   UNL     1      43.455   9.452  10.695  0.00  0.00    +0.000 NA
ATOM     23  C   UNL     1      44.508   9.721  11.506  0.00  0.00    +0.000 A 
BRANCH  18  25
ATOM     24  C   UNL     1      47.657  11.334  11.622  0.00  0.00    +0.000 C 
ATOM     25  O   UNL     1      46.377  11.034  12.171  0.00  0.00    +0.000 OA
ENDBRANCH  18  25
BRANCH  20  26
ATOM     26  C   UNL     1      43.751  12.165   8.179  0.00  0.00    +0.000 C 
ATOM     27  N   UNL     1      43.519  12.795   7.238  0.00  0.00    +0.000 NA
ENDBRANCH  20  26
ENDBRANCH  16  23
ENDBRANCH   1  16
TORSDOF 6
ENDMDL
MODEL 3
REMARK VINA RESULT:    -6.162      1.598      2.236
REMARK INTER + INTRA:          -9.428
REMARK INTER:                  -8.461
REMARK INTRA:                  -0.967
REMARK UNBOUND:                -1.105
REMARK  Name = 
REMARK  7 active torsions:
REMARK  status: ('A' for Active; 'I' for Inactive)
REMARK    1  A    between atoms: C_1  and  O_2
REMARK    2  A    between atoms: O_2  and  C_3
REMARK    3  A    between atoms: C_5  and  C_6
REMARK    4  A    between atoms: C_10  and  N_11
REMARK    5  A    between atoms: N_11  and  C_12
REMARK    6  A    between atoms: C_12  and  C_13
REMARK    7  A    between atoms: C_17  and  C_18
REMARK                            x       y       z     vdW  Elec       q    Type
REMARK                         _______ _______ _______ _____ _____    ______ ____
ROOT
ATOM      1  C   UNL     1      45.695   7.739  11.924  0.00  0.00    +0.000 C 
ATOM      2  C   UNL     1      45.303   9.074  11.315  0.00  0.00    +0.000 C 
ATOM      3  C   UNL     1      44.925   8.770  12.728  0.00  0.00    +0.000 C 
ENDROOT
BRANCH   1   4
ATOM      4  C   UNL     1      44.944   6.466  11.543  0.00  0.00    +0.000 A 
ATOM      5  C   UNL     1      43.634   6.197  11.955  0.00  0.00    +0.000 A 
ATOM      6  C   UNL     1      42.948   5.083  11.470  0.00  0.00    +0.000 A 
ATOM      7  C   UNL     1      43.549   4.235  10.534  0.00  0.00    +0.000 A 
ATOM      8  C   UNL     1      44.864   4.450  10.095  0.00  0.00    +0.000 A 
ATOM      9  C   UNL     1      45.544   5.542  10.663  0.00  0.00    +0.000 A 
BRANCH   8  10
ATOM     10  C   UNL     1      45.488   3.636   9.024  0.00  0.00    +0.000 A 
ATOM     11  C   UNL     1      46.147   4.194   7.920  0.00  0.00    +0.000 A 
ATOM     12  C   UNL     1      46.778   3.380   6.977  0.00  0.00    +0.000 A 
ATOM     13  C   UNL     1      46.722   2.008   7.146  0.00  0.00    +0.000 A 
ATOM     14  N   UNL     1      46.093   1.412   8.174  0.00  0.00    +0.000 NA
ATOM     15  C   UNL     1      45.503   2.235   9.078  0.00  0.00    +0.000 A 
ENDBRANCH   8  10
ENDBRANCH   1   4
BRANCH   1  16
ATOM     16  N   UNL     1      47.156   7.540  12.097  0.00  0.00    +0.000 N 
ATOM     17  H   UNL     1      47.526   6.701  11.654  0.00  0.00    +0.000 HD
BRANCH  16  23
ATOM     18  C   UNL     1      48.096   6.511  14.092  0.00  0.00    +0.000 A 
ATOM     19  C   UNL     1      48.827   6.632  15.279  0.00  0.00    +0.000 A 
ATOM     20  C   UNL     1      49.215   7.895  15.719  0.00  0.00    +0.000 A 
ATOM     21  C   UNL     1      48.846   8.991  14.962  0.00  0.00    +0.000 A 
ATOM     22  N   UNL     1      48.150   8.910  13.804  0.00  0.00    +0.000 NA
ATOM     23  C   UNL     1      47.780   7.683  13.365  0.00  0.00    +0.000 A 
BRANCH  18  25
ATOM     24  C   UNL     1      46.786   4.541  14.396  0.00  0.00    +0.000 C 
ATOM     25  O   UNL     1      47.655   5.316  13.574  0.00  0.00    +0.000 OA
ENDBRANCH  18  25
BRANCH  20  26
ATOM     26  C   UNL     1      49.993   8.056  16.910  0.00  0.00    +0.000 C 
ATOM     27  N   UNL     1      50.635   8.172  17.865  0.00  0.00    +0.000 NA
ENDBRANCH  20  26
ENDBRANCH  16  23
ENDBRANCH   1  16
TORSDOF 6
ENDMDL
MODEL 4
REMARK VINA RESULT:    -6.063      2.142      3.200
REMARK INTER + INTRA:          -9.295
REMARK INTER:                  -8.281
REMARK INTRA:                  -1.014
REMARK UNBOUND:                -1.105
REMARK  Name = 
REMARK  7 active torsions:
REMARK  status: ('A' for Active; 'I' for Inactive)
REMARK    1  A    between atoms: C_1  and  O_2
REMARK    2  A    between atoms: O_2  and  C_3
REMARK    3  A    between atoms: C_5  and  C_6
REMARK    4  A    between atoms: C_10  and  N_11
REMARK    5  A    between atoms: N_11  and  C_12
REMARK    6  A    between atoms: C_12  and  C_13
REMARK    7  A    between atoms: C_17  and  C_18
REMARK                            x       y       z     vdW  Elec       q    Type
REMARK                         _______ _______ _______ _____ _____    ______ ____
ROOT
ATOM      1  C   UNL     1      49.064   7.790  12.603  0.00  0.00    +0.000 C 
ATOM      2  C   UNL     1      49.997   7.941  11.414  0.00  0.00    +0.000 C 
ATOM      3  C   UNL     1      49.704   9.126  12.274  0.00  0.00    +0.000 C 
ENDROOT
BRANCH   1   4
ATOM      4  C   UNL     1      47.556   7.682  12.393  0.00  0.00    +0.000 A 
ATOM      5  C   UNL     1      46.671   8.739  12.633  0.00  0.00    +0.000 A 
ATOM      6  C   UNL     1      45.321   8.630  12.298  0.00  0.00    +0.000 A 
ATOM      7  C   UNL     1      44.836   7.470  11.682  0.00  0.00    +0.000 A 
ATOM      8  C   UNL     1      45.676   6.375  11.429  0.00  0.00    +0.000 A 
ATOM      9  C   UNL     1      47.013   6.500  11.848  0.00  0.00    +0.000 A 
BRANCH   8  10
ATOM     10  C   UNL     1      45.220   5.179  10.680  0.00  0.00    +0.000 A 
ATOM     11  C   UNL     1      45.505   4.966   9.325  0.00  0.00    +0.000 A 
ATOM     12  C   UNL     1      45.109   3.789   8.687  0.00  0.00    +0.000 A 
ATOM     13  C   UNL     1      44.413   2.843   9.418  0.00  0.00    +0.000 A 
ATOM     14  N   UNL     1      44.096   2.995  10.716  0.00  0.00    +0.000 NA
ATOM     15  C   UNL     1      44.508   4.146  11.306  0.00  0.00    +0.000 A 
ENDBRANCH   8  10
ENDBRANCH   1   4
BRANCH   1  16
ATOM     16  N   UNL     1      49.578   6.919  13.690  0.00  0.00    +0.000 N 
ATOM     17  H   UNL     1      49.435   5.923  13.540  0.00  0.00    +0.000 HD
BRANCH  16  23
ATOM     18  C   UNL     1      48.603   6.244  15.815  0.00  0.00    +0.000 A 
ATOM     19  C   UNL     1      48.451   6.451  17.191  0.00  0.00    +0.000 A 
ATOM     20  C   UNL     1      48.991   7.595  17.775  0.00  0.00    +0.000 A 
ATOM     21  C   UNL     1      49.651   8.494  16.959  0.00  0.00    +0.000 A 
ATOM     22  N   UNL     1      49.827   8.320  15.628  0.00  0.00    +0.000 NA
ATOM     23  C   UNL     1      49.314   7.203  15.057  0.00  0.00    +0.000 A 
BRANCH  18  25
ATOM     24  C   UNL     1      47.345   4.219  15.897  0.00  0.00    +0.000 C 
ATOM     25  O   UNL     1      48.102   5.157  15.137  0.00  0.00    +0.000 OA
ENDBRANCH  18  25
BRANCH  20  26
ATOM     26  C   UNL     1      48.885   7.825  19.184  0.00  0.00    +0.000 C 
ATOM     27  N   UNL     1      48.820   8.006  20.324  0.00  0.00    +0.000 NA
ENDBRANCH  20  26
ENDBRANCH  16  23
ENDBRANCH   1  16
TORSDOF 6
ENDMDL
MODEL 5
REMARK VINA RESULT:    -6.004      2.077      3.877
REMARK INTER + INTRA:          -9.214
REMARK INTER:                  -8.187
REMARK INTRA:                  -1.027
REMARK UNBOUND:                -1.105
REMARK  Name = 
REMARK  7 active torsions:
REMARK  status: ('A' for Active; 'I' for Inactive)
REMARK    1  A    between atoms: C_1  and  O_2
REMARK    2  A    between atoms: O_2  and  C_3
REMARK    3  A    between atoms: C_5  and  C_6
REMARK    4  A    between atoms: C_10  and  N_11
REMARK    5  A    between atoms: N_11  and  C_12
REMARK    6  A    between atoms: C_12  and  C_13
REMARK    7  A    between atoms: C_17  and  C_18
REMARK                            x       y       z     vdW  Elec       q    Type
REMARK                         _______ _______ _______ _____ _____    ______ ____
ROOT
ATOM      1  C   UNL     1      46.283   5.014  13.754  0.00  0.00    +0.000 C 
ATOM      2  C   UNL     1      46.219   4.140  14.994  0.00  0.00    +0.000 C 
ATOM      3  C   UNL     1      47.280   3.892  13.973  0.00  0.00    +0.000 C 
ENDROOT
BRANCH   1   4
ATOM      4  C   UNL     1      45.276   4.824  12.622  0.00  0.00    +0.000 A 
ATOM      5  C   UNL     1      44.011   5.423  12.613  0.00  0.00    +0.000 A 
ATOM      6  C   UNL     1      43.183   5.325  11.495  0.00  0.00    +0.000 A 
ATOM      7  C   UNL     1      43.621   4.654  10.347  0.00  0.00    +0.000 A 
ATOM      8  C   UNL     1      44.874   4.025  10.305  0.00  0.00    +0.000 A 
ATOM      9  C   UNL     1      45.646   4.087  11.479  0.00  0.00    +0.000 A 
BRANCH   8  10
ATOM     10  C   UNL     1      45.410   3.403   9.070  0.00  0.00    +0.000 A 
ATOM     11  C   UNL     1      45.838   4.144   7.960  0.00  0.00    +0.000 A 
ATOM     12  C   UNL     1      46.399   3.509   6.850  0.00  0.00    +0.000 A 
ATOM     13  C   UNL     1      46.509   2.130   6.863  0.00  0.00    +0.000 A 
ATOM     14  N   UNL     1      46.104   1.363   7.891  0.00  0.00    +0.000 NA
ATOM     15  C   UNL     1      45.575   2.015   8.957  0.00  0.00    +0.000 A 
ENDBRANCH   8  10
ENDBRANCH   1   4
BRANCH   1  16
ATOM     16  N   UNL     1      46.629   6.435  14.012  0.00  0.00    +0.000 N 
ATOM     17  H   UNL     1      45.829   7.048  14.156  0.00  0.00    +0.000 HD
BRANCH  16  23
ATOM     18  C   UNL     1      47.231   8.405  12.716  0.00  0.00    +0.000 A 
ATOM     19  C   UNL     1      48.202   9.150  12.037  0.00  0.00    +0.000 A 
ATOM     20  C   UNL     1      49.474   8.612  11.855  0.00  0.00    +0.000 A 
ATOM     21  C   UNL     1      49.723   7.345  12.348  0.00  0.00    +0.000 A 
ATOM     22  N   UNL     1      48.812   6.602  13.020  0.00  0.00    +0.000 NA
ATOM     23  C   UNL     1      47.577   7.125  13.210  0.00  0.00    +0.000 A 
BRANCH  18  25
ATOM     24  C   UNL     1      45.078   8.887  11.811  0.00  0.00    +0.000 C 
ATOM     25  O   UNL     1      45.944   8.835  12.941  0.00  0.00    +0.000 OA
ENDBRANCH  18  25
BRANCH  20  26
ATOM     26  C   UNL     1      50.504   9.357  11.196  0.00  0.00    +0.000 C 
ATOM     27  N   UNL     1      51.334   9.973  10.678  0.00  0.00    +0.000 NA
ENDBRANCH  20  26
ENDBRANCH  16  23
ENDBRANCH   1  16
TORSDOF 6
ENDMDL
MODEL 6
REMARK VINA RESULT:    -5.694      2.018      3.713
REMARK INTER + INTRA:          -8.796
REMARK INTER:                  -7.694
REMARK INTRA:                  -1.102
REMARK UNBOUND:                -1.105
REMARK  Name = 
REMARK  7 active torsions:
REMARK  status: ('A' for Active; 'I' for Inactive)
REMARK    1  A    between atoms: C_1  and  O_2
REMARK    2  A    between atoms: O_2  and  C_3
REMARK    3  A    between atoms: C_5  and  C_6
REMARK    4  A    between atoms: C_10  and  N_11
REMARK    5  A    between atoms: N_11  and  C_12
REMARK    6  A    between atoms: C_12  and  C_13
REMARK    7  A    between atoms: C_17  and  C_18
REMARK                            x       y       z     vdW  Elec       q    Type
REMARK                         _______ _______ _______ _____ _____    ______ ____
ROOT
ATOM      1  C   UNL     1      46.292   4.970  13.789  0.00  0.00    +0.000 C 
ATOM      2  C   UNL     1      46.288   4.188  15.092  0.00  0.00    +0.000 C 
ATOM      3  C   UNL     1      47.351   3.922  14.076  0.00  0.00    +0.000 C 
ENDROOT
BRANCH   1   4
ATOM      4  C   UNL     1      45.284   4.644  12.689  0.00  0.00    +0.000 A 
ATOM      5  C   UNL     1      43.936   5.015  12.750  0.00  0.00    +0.000 A 
ATOM      6  C   UNL     1      43.090   4.810  11.661  0.00  0.00    +0.000 A 
ATOM      7  C   UNL     1      43.586   4.260  10.473  0.00  0.00    +0.000 A 
ATOM      8  C   UNL     1      44.925   3.859  10.361  0.00  0.00    +0.000 A 
ATOM      9  C   UNL     1      45.726   4.018  11.506  0.00  0.00    +0.000 A 
BRANCH   8  10
ATOM     10  C   UNL     1      45.507   3.378   9.084  0.00  0.00    +0.000 A 
ATOM     11  C   UNL     1      45.730   2.023   8.804  0.00  0.00    +0.000 A 
ATOM     12  C   UNL     1      46.216   1.621   7.558  0.00  0.00    +0.000 A 
ATOM     13  C   UNL     1      46.490   2.592   6.611  0.00  0.00    +0.000 A 
ATOM     14  N   UNL     1      46.312   3.908   6.825  0.00  0.00    +0.000 NA
ATOM     15  C   UNL     1      45.826   4.260   8.042  0.00  0.00    +0.000 A 
ENDBRANCH   8  10
ENDBRANCH   1   4
BRANCH   1  16
ATOM     16  N   UNL     1      46.564   6.423  13.937  0.00  0.00    +0.000 N 
ATOM     17  H   UNL     1      45.753   7.023  13.798  0.00  0.00    +0.000 HD
BRANCH  16  23
ATOM     18  C   UNL     1      48.843   7.263  14.084  0.00  0.00    +0.000 A 
ATOM     19  C   UNL     1      49.992   7.745  13.447  0.00  0.00    +0.000 A 
ATOM     20  C   UNL     1      49.962   7.998  12.078  0.00  0.00    +0.000 A 
ATOM     21  C   UNL     1      48.779   7.773  11.399  0.00  0.00    +0.000 A 
ATOM     22  N   UNL     1      47.653   7.296  11.981  0.00  0.00    +0.000 NA
ATOM     23  C   UNL     1      47.681   7.036  13.310  0.00  0.00    +0.000 A 
BRANCH  18  25
ATOM     24  C   UNL     1      49.989   6.754  16.113  0.00  0.00    +0.000 C 
ATOM     25  O   UNL     1      48.761   6.990  15.429  0.00  0.00    +0.000 OA
ENDBRANCH  18  25
BRANCH  20  26
ATOM     26  C   UNL     1      51.127   8.459  11.386  0.00  0.00    +0.000 C 
ATOM     27  N   UNL     1      52.061   8.850  10.826  0.00  0.00    +0.000 NA
ENDBRANCH  20  26
ENDBRANCH  16  23
ENDBRANCH   1  16
TORSDOF 6
ENDMDL
MODEL 7
REMARK VINA RESULT:    -5.667      3.169      6.921
REMARK INTER + INTRA:          -8.760
REMARK INTER:                  -8.421
REMARK INTRA:                  -0.339
REMARK UNBOUND:                -1.105
REMARK  Name = 
REMARK  7 active torsions:
REMARK  status: ('A' for Active; 'I' for Inactive)
REMARK    1  A    between atoms: C_1  and  O_2
REMARK    2  A    between atoms: O_2  and  C_3
REMARK    3  A    between atoms: C_5  and  C_6
REMARK    4  A    between atoms: C_10  and  N_11
REMARK    5  A    between atoms: N_11  and  C_12
REMARK    6  A    between atoms: C_12  and  C_13
REMARK    7  A    between atoms: C_17  and  C_18
REMARK                            x       y       z     vdW  Elec       q    Type
REMARK                         _______ _______ _______ _____ _____    ______ ____
ROOT
ATOM      1  C   UNL     1      47.180   7.756  13.211  0.00  0.00    +0.000 C 
ATOM      2  C   UNL     1      48.472   6.990  12.983  0.00  0.00    +0.000 C 
ATOM      3  C   UNL     1      48.261   7.708  14.276  0.00  0.00    +0.000 C 
ENDROOT
BRANCH   1   4
ATOM      4  C   UNL     1      46.950   9.103  12.529  0.00  0.00    +0.000 A 
ATOM      5  C   UNL     1      47.988   9.901  12.039  0.00  0.00    +0.000 A 
ATOM      6  C   UNL     1      47.716  11.057  11.307  0.00  0.00    +0.000 A 
ATOM      7  C   UNL     1      46.394  11.417  11.020  0.00  0.00    +0.000 A 
ATOM      8  C   UNL     1      45.314  10.660  11.496  0.00  0.00    +0.000 A 
ATOM      9  C   UNL     1      45.632   9.543  12.291  0.00  0.00    +0.000 A 
BRANCH   8  10
ATOM     10  C   UNL     1      43.910  10.951  11.118  0.00  0.00    +0.000 A 
ATOM     11  C   UNL     1      42.993   9.960  10.744  0.00  0.00    +0.000 A 
ATOM     12  C   UNL     1      41.664  10.283  10.464  0.00  0.00    +0.000 A 
ATOM     13  C   UNL     1      41.275  11.608  10.547  0.00  0.00    +0.000 A 
ATOM     14  N   UNL     1      42.110  12.607  10.885  0.00  0.00    +0.000 NA
ATOM     15  C   UNL     1      43.390  12.253  11.163  0.00  0.00    +0.000 A 
ENDBRANCH   8  10
ENDBRANCH   1   4
BRANCH   1  16
ATOM     16  N   UNL     1      45.962   6.911  13.290  0.00  0.00    +0.000 N 
ATOM     17  H   UNL     1      45.725   6.594  14.228  0.00  0.00    +0.000 HD
BRANCH  16  23
ATOM     18  C   UNL     1      45.634   4.527  12.925  0.00  0.00    +0.000 A 
ATOM     19  C   UNL     1      45.292   3.476  12.067  0.00  0.00    +0.000 A 
ATOM     20  C   UNL     1      45.084   3.736  10.714  0.00  0.00    +0.000 A 
ATOM     21  C   UNL     1      45.239   5.035  10.268  0.00  0.00    +0.000 A 
ATOM     22  N   UNL     1      45.557   6.078  11.072  0.00  0.00    +0.000 NA
ATOM     23  C   UNL     1      45.748   5.832  12.391  0.00  0.00    +0.000 A 
BRANCH  18  25
ATOM     24  C   UNL     1      47.155   3.892  14.649  0.00  0.00    +0.000 C 
ATOM     25  O   UNL     1      45.870   4.380  14.272  0.00  0.00    +0.000 OA
ENDBRANCH  18  25
BRANCH  20  26
ATOM     26  C   UNL     1      44.701   2.693   9.812  0.00  0.00    +0.000 C 
ATOM     27  N   UNL     1      44.371   1.852   9.089  0.00  0.00    +0.000 NA
ENDBRANCH  20  26
ENDBRANCH  16  23
ENDBRANCH   1  16
TORSDOF 6
ENDMDL
MODEL 8
REMARK VINA RESULT:    -5.608      2.092      7.180
REMARK INTER + INTRA:          -8.680
REMARK INTER:                  -7.580
REMARK INTRA:                  -1.100
REMARK UNBOUND:                -1.105
REMARK  Name = 
REMARK  7 active torsions:
REMARK  status: ('A' for Active; 'I' for Inactive)
REMARK    1  A    between atoms: C_1  and  O_2
REMARK    2  A    between atoms: O_2  and  C_3
REMARK    3  A    between atoms: C_5  and  C_6
REMARK    4  A    between atoms: C_10  and  N_11
REMARK    5  A    between atoms: N_11  and  C_12
REMARK    6  A    between atoms: C_12  and  C_13
REMARK    7  A    between atoms: C_17  and  C_18
REMARK                            x       y       z     vdW  Elec       q    Type
REMARK                         _______ _______ _______ _____ _____    ______ ____
ROOT
ATOM      1  C   UNL     1      45.755   7.968  12.519  0.00  0.00    +0.000 C 
ATOM      2  C   UNL     1      45.080   9.259  12.950  0.00  0.00    +0.000 C 
ATOM      3  C   UNL     1      45.273   8.978  11.496  0.00  0.00    +0.000 C 
ENDROOT
BRANCH   1   4
ATOM      4  C   UNL     1      47.266   7.801  12.660  0.00  0.00    +0.000 A 
ATOM      5  C   UNL     1      48.179   8.250  11.700  0.00  0.00    +0.000 A 
ATOM      6  C   UNL     1      49.552   8.193  11.939  0.00  0.00    +0.000 A 
ATOM      7  C   UNL     1      50.038   7.717  13.162  0.00  0.00    +0.000 A 
ATOM      8  C   UNL     1      49.169   7.243  14.156  0.00  0.00    +0.000 A 
ATOM      9  C   UNL     1      47.797   7.252  13.845  0.00  0.00    +0.000 A 
BRANCH   8  10
ATOM     10  C   UNL     1      49.644   6.837  15.501  0.00  0.00    +0.000 A 
ATOM     11  C   UNL     1      50.924   7.135  15.986  0.00  0.00    +0.000 A 
ATOM     12  C   UNL     1      51.295   6.788  17.287  0.00  0.00    +0.000 A 
ATOM     13  C   UNL     1      50.376   6.128  18.082  0.00  0.00    +0.000 A 
ATOM     14  N   UNL     1      49.138   5.801  17.670  0.00  0.00    +0.000 NA
ATOM     15  C   UNL     1      48.808   6.165  16.405  0.00  0.00    +0.000 A 
ENDBRANCH   8  10
ENDBRANCH   1   4
BRANCH   1  16
ATOM     16  N   UNL     1      44.988   6.733  12.825  0.00  0.00    +0.000 N 
ATOM     17  H   UNL     1      45.084   6.400  13.783  0.00  0.00    +0.000 HD
BRANCH  16  23
ATOM     18  C   UNL     1      45.298   4.339  12.520  0.00  0.00    +0.000 A 
ATOM     19  C   UNL     1      45.200   3.206  11.704  0.00  0.00    +0.000 A 
ATOM     20  C   UNL     1      44.842   3.354  10.366  0.00  0.00    +0.000 A 
ATOM     21  C   UNL     1      44.608   4.631   9.892  0.00  0.00    +0.000 A 
ATOM     22  N   UNL     1      44.682   5.747  10.655  0.00  0.00    +0.000 NA
ATOM     23  C   UNL     1      45.017   5.607  11.960  0.00  0.00    +0.000 A 
BRANCH  18  25
ATOM     24  C   UNL     1      46.953   3.812  14.154  0.00  0.00    +0.000 C 
ATOM     25  O   UNL     1      45.652   4.307  13.849  0.00  0.00    +0.000 OA
ENDBRANCH  18  25
BRANCH  20  26
ATOM     26  C   UNL     1      44.699   2.217   9.509  0.00  0.00    +0.000 C 
ATOM     27  N   UNL     1      44.597   1.306   8.804  0.00  0.00    +0.000 NA
ENDBRANCH  20  26
ENDBRANCH  16  23
ENDBRANCH   1  16
TORSDOF 6
ENDMDL
MODEL 9
REMARK VINA RESULT:    -5.603      2.264      7.441
REMARK INTER + INTRA:          -8.673
REMARK INTER:                  -7.807
REMARK INTRA:                  -0.866
REMARK UNBOUND:                -1.105
REMARK  Name = 
REMARK  7 active torsions:
REMARK  status: ('A' for Active; 'I' for Inactive)
REMARK    1  A    between atoms: C_1  and  O_2
REMARK    2  A    between atoms: O_2  and  C_3
REMARK    3  A    between atoms: C_5  and  C_6
REMARK    4  A    between atoms: C_10  and  N_11
REMARK    5  A    between atoms: N_11  and  C_12
REMARK    6  A    between atoms: C_12  and  C_13
REMARK    7  A    between atoms: C_17  and  C_18
REMARK                            x       y       z     vdW  Elec       q    Type
REMARK                         _______ _______ _______ _____ _____    ______ ____
ROOT
ATOM      1  C   UNL     1      47.690   7.904  13.257  0.00  0.00    +0.000 C 
ATOM      2  C   UNL     1      47.949   8.960  12.196  0.00  0.00    +0.000 C 
ATOM      3  C   UNL     1      48.651   7.644  12.113  0.00  0.00    +0.000 C 
ENDROOT
BRANCH   1   4
ATOM      4  C   UNL     1      48.301   8.040  14.649  0.00  0.00    +0.000 A 
ATOM      5  C   UNL     1      48.022   9.109  15.507  0.00  0.00    +0.000 A 
ATOM      6  C   UNL     1      48.502   9.117  16.817  0.00  0.00    +0.000 A 
ATOM      7  C   UNL     1      49.244   8.035  17.305  0.00  0.00    +0.000 A 
ATOM      8  C   UNL     1      49.564   6.943  16.485  0.00  0.00    +0.000 A 
ATOM      9  C   UNL     1      49.121   7.009  15.152  0.00  0.00    +0.000 A 
BRANCH   8  10
ATOM     10  C   UNL     1      50.251   5.735  17.002  0.00  0.00    +0.000 A 
ATOM     11  C   UNL     1      49.575   4.562  17.363  0.00  0.00    +0.000 A 
ATOM     12  C   UNL     1      50.279   3.429  17.778  0.00  0.00    +0.000 A 
ATOM     13  C   UNL     1      51.659   3.496  17.843  0.00  0.00    +0.000 A 
ATOM     14  N   UNL     1      52.364   4.597  17.525  0.00  0.00    +0.000 NA
ATOM     15  C   UNL     1      51.648   5.673  17.113  0.00  0.00    +0.000 A 
ENDBRANCH   8  10
ENDBRANCH   1   4
BRANCH   1  16
ATOM     16  N   UNL     1      46.310   7.355  13.263  0.00  0.00    +0.000 N 
ATOM     17  H   UNL     1      45.910   7.222  14.190  0.00  0.00    +0.000 HD
BRANCH  16  23
ATOM     18  C   UNL     1      45.882   4.966  13.079  0.00  0.00    +0.000 A 
ATOM     19  C   UNL     1      45.404   3.882  12.333  0.00  0.00    +0.000 A 
ATOM     20  C   UNL     1      45.020   4.077  11.008  0.00  0.00    +0.000 A 
ATOM     21  C   UNL     1      45.142   5.347  10.475  0.00  0.00    +0.000 A 
ATOM     22  N   UNL     1      45.589   6.420  11.170  0.00  0.00    +0.000 NA
ATOM     23  C   UNL     1      45.951   6.238  12.463  0.00  0.00    +0.000 A 
BRANCH  18  25
ATOM     24  C   UNL     1      47.205   3.833  14.708  0.00  0.00    +0.000 C 
ATOM     25  O   UNL     1      46.295   4.882  14.388  0.00  0.00    +0.000 OA
ENDBRANCH  18  25
BRANCH  20  26
ATOM     26  C   UNL     1      44.495   3.001  10.225  0.00  0.00    +0.000 C 
ATOM     27  N   UNL     1      44.073   2.142   9.576  0.00  0.00    +0.000 NA
ENDBRANCH  20  26
ENDBRANCH  16  23
ENDBRANCH   1  16
TORSDOF 6
ENDMDL
