MODEL 1
REMARK VINA RESULT:    -9.027      0.000      0.000
REMARK INTER + INTRA:         -13.556
REMARK INTER:                 -12.721
REMARK INTRA:                  -0.835
REMARK UNBOUND:                -0.835
REMARK  Name = 
REMARK  7 active torsions:
REMARK  status: ('A' for Active; 'I' for Inactive)
REMARK    1  A    between atoms: C_2  and  C_25
REMARK    2  A    between atoms: N_3  and  C_4
REMARK    3  A    between atoms: C_4  and  C_5
REMARK    4  A    between atoms: C_9  and  C_10
REMARK    5  A    between atoms: C_10  and  C_11
REMARK    6  A    between atoms: C_11  and  C_12
REMARK    7  A    between atoms: C_12  and  C_14
REMARK                            x       y       z     vdW  Elec       q    Type
REMARK                         _______ _______ _______ _____ _____    ______ ____
ROOT
ATOM      1  C   UNL     1      44.473   3.967  11.769  0.00  0.00    +0.000 A 
ATOM      2  C   UNL     1      44.117   5.322  11.797  0.00  0.00    +0.000 A 
ATOM      3  C   UNL     1      44.780   6.206  12.646  0.00  0.00    +0.000 A 
ATOM      4  C   UNL     1      45.804   5.746  13.475  0.00  0.00    +0.000 A 
ATOM      5  C   UNL     1      46.176   4.393  13.467  0.00  0.00    +0.000 A 
ATOM      6  C   UNL     1      45.518   3.518  12.593  0.00  0.00    +0.000 A 
ENDROOT
BRANCH   1   7
ATOM      7  C   UNL     1      43.728   3.000  10.893  0.00  0.00    +0.000 C 
BRANCH   7  10
ATOM      8  O   UNL     1      44.396   4.207   8.480  0.00  0.00    +0.000 OA
ATOM      9  C   UNL     1      44.862   3.100   8.735  0.00  0.00    +0.000 C 
ATOM     10  N   UNL     1      44.561   2.400   9.885  0.00  0.00    +0.000 N 
ATOM     11  H   UNL     1      45.035   1.517  10.045  0.00  0.00    +0.000 HD
BRANCH   9  12
ATOM     12  C   UNL     1      45.830   2.437   7.805  0.00  0.00    +0.000 A 
ATOM     13  C   UNL     1      46.284   3.139   6.692  0.00  0.00    +0.000 A 
ATOM     14  C   UNL     1      47.224   2.533   5.868  0.00  0.00    +0.000 A 
ATOM     15  C   UNL     1      47.669   1.251   6.177  0.00  0.00    +0.000 A 
ATOM     16  C   UNL     1      47.148   0.619   7.299  0.00  0.00    +0.000 A 
ATOM     17  N   UNL     1      46.239   1.178   8.128  0.00  0.00    +0.000 NA
ENDBRANCH   9  12
ENDBRANCH   7  10
ENDBRANCH   1   7
BRANCH   5  18
ATOM     18  C   UNL     1      47.232   3.872  14.417  0.00  0.00    +0.000 C 
BRANCH  18  19
ATOM     19  C   UNL     1      47.325   4.754  15.661  0.00  0.00    +0.000 C 
BRANCH  19  20
ATOM     20  C   UNL     1      47.577   3.992  16.940  0.00  0.00    +0.000 C 
ATOM     21  O   UNL     1      46.723   3.239  17.407  0.00  0.00    +0.000 OA
BRANCH  20  22
ATOM     22  C   UNL     1      48.864   4.155  17.620  0.00  0.00    +0.000 A 
ATOM     23  C   UNL     1      49.123   5.210  18.475  0.00  0.00    +0.000 A 
ATOM     24  O   UNL     1      50.368   5.131  19.004  0.00  0.00    +0.000 OA
ATOM     25  C   UNL     1      50.954   4.016  18.494  0.00  0.00    +0.000 A 
ATOM     26  N   UNL     1      52.207   3.625  18.825  0.00  0.00    +0.000 NA
ATOM     27  C   UNL     1      52.579   2.536  18.239  0.00  0.00    +0.000 A 
ATOM     28  N   UNL     1      51.814   1.817  17.354  0.00  0.00    +0.000 N 
ATOM     29  C   UNL     1      50.542   2.189  16.984  0.00  0.00    +0.000 A 
ATOM     30  O   UNL     1      49.909   1.526  16.170  0.00  0.00    +0.000 OA
ATOM     31  C   UNL     1      50.073   3.390  17.629  0.00  0.00    +0.000 A 
ATOM     32  H   UNL     1      52.172   0.978  16.921  0.00  0.00    +0.000 HD
ENDBRANCH  20  22
ENDBRANCH  19  20
ENDBRANCH  18  19
ENDBRANCH   5  18
TORSDOF 7
ENDMDL
MODEL 2
REMARK VINA RESULT:    -8.222      3.244      5.210
REMARK INTER + INTRA:         -12.421
REMARK INTER:                 -11.486
REMARK INTRA:                  -0.936
REMARK UNBOUND:                -0.835
REMARK  Name = 
REMARK  7 active torsions:
REMARK  status: ('A' for Active; 'I' for Inactive)
REMARK    1  A    between atoms: C_2  and  C_25
REMARK    2  A    between atoms: N_3  and  C_4
REMARK    3  A    between atoms: C_4  and  C_5
REMARK    4  A    between atoms: C_9  and  C_10
REMARK    5  A    between atoms: C_10  and  C_11
REMARK    6  A    between atoms: C_11  and  C_12
REMARK    7  A    between atoms: C_12  and  C_14
REMARK                            x       y       z     vdW  Elec       q    Type
REMARK                         _______ _______ _______ _____ _____    ______ ____
ROOT
ATOM      1  C   UNL     1      46.015   3.200   7.851  0.00  0.00    +0.000 A 
ATOM      2  C   UNL     1      45.508   1.950   8.229  0.00  0.00    +0.000 A 
ATOM      3  C   UNL     1      44.689   1.833   9.349  0.00  0.00    +0.000 A 
ATOM      4  C   UNL     1      44.366   2.963  10.102  0.00  0.00    +0.000 A 
ATOM      5  C   UNL     1      44.863   4.225   9.744  0.00  0.00    +0.000 A 
ATOM      6  C   UNL     1      45.670   4.334   8.603  0.00  0.00    +0.000 A 
ENDROOT
BRANCH   1   7
ATOM      7  C   UNL     1      46.941   3.324   6.673  0.00  0.00    +0.000 C 
BRANCH   7  10
ATOM      8  O   UNL     1      48.470   1.243   5.647  0.00  0.00    +0.000 OA
ATOM      9  C   UNL     1      47.368   1.465   5.154  0.00  0.00    +0.000 C 
ATOM     10  N   UNL     1      46.550   2.497   5.563  0.00  0.00    +0.000 N 
ATOM     11  H   UNL     1      45.630   2.574   5.140  0.00  0.00    +0.000 HD
BRANCH   9  12
ATOM     12  C   UNL     1      46.819   0.591   4.068  0.00  0.00    +0.000 A 
ATOM     13  C   UNL     1      45.839   1.102   3.223  0.00  0.00    +0.000 A 
ATOM     14  C   UNL     1      45.378   0.300   2.186  0.00  0.00    +0.000 A 
ATOM     15  C   UNL     1      45.904  -0.980   2.035  0.00  0.00    +0.000 A 
ATOM     16  C   UNL     1      46.867  -1.412   2.936  0.00  0.00    +0.000 A 
ATOM     17  N   UNL     1      47.345  -0.660   3.953  0.00  0.00    +0.000 NA
ENDBRANCH   9  12
ENDBRANCH   7  10
ENDBRANCH   1   7
BRANCH   5  18
ATOM     18  C   UNL     1      44.581   5.442  10.599  0.00  0.00    +0.000 C 
BRANCH  18  19
ATOM     19  C   UNL     1      45.839   6.293  10.763  0.00  0.00    +0.000 C 
BRANCH  19  20
ATOM     20  C   UNL     1      45.816   7.201  11.970  0.00  0.00    +0.000 C 
ATOM     21  O   UNL     1      45.035   8.149  12.034  0.00  0.00    +0.000 OA
BRANCH  20  22
ATOM     22  C   UNL     1      46.738   6.932  13.076  0.00  0.00    +0.000 A 
ATOM     23  C   UNL     1      47.670   7.858  13.507  0.00  0.00    +0.000 A 
ATOM     24  O   UNL     1      48.387   7.393  14.558  0.00  0.00    +0.000 OA
ATOM     25  C   UNL     1      47.937   6.140  14.832  0.00  0.00    +0.000 A 
ATOM     26  N   UNL     1      48.431   5.384  15.842  0.00  0.00    +0.000 NA
ATOM     27  C   UNL     1      47.868   4.227  15.942  0.00  0.00    +0.000 A 
ATOM     28  N   UNL     1      46.867   3.764  15.123  0.00  0.00    +0.000 N 
ATOM     29  C   UNL     1      46.349   4.498  14.080  0.00  0.00    +0.000 A 
ATOM     30  O   UNL     1      45.473   4.030  13.362  0.00  0.00    +0.000 OA
ATOM     31  C   UNL     1      46.933   5.808  13.940  0.00  0.00    +0.000 A 
ATOM     32  H   UNL     1      46.479   2.841  15.250  0.00  0.00    +0.000 HD
ENDBRANCH  20  22
ENDBRANCH  19  20
ENDBRANCH  18  19
ENDBRANCH   5  18
TORSDOF 7
ENDMDL
MODEL 3
REMARK VINA RESULT:    -8.114      2.366      3.502
REMARK INTER + INTRA:         -12.269
REMARK INTER:                 -11.030
REMARK INTRA:                  -1.239
REMARK UNBOUND:                -0.835
REMARK  Name = 
REMARK  7 active torsions:
REMARK  status: ('A' for Active; 'I' for Inactive)
REMARK    1  A    between atoms: C_2  and  C_25
REMARK    2  A    between atoms: N_3  and  C_4
REMARK    3  A    between atoms: C_4  and  C_5
REMARK    4  A    between atoms: C_9  and  C_10
REMARK    5  A    between atoms: C_10  and  C_11
REMARK    6  A    between atoms: C_11  and  C_12
REMARK    7  A    between atoms: C_12  and  C_14
REMARK                            x       y       z     vdW  Elec       q    Type
REMARK                         _______ _______ _______ _____ _____    ______ ____
ROOT
ATOM      1  C   UNL     1      45.194   6.360  11.146  0.00  0.00    +0.000 A 
ATOM      2  C   UNL     1      44.341   7.407  11.518  0.00  0.00    +0.000 A 
ATOM      3  C   UNL     1      44.865   8.596  12.022  0.00  0.00    +0.000 A 
ATOM      4  C   UNL     1      46.245   8.750  12.158  0.00  0.00    +0.000 A 
ATOM      5  C   UNL     1      47.119   7.714  11.795  0.00  0.00    +0.000 A 
ATOM      6  C   UNL     1      46.582   6.531  11.269  0.00  0.00    +0.000 A 
ENDROOT
BRANCH   1   7
ATOM      7  C   UNL     1      44.632   5.057  10.650  0.00  0.00    +0.000 C 
BRANCH   7  10
ATOM      8  O   UNL     1      44.095   2.597   9.473  0.00  0.00    +0.000 OA
ATOM      9  C   UNL     1      45.072   3.234   9.090  0.00  0.00    +0.000 C 
ATOM     10  N   UNL     1      45.447   4.444   9.637  0.00  0.00    +0.000 N 
ATOM     11  H   UNL     1      46.236   4.931   9.221  0.00  0.00    +0.000 HD
BRANCH   9  12
ATOM     12  C   UNL     1      45.922   2.738   7.961  0.00  0.00    +0.000 A 
ATOM     13  C   UNL     1      46.432   1.445   8.020  0.00  0.00    +0.000 A 
ATOM     14  C   UNL     1      47.173   0.979   6.941  0.00  0.00    +0.000 A 
ATOM     15  C   UNL     1      47.384   1.818   5.851  0.00  0.00    +0.000 A 
ATOM     16  C   UNL     1      46.850   3.099   5.886  0.00  0.00    +0.000 A 
ATOM     17  N   UNL     1      46.119   3.587   6.914  0.00  0.00    +0.000 NA
ENDBRANCH   9  12
ENDBRANCH   7  10
ENDBRANCH   1   7
BRANCH   5  18
ATOM     18  C   UNL     1      48.611   7.845  12.013  0.00  0.00    +0.000 C 
BRANCH  18  19
ATOM     19  C   UNL     1      49.112   6.786  12.993  0.00  0.00    +0.000 C 
BRANCH  19  20
ATOM     20  C   UNL     1      48.524   6.901  14.379  0.00  0.00    +0.000 C 
ATOM     21  O   UNL     1      48.534   7.973  14.983  0.00  0.00    +0.000 OA
BRANCH  20  22
ATOM     22  C   UNL     1      47.930   5.714  14.997  0.00  0.00    +0.000 A 
ATOM     23  C   UNL     1      46.941   4.971  14.378  0.00  0.00    +0.000 A 
ATOM     24  O   UNL     1      46.571   3.907  15.130  0.00  0.00    +0.000 OA
ATOM     25  C   UNL     1      47.313   3.938  16.268  0.00  0.00    +0.000 A 
ATOM     26  N   UNL     1      47.207   3.004  17.243  0.00  0.00    +0.000 NA
ATOM     27  C   UNL     1      48.001   3.207  18.240  0.00  0.00    +0.000 A 
ATOM     28  N   UNL     1      48.880   4.258  18.346  0.00  0.00    +0.000 N 
ATOM     29  C   UNL     1      49.007   5.232  17.383  0.00  0.00    +0.000 A 
ATOM     30  O   UNL     1      49.788   6.164  17.536  0.00  0.00    +0.000 OA
ATOM     31  C   UNL     1      48.153   5.038  16.238  0.00  0.00    +0.000 A 
ATOM     32  H   UNL     1      49.465   4.363  19.162  0.00  0.00    +0.000 HD
ENDBRANCH  20  22
ENDBRANCH  19  20
ENDBRANCH  18  19
ENDBRANCH   5  18
TORSDOF 7
ENDMDL
MODEL 4
REMARK VINA RESULT:    -7.976      2.274      2.933
REMARK INTER + INTRA:         -12.074
REMARK INTER:                 -11.214
REMARK INTRA:                  -0.861
REMARK UNBOUND:                -0.835
REMARK  Name = 
REMARK  7 active torsions:
REMARK  status: ('A' for Active; 'I' for Inactive)
REMARK    1  A    between atoms: C_2  and  C_25
REMARK    2  A    between atoms: N_3  and  C_4
REMARK    3  A    between atoms: C_4  and  C_5
REMARK    4  A    between atoms: C_9  and  C_10
REMARK    5  A    between atoms: C_10  and  C_11
REMARK    6  A    between atoms: C_11  and  C_12
REMARK    7  A    between atoms: C_12  and  C_14
REMARK                            x       y       z     vdW  Elec       q    Type
REMARK                         _______ _______ _______ _____ _____    ______ ____
ROOT
ATOM      1  C   UNL     1      44.354   5.011  11.373  0.00  0.00    +0.000 A 
ATOM      2  C   UNL     1      43.458   6.088  11.367  0.00  0.00    +0.000 A 
ATOM      3  C   UNL     1      43.909   7.380  11.625  0.00  0.00    +0.000 A 
ATOM      4  C   UNL     1      45.260   7.610  11.891  0.00  0.00    +0.000 A 
ATOM      5  C   UNL     1      46.176   6.548  11.905  0.00  0.00    +0.000 A 
ATOM      6  C   UNL     1      45.714   5.255  11.623  0.00  0.00    +0.000 A 
ENDROOT
BRANCH   1   7
ATOM      7  C   UNL     1      43.865   3.609  11.146  0.00  0.00    +0.000 C 
BRANCH   7  10
ATOM      8  O   UNL     1      44.120   4.176   8.438  0.00  0.00    +0.000 OA
ATOM      9  C   UNL     1      44.777   3.254   8.912  0.00  0.00    +0.000 C 
ATOM     10  N   UNL     1      44.692   2.867  10.233  0.00  0.00    +0.000 N 
ATOM     11  H   UNL     1      45.313   2.131  10.556  0.00  0.00    +0.000 HD
BRANCH   9  12
ATOM     12  C   UNL     1      45.754   2.491   8.072  0.00  0.00    +0.000 A 
ATOM     13  C   UNL     1      46.415   3.150   7.040  0.00  0.00    +0.000 A 
ATOM     14  C   UNL     1      47.359   2.444   6.304  0.00  0.00    +0.000 A 
ATOM     15  C   UNL     1      47.604   1.111   6.618  0.00  0.00    +0.000 A 
ATOM     16  C   UNL     1      46.885   0.530   7.654  0.00  0.00    +0.000 A 
ATOM     17  N   UNL     1      45.964   1.185   8.397  0.00  0.00    +0.000 NA
ENDBRANCH   9  12
ENDBRANCH   7  10
ENDBRANCH   1   7
BRANCH   5  18
ATOM     18  C   UNL     1      47.627   6.778  12.268  0.00  0.00    +0.000 C 
BRANCH  18  19
ATOM     19  C   UNL     1      47.742   7.560  13.575  0.00  0.00    +0.000 C 
BRANCH  19  20
ATOM     20  C   UNL     1      48.977   7.235  14.382  0.00  0.00    +0.000 C 
ATOM     21  O   UNL     1      50.101   7.477  13.944  0.00  0.00    +0.000 OA
BRANCH  20  22
ATOM     22  C   UNL     1      48.818   6.632  15.707  0.00  0.00    +0.000 A 
ATOM     23  C   UNL     1      49.286   7.237  16.859  0.00  0.00    +0.000 A 
ATOM     24  O   UNL     1      48.997   6.505  17.961  0.00  0.00    +0.000 OA
ATOM     25  C   UNL     1      48.335   5.393  17.546  0.00  0.00    +0.000 A 
ATOM     26  N   UNL     1      47.883   4.443  18.399  0.00  0.00    +0.000 NA
ATOM     27  C   UNL     1      47.275   3.468  17.809  0.00  0.00    +0.000 A 
ATOM     28  N   UNL     1      47.087   3.363  16.452  0.00  0.00    +0.000 N 
ATOM     29  C   UNL     1      47.543   4.301  15.555  0.00  0.00    +0.000 A 
ATOM     30  O   UNL     1      47.372   4.148  14.351  0.00  0.00    +0.000 OA
ATOM     31  C   UNL     1      48.212   5.420  16.167  0.00  0.00    +0.000 A 
ATOM     32  H   UNL     1      46.611   2.566  16.055  0.00  0.00    +0.000 HD
ENDBRANCH  20  22
ENDBRANCH  19  20
ENDBRANCH  18  19
ENDBRANCH   5  18
TORSDOF 7
ENDMDL
MODEL 5
REMARK VINA RESULT:    -7.916      3.234      4.106
REMARK INTER + INTRA:         -11.991
REMARK INTER:                 -10.950
REMARK INTRA:                  -1.041
REMARK UNBOUND:                -0.835
REMARK  Name = 
REMARK  7 active torsions:
REMARK  status: ('A' for Active; 'I' for Inactive)
REMARK    1  A    between atoms: C_2  and  C_25
REMARK    2  A    between atoms: N_3  and  C_4
REMARK    3  A    between atoms: C_4  and  C_5
REMARK    4  A    between atoms: C_9  and  C_10
REMARK    5  A    between atoms: C_10  and  C_11
REMARK    6  A    between atoms: C_11  and  C_12
REMARK    7  A    between atoms: C_12  and  C_14
REMARK                            x       y       z     vdW  Elec       q    Type
REMARK                         _______ _______ _______ _____ _____    ______ ____
ROOT
ATOM      1  C   UNL     1      44.851   4.755  11.344  0.00  0.00    +0.000 A 
ATOM      2  C   UNL     1      45.233   3.721  12.210  0.00  0.00    +0.000 A 
ATOM      3  C   UNL     1      46.083   3.980  13.282  0.00  0.00    +0.000 A 
ATOM      4  C   UNL     1      46.561   5.273  13.500  0.00  0.00    +0.000 A 
ATOM      5  C   UNL     1      46.195   6.324  12.645  0.00  0.00    +0.000 A 
ATOM      6  C   UNL     1      45.321   6.056  11.583  0.00  0.00    +0.000 A 
ENDROOT
BRANCH   1   7
ATOM      7  C   UNL     1      43.974   4.471  10.157  0.00  0.00    +0.000 C 
BRANCH   7  10
ATOM      8  O   UNL     1      45.917   5.138   8.285  0.00  0.00    +0.000 OA
ATOM      9  C   UNL     1      45.551   3.969   8.365  0.00  0.00    +0.000 C 
ATOM     10  N   UNL     1      44.565   3.543   9.231  0.00  0.00    +0.000 N 
ATOM     11  H   UNL     1      44.364   2.549   9.274  0.00  0.00    +0.000 HD
BRANCH   9  12
ATOM     12  C   UNL     1      46.184   2.903   7.525  0.00  0.00    +0.000 A 
ATOM     13  C   UNL     1      46.588   3.215   6.231  0.00  0.00    +0.000 A 
ATOM     14  C   UNL     1      47.224   2.233   5.483  0.00  0.00    +0.000 A 
ATOM     15  C   UNL     1      47.428   0.977   6.048  0.00  0.00    +0.000 A 
ATOM     16  C   UNL     1      46.977   0.750   7.341  0.00  0.00    +0.000 A 
ATOM     17  N   UNL     1      46.361   1.682   8.103  0.00  0.00    +0.000 NA
ENDBRANCH   9  12
ENDBRANCH   7  10
ENDBRANCH   1   7
BRANCH   5  18
ATOM     18  C   UNL     1      46.770   7.711  12.830  0.00  0.00    +0.000 C 
BRANCH  18  19
ATOM     19  C   UNL     1      48.127   7.833  12.138  0.00  0.00    +0.000 C 
BRANCH  19  20
ATOM     20  C   UNL     1      49.279   8.086  13.081  0.00  0.00    +0.000 C 
ATOM     21  O   UNL     1      50.437   7.838  12.745  0.00  0.00    +0.000 OA
BRANCH  20  22
ATOM     22  C   UNL     1      49.001   8.641  14.407  0.00  0.00    +0.000 A 
ATOM     23  C   UNL     1      48.900  10.001  14.635  0.00  0.00    +0.000 A 
ATOM     24  O   UNL     1      48.610  10.270  15.931  0.00  0.00    +0.000 OA
ATOM     25  C   UNL     1      48.522   9.080  16.581  0.00  0.00    +0.000 A 
ATOM     26  N   UNL     1      48.229   8.981  17.900  0.00  0.00    +0.000 NA
ATOM     27  C   UNL     1      48.187   7.763  18.328  0.00  0.00    +0.000 A 
ATOM     28  N   UNL     1      48.416   6.649  17.558  0.00  0.00    +0.000 N 
ATOM     29  C   UNL     1      48.728   6.711  16.219  0.00  0.00    +0.000 A 
ATOM     30  O   UNL     1      48.948   5.688  15.581  0.00  0.00    +0.000 OA
ATOM     31  C   UNL     1      48.768   8.051  15.689  0.00  0.00    +0.000 A 
ATOM     32  H   UNL     1      48.378   5.724  17.961  0.00  0.00    +0.000 HD
ENDBRANCH  20  22
ENDBRANCH  19  20
ENDBRANCH  18  19
ENDBRANCH   5  18
TORSDOF 7
ENDMDL
MODEL 6
REMARK VINA RESULT:    -7.898      1.579      2.164
REMARK INTER + INTRA:         -11.965
REMARK INTER:                 -11.297
REMARK INTRA:                  -0.668
REMARK UNBOUND:                -0.835
REMARK  Name = 
REMARK  7 active torsions:
REMARK  status: ('A' for Active; 'I' for Inactive)
REMARK    1  A    between atoms: C_2  and  C_25
REMARK    2  A    between atoms: N_3  and  C_4
REMARK    3  A    between atoms: C_4  and  C_5
REMARK    4  A    between atoms: C_9  and  C_10
REMARK    5  A    between atoms: C_10  and  C_11
REMARK    6  A    between atoms: C_11  and  C_12
REMARK    7  A    between atoms: C_12  and  C_14
REMARK                            x       y       z     vdW  Elec       q    Type
REMARK                         _______ _______ _______ _____ _____    ______ ____
ROOT
ATOM      1  C   UNL     1      45.973   7.087  12.176  0.00  0.00    +0.000 A 
ATOM      2  C   UNL     1      46.195   8.470  12.184  0.00  0.00    +0.000 A 
ATOM      3  C   UNL     1      47.062   9.038  13.114  0.00  0.00    +0.000 A 
ATOM      4  C   UNL     1      47.716   8.230  14.046  0.00  0.00    +0.000 A 
ATOM      5  C   UNL     1      47.508   6.843  14.059  0.00  0.00    +0.000 A 
ATOM      6  C   UNL     1      46.650   6.280  13.104  0.00  0.00    +0.000 A 
ENDROOT
BRANCH   1   7
ATOM      7  C   UNL     1      45.000   6.476  11.207  0.00  0.00    +0.000 C 
BRANCH   7  10
ATOM      8  O   UNL     1      43.632   4.418   9.935  0.00  0.00    +0.000 OA
ATOM      9  C   UNL     1      44.834   4.548   9.721  0.00  0.00    +0.000 C 
ATOM     10  N   UNL     1      45.610   5.511  10.333  0.00  0.00    +0.000 N 
ATOM     11  H   UNL     1      46.584   5.586  10.055  0.00  0.00    +0.000 HD
BRANCH   9  12
ATOM     12  C   UNL     1      45.543   3.667   8.740  0.00  0.00    +0.000 A 
ATOM     13  C   UNL     1      45.598   2.297   8.981  0.00  0.00    +0.000 A 
ATOM     14  C   UNL     1      46.210   1.485   8.035  0.00  0.00    +0.000 A 
ATOM     15  C   UNL     1      46.750   2.065   6.891  0.00  0.00    +0.000 A 
ATOM     16  C   UNL     1      46.664   3.443   6.742  0.00  0.00    +0.000 A 
ATOM     17  N   UNL     1      46.070   4.266   7.636  0.00  0.00    +0.000 NA
ENDBRANCH   9  12
ENDBRANCH   7  10
ENDBRANCH   1   7
BRANCH   5  18
ATOM     18  C   UNL     1      48.153   5.971  15.114  0.00  0.00    +0.000 C 
BRANCH  18  19
ATOM     19  C   UNL     1      47.359   4.681  15.313  0.00  0.00    +0.000 C 
BRANCH  19  20
ATOM     20  C   UNL     1      47.504   4.072  16.687  0.00  0.00    +0.000 C 
ATOM     21  O   UNL     1      46.578   3.447  17.203  0.00  0.00    +0.000 OA
BRANCH  20  22
ATOM     22  C   UNL     1      48.772   4.230  17.401  0.00  0.00    +0.000 A 
ATOM     23  C   UNL     1      49.030   5.310  18.225  0.00  0.00    +0.000 A 
ATOM     24  O   UNL     1      50.256   5.222  18.796  0.00  0.00    +0.000 OA
ATOM     25  C   UNL     1      50.830   4.075  18.346  0.00  0.00    +0.000 A 
ATOM     26  N   UNL     1      52.062   3.667  18.732  0.00  0.00    +0.000 NA
ATOM     27  C   UNL     1      52.426   2.549  18.198  0.00  0.00    +0.000 A 
ATOM     28  N   UNL     1      51.671   1.815  17.315  0.00  0.00    +0.000 N 
ATOM     29  C   UNL     1      50.420   2.204  16.892  0.00  0.00    +0.000 A 
ATOM     30  O   UNL     1      49.797   1.526  16.083  0.00  0.00    +0.000 OA
ATOM     31  C   UNL     1      49.961   3.438  17.477  0.00  0.00    +0.000 A 
ATOM     32  H   UNL     1      52.022   0.953  16.925  0.00  0.00    +0.000 HD
ENDBRANCH  20  22
ENDBRANCH  19  20
ENDBRANCH  18  19
ENDBRANCH   5  18
TORSDOF 7
ENDMDL
MODEL 7
REMARK VINA RESULT:    -7.649      2.583      3.873
REMARK INTER + INTRA:         -11.615
REMARK INTER:                 -10.331
REMARK INTRA:                  -1.283
REMARK UNBOUND:                -0.835
REMARK  Name = 
REMARK  7 active torsions:
REMARK  status: ('A' for Active; 'I' for Inactive)
REMARK    1  A    between atoms: C_2  and  C_25
REMARK    2  A    between atoms: N_3  and  C_4
REMARK    3  A    between atoms: C_4  and  C_5
REMARK    4  A    between atoms: C_9  and  C_10
REMARK    5  A    between atoms: C_10  and  C_11
REMARK    6  A    between atoms: C_11  and  C_12
REMARK    7  A    between atoms: C_12  and  C_14
REMARK                            x       y       z     vdW  Elec       q    Type
REMARK                         _______ _______ _______ _____ _____    ______ ____
ROOT
ATOM      1  C   UNL     1      47.940   7.590  12.649  0.00  0.00    +0.000 A 
ATOM      2  C   UNL     1      48.920   8.128  11.804  0.00  0.00    +0.000 A 
ATOM      3  C   UNL     1      50.218   8.325  12.269  0.00  0.00    +0.000 A 
ATOM      4  C   UNL     1      50.551   7.986  13.581  0.00  0.00    +0.000 A 
ATOM      5  C   UNL     1      49.586   7.448  14.447  0.00  0.00    +0.000 A 
ATOM      6  C   UNL     1      48.289   7.234  13.961  0.00  0.00    +0.000 A 
ENDROOT
BRANCH   1   7
ATOM      7  C   UNL     1      46.526   7.422  12.168  0.00  0.00    +0.000 C 
BRANCH   7  10
ATOM      8  O   UNL     1      44.046   6.441  11.386  0.00  0.00    +0.000 OA
ATOM      9  C   UNL     1      45.056   5.834  11.042  0.00  0.00    +0.000 C 
ATOM     10  N   UNL     1      46.330   6.215  11.412  0.00  0.00    +0.000 N 
ATOM     11  H   UNL     1      47.113   5.689  11.036  0.00  0.00    +0.000 HD
BRANCH   9  12
ATOM     12  C   UNL     1      44.969   4.629  10.158  0.00  0.00    +0.000 A 
ATOM     13  C   UNL     1      45.514   4.689   8.879  0.00  0.00    +0.000 A 
ATOM     14  C   UNL     1      45.475   3.547   8.090  0.00  0.00    +0.000 A 
ATOM     15  C   UNL     1      44.890   2.391   8.600  0.00  0.00    +0.000 A 
ATOM     16  C   UNL     1      44.356   2.427   9.881  0.00  0.00    +0.000 A 
ATOM     17  N   UNL     1      44.381   3.517  10.681  0.00  0.00    +0.000 NA
ENDBRANCH   9  12
ENDBRANCH   7  10
ENDBRANCH   1   7
BRANCH   5  18
ATOM     18  C   UNL     1      49.920   7.151  15.892  0.00  0.00    +0.000 C 
BRANCH  18  19
ATOM     19  C   UNL     1      48.729   7.458  16.799  0.00  0.00    +0.000 C 
BRANCH  19  20
ATOM     20  C   UNL     1      48.293   6.296  17.659  0.00  0.00    +0.000 C 
ATOM     21  O   UNL     1      47.832   6.481  18.785  0.00  0.00    +0.000 OA
BRANCH  20  22
ATOM     22  C   UNL     1      48.419   4.937  17.131  0.00  0.00    +0.000 A 
ATOM     23  C   UNL     1      47.486   4.385  16.272  0.00  0.00    +0.000 A 
ATOM     24  O   UNL     1      47.832   3.130  15.897  0.00  0.00    +0.000 OA
ATOM     25  C   UNL     1      49.005   2.833  16.515  0.00  0.00    +0.000 A 
ATOM     26  N   UNL     1      49.646   1.651  16.349  0.00  0.00    +0.000 NA
ATOM     27  C   UNL     1      50.748   1.565  17.017  0.00  0.00    +0.000 A 
ATOM     28  N   UNL     1      51.254   2.547  17.833  0.00  0.00    +0.000 N 
ATOM     29  C   UNL     1      50.625   3.754  18.035  0.00  0.00    +0.000 A 
ATOM     30  O   UNL     1      51.105   4.589  18.794  0.00  0.00    +0.000 OA
ATOM     31  C   UNL     1      49.399   3.907  17.294  0.00  0.00    +0.000 A 
ATOM     32  H   UNL     1      52.117   2.409  18.337  0.00  0.00    +0.000 HD
ENDBRANCH  20  22
ENDBRANCH  19  20
ENDBRANCH  18  19
ENDBRANCH   5  18
TORSDOF 7
ENDMDL
MODEL 8
REMARK VINA RESULT:    -7.349      4.932      8.292
REMARK INTER + INTRA:         -11.192
REMARK INTER:                 -10.067
REMARK INTRA:                  -1.125
REMARK UNBOUND:                -0.835
REMARK  Name = 
REMARK  7 active torsions:
REMARK  status: ('A' for Active; 'I' for Inactive)
REMARK    1  A    between atoms: C_2  and  C_25
REMARK    2  A    between atoms: N_3  and  C_4
REMARK    3  A    between atoms: C_4  and  C_5
REMARK    4  A    between atoms: C_9  and  C_10
REMARK    5  A    between atoms: C_10  and  C_11
REMARK    6  A    between atoms: C_11  and  C_12
REMARK    7  A    between atoms: C_12  and  C_14
REMARK                            x       y       z     vdW  Elec       q    Type
REMARK                         _______ _______ _______ _____ _____    ______ ____
ROOT
ATOM      1  C   UNL     1      49.085   8.182  12.307  0.00  0.00    +0.000 A 
ATOM      2  C   UNL     1      48.433   9.399  12.067  0.00  0.00    +0.000 A 
ATOM      3  C   UNL     1      47.042   9.454  12.015  0.00  0.00    +0.000 A 
ATOM      4  C   UNL     1      46.288   8.294  12.201  0.00  0.00    +0.000 A 
ATOM      5  C   UNL     1      46.918   7.063  12.439  0.00  0.00    +0.000 A 
ATOM      6  C   UNL     1      48.318   7.024  12.511  0.00  0.00    +0.000 A 
ENDROOT
BRANCH   1   7
ATOM      7  C   UNL     1      50.586   8.109  12.314  0.00  0.00    +0.000 C 
BRANCH   7  10
ATOM      8  O   UNL     1      52.776   8.859  10.777  0.00  0.00    +0.000 OA
ATOM      9  C   UNL     1      52.231   7.784  10.543  0.00  0.00    +0.000 C 
ATOM     10  N   UNL     1      51.115   7.339  11.221  0.00  0.00    +0.000 N 
ATOM     11  H   UNL     1      50.762   6.412  11.002  0.00  0.00    +0.000 HD
BRANCH   9  12
ATOM     12  C   UNL     1      52.773   6.855   9.501  0.00  0.00    +0.000 A 
ATOM     13  C   UNL     1      52.316   6.971   8.191  0.00  0.00    +0.000 A 
ATOM     14  C   UNL     1      52.867   6.141   7.224  0.00  0.00    +0.000 A 
ATOM     15  C   UNL     1      53.844   5.223   7.596  0.00  0.00    +0.000 A 
ATOM     16  C   UNL     1      54.228   5.166   8.929  0.00  0.00    +0.000 A 
ATOM     17  N   UNL     1      53.720   5.961   9.898  0.00  0.00    +0.000 NA
ENDBRANCH   9  12
ENDBRANCH   7  10
ENDBRANCH   1   7
BRANCH   5  18
ATOM     18  C   UNL     1      46.112   5.789  12.565  0.00  0.00    +0.000 C 
BRANCH  18  19
ATOM     19  C   UNL     1      44.630   6.102  12.764  0.00  0.00    +0.000 C 
BRANCH  19  20
ATOM     20  C   UNL     1      43.751   5.694  11.606  0.00  0.00    +0.000 C 
ATOM     21  O   UNL     1      42.898   6.459  11.160  0.00  0.00    +0.000 OA
BRANCH  20  22
ATOM     22  C   UNL     1      43.935   4.369  11.011  0.00  0.00    +0.000 A 
ATOM     23  C   UNL     1      43.297   3.242  11.497  0.00  0.00    +0.000 A 
ATOM     24  O   UNL     1      43.601   2.142  10.767  0.00  0.00    +0.000 OA
ATOM     25  C   UNL     1      44.456   2.531   9.785  0.00  0.00    +0.000 A 
ATOM     26  N   UNL     1      44.953   1.677   8.858  0.00  0.00    +0.000 NA
ATOM     27  C   UNL     1      45.743   2.242   8.008  0.00  0.00    +0.000 A 
ATOM     28  N   UNL     1      46.080   3.573   8.009  0.00  0.00    +0.000 N 
ATOM     29  C   UNL     1      45.605   4.468   8.941  0.00  0.00    +0.000 A 
ATOM     30  O   UNL     1      45.956   5.643   8.914  0.00  0.00    +0.000 OA
ATOM     31  C   UNL     1      44.701   3.889   9.902  0.00  0.00    +0.000 A 
ATOM     32  H   UNL     1      46.715   3.948   7.320  0.00  0.00    +0.000 HD
ENDBRANCH  20  22
ENDBRANCH  19  20
ENDBRANCH  18  19
ENDBRANCH   5  18
TORSDOF 7
ENDMDL
MODEL 9
REMARK VINA RESULT:    -7.346      3.588      9.098
REMARK INTER + INTRA:         -11.186
REMARK INTER:                 -10.098
REMARK INTRA:                  -1.088
REMARK UNBOUND:                -0.835
REMARK  Name = 
REMARK  7 active torsions:
REMARK  status: ('A' for Active; 'I' for Inactive)
REMARK    1  A    between atoms: C_2  and  C_25
REMARK    2  A    between atoms: N_3  and  C_4
REMARK    3  A    between atoms: C_4  and  C_5
REMARK    4  A    between atoms: C_9  and  C_10
REMARK    5  A    between atoms: C_10  and  C_11
REMARK    6  A    between atoms: C_11  and  C_12
REMARK    7  A    between atoms: C_12  and  C_14
REMARK                            x       y       z     vdW  Elec       q    Type
REMARK                         _______ _______ _______ _____ _____    ______ ____
ROOT
ATOM      1  C   UNL     1      48.260   4.898  17.887  0.00  0.00    +0.000 A 
ATOM      2  C   UNL     1      47.889   5.713  18.964  0.00  0.00    +0.000 A 
ATOM      3  C   UNL     1      47.875   7.099  18.826  0.00  0.00    +0.000 A 
ATOM      4  C   UNL     1      48.231   7.685  17.610  0.00  0.00    +0.000 A 
ATOM      5  C   UNL     1      48.609   6.889  16.518  0.00  0.00    +0.000 A 
ATOM      6  C   UNL     1      48.598   5.496  16.662  0.00  0.00    +0.000 A 
ENDROOT
BRANCH   1   7
ATOM      7  C   UNL     1      48.325   3.405  18.046  0.00  0.00    +0.000 C 
BRANCH   7  10
ATOM      8  O   UNL     1      49.811   1.970  16.186  0.00  0.00    +0.000 OA
ATOM      9  C   UNL     1      50.327   2.251  17.264  0.00  0.00    +0.000 C 
ATOM     10  N   UNL     1      49.662   2.923  18.269  0.00  0.00    +0.000 N 
ATOM     11  H   UNL     1      50.181   3.164  19.107  0.00  0.00    +0.000 HD
BRANCH   9  12
ATOM     12  C   UNL     1      51.752   1.894  17.553  0.00  0.00    +0.000 A 
ATOM     13  C   UNL     1      52.640   2.904  17.914  0.00  0.00    +0.000 A 
ATOM     14  C   UNL     1      53.945   2.551  18.233  0.00  0.00    +0.000 A 
ATOM     15  C   UNL     1      54.319   1.212  18.175  0.00  0.00    +0.000 A 
ATOM     16  C   UNL     1      53.371   0.274  17.789  0.00  0.00    +0.000 A 
ATOM     17  N   UNL     1      52.090   0.577  17.477  0.00  0.00    +0.000 NA
ENDBRANCH   9  12
ENDBRANCH   7  10
ENDBRANCH   1   7
BRANCH   5  18
ATOM     18  C   UNL     1      49.070   7.519  15.221  0.00  0.00    +0.000 C 
BRANCH  18  19
ATOM     19  C   UNL     1      48.621   6.686  14.023  0.00  0.00    +0.000 C 
BRANCH  19  20
ATOM     20  C   UNL     1      47.253   7.048  13.496  0.00  0.00    +0.000 C 
ATOM     21  O   UNL     1      46.962   8.217  13.243  0.00  0.00    +0.000 OA
BRANCH  20  22
ATOM     22  C   UNL     1      46.272   5.983  13.281  0.00  0.00    +0.000 A 
ATOM     23  C   UNL     1      46.375   4.746  13.892  0.00  0.00    +0.000 A 
ATOM     24  O   UNL     1      45.337   3.939  13.562  0.00  0.00    +0.000 OA
ATOM     25  C   UNL     1      44.534   4.637  12.718  0.00  0.00    +0.000 A 
ATOM     26  N   UNL     1      43.389   4.129  12.201  0.00  0.00    +0.000 NA
ATOM     27  C   UNL     1      42.766   4.951  11.425  0.00  0.00    +0.000 A 
ATOM     28  N   UNL     1      43.188   6.222  11.120  0.00  0.00    +0.000 N 
ATOM     29  C   UNL     1      44.351   6.767  11.616  0.00  0.00    +0.000 A 
ATOM     30  O   UNL     1      44.697   7.898  11.293  0.00  0.00    +0.000 OA
ATOM     31  C   UNL     1      45.074   5.894  12.505  0.00  0.00    +0.000 A 
ATOM     32  H   UNL     1      42.656   6.809  10.495  0.00  0.00    +0.000 HD
ENDBRANCH  20  22
ENDBRANCH  19  20
ENDBRANCH  18  19
ENDBRANCH   5  18
TORSDOF 7
ENDMDL
