MODEL 1
REMARK VINA RESULT:    -8.052      0.000      0.000
REMARK INTER + INTRA:         -11.802
REMARK INTER:                 -11.346
REMARK INTRA:                  -0.455
REMARK UNBOUND:                -0.455
REMARK  Name = 
REMARK  8 active torsions:
REMARK  status: ('A' for Active; 'I' for Inactive)
REMARK    1  A    between atoms: C_1  and  N_2
REMARK    2  A    between atoms: N_2  and  C_3
REMARK    3  A    between atoms: N_2  and  C_24
REMARK    4  A    between atoms: C_3  and  C_4
REMARK    5  A    between atoms: C_7  and  C_8
REMARK    6  A    between atoms: C_8  and  N_9
REMARK    7  A    between atoms: C_10  and  C_12
REMARK    8  A    between atoms: C_24  and  C_25
REMARK                            x       y       z     vdW  Elec       q    Type
REMARK                         _______ _______ _______ _____ _____    ______ ____
ROOT
ATOM      1  C   UNL     1      45.648   3.499   7.979  0.00  0.00    +0.000 A 
ATOM      2  C   UNL     1      45.851   4.732   8.621  0.00  0.00    +0.000 A 
ATOM      3  C   UNL     1      45.465   4.919   9.951  0.00  0.00    +0.000 A 
ATOM      4  C   UNL     1      44.859   3.881  10.666  0.00  0.00    +0.000 A 
ATOM      5  C   UNL     1      44.631   2.658  10.019  0.00  0.00    +0.000 A 
ATOM      6  C   UNL     1      45.037   2.464   8.695  0.00  0.00    +0.000 A 
ENDROOT
BRANCH   1   7
ATOM      7  C   UNL     1      46.087   3.302   6.540  0.00  0.00    +0.000 C 
BRANCH   7   9
ATOM      8  C   UNL     1      47.746   1.663   7.243  0.00  0.00    +0.000 C 
ATOM      9  N   UNL     1      46.709   1.993   6.254  0.00  0.00    +0.000 NA
BRANCH   9  10
ATOM     10  C   UNL     1      47.313   2.037   4.895  0.00  0.00    +0.000 C 
BRANCH  10  11
ATOM     11  C   UNL     1      46.828   0.939   3.962  0.00  0.00    +0.000 A 
ATOM     12  C   UNL     1      45.830   1.205   3.026  0.00  0.00    +0.000 A 
ATOM     13  C   UNL     1      45.333   0.157   2.257  0.00  0.00    +0.000 A 
ATOM     14  C   UNL     1      45.846  -1.122   2.435  0.00  0.00    +0.000 A 
ATOM     15  C   UNL     1      46.848  -1.300   3.374  0.00  0.00    +0.000 A 
ATOM     16  N   UNL     1      47.350  -0.305   4.137  0.00  0.00    +0.000 NA
ENDBRANCH  10  11
ENDBRANCH   9  10
ENDBRANCH   7   9
ENDBRANCH   1   7
BRANCH   4  17
ATOM     17  C   UNL     1      44.408   4.088  12.088  0.00  0.00    +0.000 C 
BRANCH  17  18
ATOM     18  N   UNL     1      45.363   4.882  12.820  0.00  0.00    +0.000 N 
ATOM     19  C   UNL     1      46.382   4.295  13.524  0.00  0.00    +0.000 C 
ATOM     20  O   UNL     1      46.557   3.080  13.520  0.00  0.00    +0.000 OA
ATOM     21  H   UNL     1      45.114   5.849  13.004  0.00  0.00    +0.000 HD
BRANCH  19  22
ATOM     22  C   UNL     1      47.293   5.196  14.242  0.00  0.00    +0.000 A 
ATOM     23  C   UNL     1      47.925   6.223  13.552  0.00  0.00    +0.000 A 
ATOM     24  S   UNL     1      48.924   7.195  14.531  0.00  0.00    +0.000 S 
ATOM     25  C   UNL     1      48.589   6.252  15.903  0.00  0.00    +0.000 A 
ATOM     26  N   UNL     1      49.165   6.535  17.104  0.00  0.00    +0.000 NA
ATOM     27  C   UNL     1      48.845   5.722  18.054  0.00  0.00    +0.000 A 
ATOM     28  N   UNL     1      47.996   4.654  17.915  0.00  0.00    +0.000 N 
ATOM     29  C   UNL     1      47.368   4.346  16.732  0.00  0.00    +0.000 A 
ATOM     30  O   UNL     1      46.582   3.408  16.655  0.00  0.00    +0.000 OA
ATOM     31  C   UNL     1      47.705   5.221  15.627  0.00  0.00    +0.000 A 
ATOM     32  H   UNL     1      47.776   4.063  18.704  0.00  0.00    +0.000 HD
ENDBRANCH  19  22
ENDBRANCH  17  18
ENDBRANCH   4  17
TORSDOF 7
ENDMDL
MODEL 2
REMARK VINA RESULT:    -7.997      3.027      5.499
REMARK INTER + INTRA:         -11.724
REMARK INTER:                 -10.853
REMARK INTRA:                  -0.871
REMARK UNBOUND:                -0.455
REMARK  Name = 
REMARK  8 active torsions:
REMARK  status: ('A' for Active; 'I' for Inactive)
REMARK    1  A    between atoms: C_1  and  N_2
REMARK    2  A    between atoms: N_2  and  C_3
REMARK    3  A    between atoms: N_2  and  C_24
REMARK    4  A    between atoms: C_3  and  C_4
REMARK    5  A    between atoms: C_7  and  C_8
REMARK    6  A    between atoms: C_8  and  N_9
REMARK    7  A    between atoms: C_10  and  C_12
REMARK    8  A    between atoms: C_24  and  C_25
REMARK                            x       y       z     vdW  Elec       q    Type
REMARK                         _______ _______ _______ _____ _____    ______ ____
ROOT
ATOM      1  C   UNL     1      46.034   4.649  12.895  0.00  0.00    +0.000 A 
ATOM      2  C   UNL     1      46.542   5.862  12.406  0.00  0.00    +0.000 A 
ATOM      3  C   UNL     1      47.435   6.624  13.165  0.00  0.00    +0.000 A 
ATOM      4  C   UNL     1      47.830   6.193  14.437  0.00  0.00    +0.000 A 
ATOM      5  C   UNL     1      47.303   4.995  14.938  0.00  0.00    +0.000 A 
ATOM      6  C   UNL     1      46.427   4.222  14.169  0.00  0.00    +0.000 A 
ENDROOT
BRANCH   1   7
ATOM      7  C   UNL     1      45.079   3.822  12.054  0.00  0.00    +0.000 C 
BRANCH   7   9
ATOM      8  C   UNL     1      43.251   5.293  11.402  0.00  0.00    +0.000 C 
ATOM      9  N   UNL     1      44.436   4.553  10.943  0.00  0.00    +0.000 NA
BRANCH   9  10
ATOM     10  C   UNL     1      44.039   3.578   9.894  0.00  0.00    +0.000 C 
BRANCH  10  11
ATOM     11  C   UNL     1      45.166   3.183   8.951  0.00  0.00    +0.000 A 
ATOM     12  C   UNL     1      45.767   4.143   8.138  0.00  0.00    +0.000 A 
ATOM     13  C   UNL     1      46.722   3.736   7.212  0.00  0.00    +0.000 A 
ATOM     14  C   UNL     1      47.056   2.389   7.125  0.00  0.00    +0.000 A 
ATOM     15  C   UNL     1      46.424   1.502   7.979  0.00  0.00    +0.000 A 
ATOM     16  N   UNL     1      45.493   1.864   8.887  0.00  0.00    +0.000 NA
ENDBRANCH  10  11
ENDBRANCH   9  10
ENDBRANCH   7   9
ENDBRANCH   1   7
BRANCH   4  17
ATOM     17  C   UNL     1      48.763   7.027  15.275  0.00  0.00    +0.000 C 
BRANCH  17  18
ATOM     18  N   UNL     1      49.843   6.227  15.795  0.00  0.00    +0.000 N 
ATOM     19  C   UNL     1      49.843   5.793  17.095  0.00  0.00    +0.000 C 
ATOM     20  O   UNL     1      48.904   6.021  17.854  0.00  0.00    +0.000 OA
ATOM     21  H   UNL     1      50.704   6.210  15.257  0.00  0.00    +0.000 HD
BRANCH  19  22
ATOM     22  C   UNL     1      50.995   4.991  17.524  0.00  0.00    +0.000 A 
ATOM     23  C   UNL     1      52.126   5.628  18.019  0.00  0.00    +0.000 A 
ATOM     24  S   UNL     1      53.361   4.559  18.502  0.00  0.00    +0.000 S 
ATOM     25  C   UNL     1      52.452   3.206  18.022  0.00  0.00    +0.000 A 
ATOM     26  N   UNL     1      52.956   1.947  18.142  0.00  0.00    +0.000 NA
ATOM     27  C   UNL     1      52.170   1.016  17.715  0.00  0.00    +0.000 A 
ATOM     28  N   UNL     1      50.923   1.228  17.184  0.00  0.00    +0.000 N 
ATOM     29  C   UNL     1      50.361   2.477  17.070  0.00  0.00    +0.000 A 
ATOM     30  O   UNL     1      49.226   2.626  16.629  0.00  0.00    +0.000 OA
ATOM     31  C   UNL     1      51.209   3.562  17.524  0.00  0.00    +0.000 A 
ATOM     32  H   UNL     1      50.353   0.452  16.880  0.00  0.00    +0.000 HD
ENDBRANCH  19  22
ENDBRANCH  17  18
ENDBRANCH   4  17
TORSDOF 7
ENDMDL
MODEL 3
REMARK VINA RESULT:    -7.962      2.949      5.068
REMARK INTER + INTRA:         -11.675
REMARK INTER:                 -10.697
REMARK INTRA:                  -0.979
REMARK UNBOUND:                -0.455
REMARK  Name = 
REMARK  8 active torsions:
REMARK  status: ('A' for Active; 'I' for Inactive)
REMARK    1  A    between atoms: C_1  and  N_2
REMARK    2  A    between atoms: N_2  and  C_3
REMARK    3  A    between atoms: N_2  and  C_24
REMARK    4  A    between atoms: C_3  and  C_4
REMARK    5  A    between atoms: C_7  and  C_8
REMARK    6  A    between atoms: C_8  and  N_9
REMARK    7  A    between atoms: C_10  and  C_12
REMARK    8  A    between atoms: C_24  and  C_25
REMARK                            x       y       z     vdW  Elec       q    Type
REMARK                         _______ _______ _______ _____ _____    ______ ____
ROOT
ATOM      1  C   UNL     1      45.940   4.582  12.690  0.00  0.00    +0.000 A 
ATOM      2  C   UNL     1      46.214   5.760  11.977  0.00  0.00    +0.000 A 
ATOM      3  C   UNL     1      47.109   6.711  12.479  0.00  0.00    +0.000 A 
ATOM      4  C   UNL     1      47.740   6.508  13.711  0.00  0.00    +0.000 A 
ATOM      5  C   UNL     1      47.448   5.346  14.437  0.00  0.00    +0.000 A 
ATOM      6  C   UNL     1      46.570   4.384  13.925  0.00  0.00    +0.000 A 
ENDROOT
BRANCH   1   7
ATOM      7  C   UNL     1      44.982   3.550  12.127  0.00  0.00    +0.000 C 
BRANCH   7   9
ATOM      8  C   UNL     1      42.894   4.479  11.284  0.00  0.00    +0.000 C 
ATOM      9  N   UNL     1      44.233   3.985  10.930  0.00  0.00    +0.000 NA
BRANCH   9  10
ATOM     10  C   UNL     1      44.108   2.832   9.999  0.00  0.00    +0.000 C 
BRANCH  10  11
ATOM     11  C   UNL     1      45.220   2.742   8.966  0.00  0.00    +0.000 A 
ATOM     12  C   UNL     1      45.590   3.870   8.235  0.00  0.00    +0.000 A 
ATOM     13  C   UNL     1      46.537   3.736   7.225  0.00  0.00    +0.000 A 
ATOM     14  C   UNL     1      47.093   2.487   6.974  0.00  0.00    +0.000 A 
ATOM     15  C   UNL     1      46.683   1.420   7.754  0.00  0.00    +0.000 A 
ATOM     16  N   UNL     1      45.766   1.517   8.741  0.00  0.00    +0.000 NA
ENDBRANCH  10  11
ENDBRANCH   9  10
ENDBRANCH   7   9
ENDBRANCH   1   7
BRANCH   4  17
ATOM     17  C   UNL     1      48.676   7.545  14.274  0.00  0.00    +0.000 C 
BRANCH  17  18
ATOM     18  N   UNL     1      48.622   7.560  15.714  0.00  0.00    +0.000 N 
ATOM     19  C   UNL     1      49.601   6.965  16.467  0.00  0.00    +0.000 C 
ATOM     20  O   UNL     1      50.587   6.443  15.952  0.00  0.00    +0.000 OA
ATOM     21  H   UNL     1      47.731   7.795  16.140  0.00  0.00    +0.000 HD
BRANCH  19  22
ATOM     22  C   UNL     1      49.445   7.031  17.925  0.00  0.00    +0.000 A 
ATOM     23  C   UNL     1      49.628   8.243  18.579  0.00  0.00    +0.000 A 
ATOM     24  S   UNL     1      49.381   8.159  20.263  0.00  0.00    +0.000 S 
ATOM     25  C   UNL     1      49.070   6.491  20.188  0.00  0.00    +0.000 A 
ATOM     26  N   UNL     1      48.806   5.778  21.318  0.00  0.00    +0.000 NA
ATOM     27  C   UNL     1      48.615   4.516  21.120  0.00  0.00    +0.000 A 
ATOM     28  N   UNL     1      48.658   3.903  19.894  0.00  0.00    +0.000 N 
ATOM     29  C   UNL     1      48.892   4.584  18.724  0.00  0.00    +0.000 A 
ATOM     30  O   UNL     1      48.881   4.010  17.640  0.00  0.00    +0.000 OA
ATOM     31  C   UNL     1      49.126   6.005  18.892  0.00  0.00    +0.000 A 
ATOM     32  H   UNL     1      48.487   2.912  19.807  0.00  0.00    +0.000 HD
ENDBRANCH  19  22
ENDBRANCH  17  18
ENDBRANCH   4  17
TORSDOF 7
ENDMDL
MODEL 4
REMARK VINA RESULT:    -7.412      3.847     10.323
REMARK INTER + INTRA:         -10.901
REMARK INTER:                  -9.341
REMARK INTRA:                  -1.559
REMARK UNBOUND:                -0.455
REMARK  Name = 
REMARK  8 active torsions:
REMARK  status: ('A' for Active; 'I' for Inactive)
REMARK    1  A    between atoms: C_1  and  N_2
REMARK    2  A    between atoms: N_2  and  C_3
REMARK    3  A    between atoms: N_2  and  C_24
REMARK    4  A    between atoms: C_3  and  C_4
REMARK    5  A    between atoms: C_7  and  C_8
REMARK    6  A    between atoms: C_8  and  N_9
REMARK    7  A    between atoms: C_10  and  C_12
REMARK    8  A    between atoms: C_24  and  C_25
REMARK                            x       y       z     vdW  Elec       q    Type
REMARK                         _______ _______ _______ _____ _____    ______ ____
ROOT
ATOM      1  C   UNL     1      49.351   7.903  16.065  0.00  0.00    +0.000 A 
ATOM      2  C   UNL     1      49.504   6.806  15.202  0.00  0.00    +0.000 A 
ATOM      3  C   UNL     1      48.939   6.816  13.923  0.00  0.00    +0.000 A 
ATOM      4  C   UNL     1      48.200   7.919  13.484  0.00  0.00    +0.000 A 
ATOM      5  C   UNL     1      48.023   9.004  14.353  0.00  0.00    +0.000 A 
ATOM      6  C   UNL     1      48.607   9.003  15.625  0.00  0.00    +0.000 A 
ENDROOT
BRANCH   1   7
ATOM      7  C   UNL     1      49.984   7.888  17.444  0.00  0.00    +0.000 C 
BRANCH   7   9
ATOM      8  C   UNL     1      49.080   8.242  19.677  0.00  0.00    +0.000 C 
ATOM      9  N   UNL     1      49.126   7.342  18.515  0.00  0.00    +0.000 NA
BRANCH   9  10
ATOM     10  C   UNL     1      49.663   6.019  18.931  0.00  0.00    +0.000 C 
BRANCH  10  11
ATOM     11  C   UNL     1      49.046   4.838  18.199  0.00  0.00    +0.000 A 
ATOM     12  C   UNL     1      49.841   3.758  17.817  0.00  0.00    +0.000 A 
ATOM     13  C   UNL     1      49.272   2.740  17.058  0.00  0.00    +0.000 A 
ATOM     14  C   UNL     1      47.930   2.821  16.706  0.00  0.00    +0.000 A 
ATOM     15  C   UNL     1      47.206   3.919  17.138  0.00  0.00    +0.000 A 
ATOM     16  N   UNL     1      47.728   4.923  17.874  0.00  0.00    +0.000 NA
ENDBRANCH  10  11
ENDBRANCH   9  10
ENDBRANCH   7   9
ENDBRANCH   1   7
BRANCH   4  17
ATOM     17  C   UNL     1      47.558   7.920  12.121  0.00  0.00    +0.000 C 
BRANCH  17  18
ATOM     18  N   UNL     1      46.876   6.675  11.872  0.00  0.00    +0.000 N 
ATOM     19  C   UNL     1      45.509   6.589  11.934  0.00  0.00    +0.000 C 
ATOM     20  O   UNL     1      44.807   7.574  12.150  0.00  0.00    +0.000 OA
ATOM     21  H   UNL     1      47.436   5.829  11.900  0.00  0.00    +0.000 HD
BRANCH  19  22
ATOM     22  C   UNL     1      44.917   5.272  11.671  0.00  0.00    +0.000 A 
ATOM     23  C   UNL     1      44.216   4.623  12.679  0.00  0.00    +0.000 A 
ATOM     24  S   UNL     1      43.566   3.121  12.207  0.00  0.00    +0.000 S 
ATOM     25  C   UNL     1      44.237   3.258  10.653  0.00  0.00    +0.000 A 
ATOM     26  N   UNL     1      44.076   2.268   9.732  0.00  0.00    +0.000 NA
ATOM     27  C   UNL     1      44.661   2.490   8.602  0.00  0.00    +0.000 A 
ATOM     28  N   UNL     1      45.388   3.615   8.308  0.00  0.00    +0.000 N 
ATOM     29  C   UNL     1      45.555   4.652   9.193  0.00  0.00    +0.000 A 
ATOM     30  O   UNL     1      46.177   5.662   8.881  0.00  0.00    +0.000 OA
ATOM     31  C   UNL     1      44.928   4.447  10.484  0.00  0.00    +0.000 A 
ATOM     32  H   UNL     1      45.811   3.732   7.398  0.00  0.00    +0.000 HD
ENDBRANCH  19  22
ENDBRANCH  17  18
ENDBRANCH   4  17
TORSDOF 7
ENDMDL
MODEL 5
REMARK VINA RESULT:    -6.965      3.443      5.847
REMARK INTER + INTRA:         -10.271
REMARK INTER:                  -9.771
REMARK INTRA:                  -0.500
REMARK UNBOUND:                -0.455
REMARK  Name = 
REMARK  8 active torsions:
REMARK  status: ('A' for Active; 'I' for Inactive)
REMARK    1  A    between atoms: C_1  and  N_2
REMARK    2  A    between atoms: N_2  and  C_3
REMARK    3  A    between atoms: N_2  and  C_24
REMARK    4  A    between atoms: C_3  and  C_4
REMARK    5  A    between atoms: C_7  and  C_8
REMARK    6  A    between atoms: C_8  and  N_9
REMARK    7  A    between atoms: C_10  and  C_12
REMARK    8  A    between atoms: C_24  and  C_25
REMARK                            x       y       z     vdW  Elec       q    Type
REMARK                         _______ _______ _______ _____ _____    ______ ____
ROOT
ATOM      1  C   UNL     1      46.354   6.492  11.950  0.00  0.00    +0.000 A 
ATOM      2  C   UNL     1      47.497   6.211  12.714  0.00  0.00    +0.000 A 
ATOM      3  C   UNL     1      48.024   7.164  13.591  0.00  0.00    +0.000 A 
ATOM      4  C   UNL     1      47.425   8.422  13.714  0.00  0.00    +0.000 A 
ATOM      5  C   UNL     1      46.299   8.714  12.932  0.00  0.00    +0.000 A 
ATOM      6  C   UNL     1      45.758   7.753  12.071  0.00  0.00    +0.000 A 
ENDROOT
BRANCH   1   7
ATOM      7  C   UNL     1      45.780   5.444  11.014  0.00  0.00    +0.000 C 
BRANCH   7   9
ATOM      8  C   UNL     1      44.542   3.858  12.387  0.00  0.00    +0.000 C 
ATOM      9  N   UNL     1      44.445   4.936  11.393  0.00  0.00    +0.000 NA
BRANCH   9  10
ATOM     10  C   UNL     1      43.762   4.429  10.173  0.00  0.00    +0.000 C 
BRANCH  10  11
ATOM     11  C   UNL     1      44.675   3.686   9.210  0.00  0.00    +0.000 A 
ATOM     12  C   UNL     1      44.881   2.315   9.358  0.00  0.00    +0.000 A 
ATOM     13  C   UNL     1      45.801   1.680   8.529  0.00  0.00    +0.000 A 
ATOM     14  C   UNL     1      46.484   2.424   7.574  0.00  0.00    +0.000 A 
ATOM     15  C   UNL     1      46.211   3.778   7.481  0.00  0.00    +0.000 A 
ATOM     16  N   UNL     1      45.326   4.423   8.271  0.00  0.00    +0.000 NA
ENDBRANCH  10  11
ENDBRANCH   9  10
ENDBRANCH   7   9
ENDBRANCH   1   7
BRANCH   4  17
ATOM     17  C   UNL     1      48.009   9.465  14.630  0.00  0.00    +0.000 C 
BRANCH  17  18
ATOM     18  N   UNL     1      47.711   9.166  16.008  0.00  0.00    +0.000 N 
ATOM     19  C   UNL     1      48.526   9.600  17.022  0.00  0.00    +0.000 C 
ATOM     20  O   UNL     1      49.511  10.303  16.805  0.00  0.00    +0.000 OA
ATOM     21  H   UNL     1      47.037   8.428  16.185  0.00  0.00    +0.000 HD
BRANCH  19  22
ATOM     22  C   UNL     1      48.135   9.233  18.388  0.00  0.00    +0.000 A 
ATOM     23  C   UNL     1      47.866  10.232  19.315  0.00  0.00    +0.000 A 
ATOM     24  S   UNL     1      47.396   9.644  20.843  0.00  0.00    +0.000 S 
ATOM     25  C   UNL     1      47.581   8.032  20.339  0.00  0.00    +0.000 A 
ATOM     26  N   UNL     1      47.358   7.000  21.199  0.00  0.00    +0.000 NA
ATOM     27  C   UNL     1      47.562   5.830  20.693  0.00  0.00    +0.000 A 
ATOM     28  N   UNL     1      47.965   5.597  19.403  0.00  0.00    +0.000 N 
ATOM     29  C   UNL     1      48.175   6.603  18.490  0.00  0.00    +0.000 A 
ATOM     30  O   UNL     1      48.494   6.355  17.333  0.00  0.00    +0.000 OA
ATOM     31  C   UNL     1      47.972   7.940  19.013  0.00  0.00    +0.000 A 
ATOM     32  H   UNL     1      48.094   4.654  19.065  0.00  0.00    +0.000 HD
ENDBRANCH  19  22
ENDBRANCH  17  18
ENDBRANCH   4  17
TORSDOF 7
ENDMDL
MODEL 6
REMARK VINA RESULT:    -6.832      6.250      8.538
REMARK INTER + INTRA:         -10.083
REMARK INTER:                  -9.074
REMARK INTRA:                  -1.009
REMARK UNBOUND:                -0.455
REMARK  Name = 
REMARK  8 active torsions:
REMARK  status: ('A' for Active; 'I' for Inactive)
REMARK    1  A    between atoms: C_1  and  N_2
REMARK    2  A    between atoms: N_2  and  C_3
REMARK    3  A    between atoms: N_2  and  C_24
REMARK    4  A    between atoms: C_3  and  C_4
REMARK    5  A    between atoms: C_7  and  C_8
REMARK    6  A    between atoms: C_8  and  N_9
REMARK    7  A    between atoms: C_10  and  C_12
REMARK    8  A    between atoms: C_24  and  C_25
REMARK                            x       y       z     vdW  Elec       q    Type
REMARK                         _______ _______ _______ _____ _____    ______ ____
ROOT
ATOM      1  C   UNL     1      44.752   9.168  11.596  0.00  0.00    +0.000 A 
ATOM      2  C   UNL     1      45.792   9.004  12.525  0.00  0.00    +0.000 A 
ATOM      3  C   UNL     1      46.141   7.733  12.993  0.00  0.00    +0.000 A 
ATOM      4  C   UNL     1      45.450   6.600  12.549  0.00  0.00    +0.000 A 
ATOM      5  C   UNL     1      44.394   6.765  11.642  0.00  0.00    +0.000 A 
ATOM      6  C   UNL     1      44.059   8.034  11.157  0.00  0.00    +0.000 A 
ENDROOT
BRANCH   1   7
ATOM      7  C   UNL     1      44.394  10.550  11.082  0.00  0.00    +0.000 C 
BRANCH   7   9
ATOM      8  C   UNL     1      43.372  10.771   8.882  0.00  0.00    +0.000 C 
ATOM      9  N   UNL     1      43.128  10.623  10.325  0.00  0.00    +0.000 NA
BRANCH   9  10
ATOM     10  C   UNL     1      42.341  11.784  10.818  0.00  0.00    +0.000 C 
BRANCH  10  11
ATOM     11  C   UNL     1      40.921  11.441  11.240  0.00  0.00    +0.000 A 
ATOM     12  C   UNL     1      40.416  11.915  12.451  0.00  0.00    +0.000 A 
ATOM     13  C   UNL     1      39.152  11.501  12.860  0.00  0.00    +0.000 A 
ATOM     14  C   UNL     1      38.425  10.634  12.053  0.00  0.00    +0.000 A 
ATOM     15  C   UNL     1      38.991  10.222  10.858  0.00  0.00    +0.000 A 
ATOM     16  N   UNL     1      40.214  10.604  10.434  0.00  0.00    +0.000 NA
ENDBRANCH  10  11
ENDBRANCH   9  10
ENDBRANCH   7   9
ENDBRANCH   1   7
BRANCH   4  17
ATOM     17  C   UNL     1      45.797   5.233  13.077  0.00  0.00    +0.000 C 
BRANCH  17  18
ATOM     18  N   UNL     1      46.445   5.326  14.361  0.00  0.00    +0.000 N 
ATOM     19  C   UNL     1      47.145   4.269  14.881  0.00  0.00    +0.000 C 
ATOM     20  O   UNL     1      47.295   3.222  14.258  0.00  0.00    +0.000 OA
ATOM     21  H   UNL     1      46.160   6.090  14.967  0.00  0.00    +0.000 HD
BRANCH  19  22
ATOM     22  C   UNL     1      47.759   4.468  16.200  0.00  0.00    +0.000 A 
ATOM     23  C   UNL     1      47.398   3.640  17.255  0.00  0.00    +0.000 A 
ATOM     24  S   UNL     1      48.221   3.980  18.708  0.00  0.00    +0.000 S 
ATOM     25  C   UNL     1      49.056   5.276  17.995  0.00  0.00    +0.000 A 
ATOM     26  N   UNL     1      49.925   6.032  18.721  0.00  0.00    +0.000 NA
ATOM     27  C   UNL     1      50.469   7.000  18.063  0.00  0.00    +0.000 A 
ATOM     28  N   UNL     1      50.226   7.279  16.742  0.00  0.00    +0.000 N 
ATOM     29  C   UNL     1      49.380   6.529  15.961  0.00  0.00    +0.000 A 
ATOM     30  O   UNL     1      49.219   6.782  14.772  0.00  0.00    +0.000 OA
ATOM     31  C   UNL     1      48.732   5.434  16.657  0.00  0.00    +0.000 A 
ATOM     32  H   UNL     1      50.696   8.046  16.281  0.00  0.00    +0.000 HD
ENDBRANCH  19  22
ENDBRANCH  17  18
ENDBRANCH   4  17
TORSDOF 7
ENDMDL
MODEL 7
REMARK VINA RESULT:    -6.807      5.476     10.156
REMARK INTER + INTRA:         -10.048
REMARK INTER:                  -8.165
REMARK INTRA:                  -1.884
REMARK UNBOUND:                -0.455
REMARK  Name = 
REMARK  8 active torsions:
REMARK  status: ('A' for Active; 'I' for Inactive)
REMARK    1  A    between atoms: C_1  and  N_2
REMARK    2  A    between atoms: N_2  and  C_3
REMARK    3  A    between atoms: N_2  and  C_24
REMARK    4  A    between atoms: C_3  and  C_4
REMARK    5  A    between atoms: C_7  and  C_8
REMARK    6  A    between atoms: C_8  and  N_9
REMARK    7  A    between atoms: C_10  and  C_12
REMARK    8  A    between atoms: C_24  and  C_25
REMARK                            x       y       z     vdW  Elec       q    Type
REMARK                         _______ _______ _______ _____ _____    ______ ____
ROOT
ATOM      1  C   UNL     1      50.063   7.720  17.170  0.00  0.00    +0.000 A 
ATOM      2  C   UNL     1      50.415   6.945  16.054  0.00  0.00    +0.000 A 
ATOM      3  C   UNL     1      49.973   7.289  14.773  0.00  0.00    +0.000 A 
ATOM      4  C   UNL     1      49.159   8.411  14.582  0.00  0.00    +0.000 A 
ATOM      5  C   UNL     1      48.784   9.171  15.699  0.00  0.00    +0.000 A 
ATOM      6  C   UNL     1      49.245   8.839  16.977  0.00  0.00    +0.000 A 
ENDROOT
BRANCH   1   7
ATOM      7  C   UNL     1      50.563   7.346  18.553  0.00  0.00    +0.000 C 
BRANCH   7   9
ATOM      8  C   UNL     1      49.530   7.103  20.745  0.00  0.00    +0.000 C 
ATOM      9  N   UNL     1      49.606   6.578  19.374  0.00  0.00    +0.000 NA
BRANCH   9  10
ATOM     10  C   UNL     1      50.038   5.156  19.408  0.00  0.00    +0.000 C 
BRANCH  10  11
ATOM     11  C   UNL     1      49.305   4.257  18.424  0.00  0.00    +0.000 A 
ATOM     12  C   UNL     1      49.983   3.220  17.784  0.00  0.00    +0.000 A 
ATOM     13  C   UNL     1      49.316   2.480  16.812  0.00  0.00    +0.000 A 
ATOM     14  C   UNL     1      47.995   2.787  16.510  0.00  0.00    +0.000 A 
ATOM     15  C   UNL     1      47.389   3.822  17.202  0.00  0.00    +0.000 A 
ATOM     16  N   UNL     1      48.008   4.559  18.149  0.00  0.00    +0.000 NA
ENDBRANCH  10  11
ENDBRANCH   9  10
ENDBRANCH   7   9
ENDBRANCH   1   7
BRANCH   4  17
ATOM     17  C   UNL     1      48.650   8.766  13.210  0.00  0.00    +0.000 C 
BRANCH  17  18
ATOM     18  N   UNL     1      47.713   7.778  12.737  0.00  0.00    +0.000 N 
ATOM     19  C   UNL     1      46.361   7.964  12.862  0.00  0.00    +0.000 C 
ATOM     20  O   UNL     1      45.890   8.997  13.332  0.00  0.00    +0.000 OA
ATOM     21  H   UNL     1      48.079   6.850  12.545  0.00  0.00    +0.000 HD
BRANCH  19  22
ATOM     22  C   UNL     1      45.497   6.892  12.354  0.00  0.00    +0.000 A 
ATOM     23  C   UNL     1      44.380   7.214  11.594  0.00  0.00    +0.000 A 
ATOM     24  S   UNL     1      43.500   5.859  11.055  0.00  0.00    +0.000 S 
ATOM     25  C   UNL     1      44.549   4.791  11.859  0.00  0.00    +0.000 A 
ATOM     26  N   UNL     1      44.338   3.446  11.825  0.00  0.00    +0.000 NA
ATOM     27  C   UNL     1      45.194   2.755  12.500  0.00  0.00    +0.000 A 
ATOM     28  N   UNL     1      46.247   3.286  13.202  0.00  0.00    +0.000 N 
ATOM     29  C   UNL     1      46.517   4.633  13.242  0.00  0.00    +0.000 A 
ATOM     30  O   UNL     1      47.492   5.069  13.845  0.00  0.00    +0.000 OA
ATOM     31  C   UNL     1      45.575   5.457  12.509  0.00  0.00    +0.000 A 
ATOM     32  H   UNL     1      46.890   2.687  13.700  0.00  0.00    +0.000 HD
ENDBRANCH  19  22
ENDBRANCH  17  18
ENDBRANCH   4  17
TORSDOF 7
ENDMDL
MODEL 8
REMARK VINA RESULT:    -6.682      5.898     10.496
REMARK INTER + INTRA:          -9.871
REMARK INTER:                  -8.269
REMARK INTRA:                  -1.603
REMARK UNBOUND:                -0.455
REMARK  Name = 
REMARK  8 active torsions:
REMARK  status: ('A' for Active; 'I' for Inactive)
REMARK    1  A    between atoms: C_1  and  N_2
REMARK    2  A    between atoms: N_2  and  C_3
REMARK    3  A    between atoms: N_2  and  C_24
REMARK    4  A    between atoms: C_3  and  C_4
REMARK    5  A    between atoms: C_7  and  C_8
REMARK    6  A    between atoms: C_8  and  N_9
REMARK    7  A    between atoms: C_10  and  C_12
REMARK    8  A    between atoms: C_24  and  C_25
REMARK                            x       y       z     vdW  Elec       q    Type
REMARK                         _______ _______ _______ _____ _____    ______ ____
ROOT
ATOM      1  C   UNL     1      50.373   7.496  18.060  0.00  0.00    +0.000 A 
ATOM      2  C   UNL     1      51.063   7.502  16.837  0.00  0.00    +0.000 A 
ATOM      3  C   UNL     1      50.433   7.914  15.659  0.00  0.00    +0.000 A 
ATOM      4  C   UNL     1      49.094   8.319  15.677  0.00  0.00    +0.000 A 
ATOM      5  C   UNL     1      48.395   8.289  16.891  0.00  0.00    +0.000 A 
ATOM      6  C   UNL     1      49.032   7.897  18.074  0.00  0.00    +0.000 A 
ENDROOT
BRANCH   1   7
ATOM      7  C   UNL     1      51.073   7.064  19.335  0.00  0.00    +0.000 C 
BRANCH   7   9
ATOM      8  C   UNL     1      50.948   5.714  21.358  0.00  0.00    +0.000 C 
ATOM      9  N   UNL     1      50.537   5.833  19.951  0.00  0.00    +0.000 NA
BRANCH   9  10
ATOM     10  C   UNL     1      51.034   4.659  19.186  0.00  0.00    +0.000 C 
BRANCH  10  11
ATOM     11  C   UNL     1      49.983   3.996  18.310  0.00  0.00    +0.000 A 
ATOM     12  C   UNL     1      48.632   4.289  18.493  0.00  0.00    +0.000 A 
ATOM     13  C   UNL     1      47.686   3.591  17.749  0.00  0.00    +0.000 A 
ATOM     14  C   UNL     1      48.109   2.627  16.842  0.00  0.00    +0.000 A 
ATOM     15  C   UNL     1      49.469   2.407  16.708  0.00  0.00    +0.000 A 
ATOM     16  N   UNL     1      50.411   3.066  17.415  0.00  0.00    +0.000 NA
ENDBRANCH  10  11
ENDBRANCH   9  10
ENDBRANCH   7   9
ENDBRANCH   1   7
BRANCH   4  17
ATOM     17  C   UNL     1      48.398   8.728  14.406  0.00  0.00    +0.000 C 
BRANCH  17  18
ATOM     18  N   UNL     1      47.394   7.764  14.034  0.00  0.00    +0.000 N 
ATOM     19  C   UNL     1      47.709   6.667  13.274  0.00  0.00    +0.000 C 
ATOM     20  O   UNL     1      48.862   6.433  12.922  0.00  0.00    +0.000 OA
ATOM     21  H   UNL     1      46.424   8.046  14.134  0.00  0.00    +0.000 HD
BRANCH  19  22
ATOM     22  C   UNL     1      46.608   5.753  12.946  0.00  0.00    +0.000 A 
ATOM     23  C   UNL     1      46.736   4.399  13.230  0.00  0.00    +0.000 A 
ATOM     24  S   UNL     1      45.363   3.478  12.817  0.00  0.00    +0.000 S 
ATOM     25  C   UNL     1      44.565   4.845  12.199  0.00  0.00    +0.000 A 
ATOM     26  N   UNL     1      43.324   4.741  11.650  0.00  0.00    +0.000 NA
ATOM     27  C   UNL     1      42.847   5.851  11.195  0.00  0.00    +0.000 A 
ATOM     28  N   UNL     1      43.497   7.058  11.243  0.00  0.00    +0.000 N 
ATOM     29  C   UNL     1      44.738   7.218  11.812  0.00  0.00    +0.000 A 
ATOM     30  O   UNL     1      45.271   8.320  11.875  0.00  0.00    +0.000 OA
ATOM     31  C   UNL     1      45.325   5.996  12.328  0.00  0.00    +0.000 A 
ATOM     32  H   UNL     1      43.062   7.893  10.880  0.00  0.00    +0.000 HD
ENDBRANCH  19  22
ENDBRANCH  17  18
ENDBRANCH   4  17
TORSDOF 7
ENDMDL
MODEL 9
REMARK VINA RESULT:    -6.405      5.906     11.956
REMARK INTER + INTRA:          -9.482
REMARK INTER:                  -8.008
REMARK INTRA:                  -1.474
REMARK UNBOUND:                -0.455
REMARK  Name = 
REMARK  8 active torsions:
REMARK  status: ('A' for Active; 'I' for Inactive)
REMARK    1  A    between atoms: C_1  and  N_2
REMARK    2  A    between atoms: N_2  and  C_3
REMARK    3  A    between atoms: N_2  and  C_24
REMARK    4  A    between atoms: C_3  and  C_4
REMARK    5  A    between atoms: C_7  and  C_8
REMARK    6  A    between atoms: C_8  and  N_9
REMARK    7  A    between atoms: C_10  and  C_12
REMARK    8  A    between atoms: C_24  and  C_25
REMARK                            x       y       z     vdW  Elec       q    Type
REMARK                         _______ _______ _______ _____ _____    ______ ____
ROOT
ATOM      1  C   UNL     1      50.544   5.358  18.133  0.00  0.00    +0.000 A 
ATOM      2  C   UNL     1      51.308   6.007  17.150  0.00  0.00    +0.000 A 
ATOM      3  C   UNL     1      50.693   6.771  16.153  0.00  0.00    +0.000 A 
ATOM      4  C   UNL     1      49.300   6.894  16.112  0.00  0.00    +0.000 A 
ATOM      5  C   UNL     1      48.534   6.225  17.077  0.00  0.00    +0.000 A 
ATOM      6  C   UNL     1      49.150   5.479  18.087  0.00  0.00    +0.000 A 
ENDROOT
BRANCH   1   7
ATOM      7  C   UNL     1      51.223   4.546  19.221  0.00  0.00    +0.000 C 
BRANCH   7   9
ATOM      8  C   UNL     1      53.340   4.882  20.377  0.00  0.00    +0.000 C 
ATOM      9  N   UNL     1      51.952   5.344  20.228  0.00  0.00    +0.000 NA
BRANCH   9  10
ATOM     10  C   UNL     1      51.247   5.229  21.532  0.00  0.00    +0.000 C 
BRANCH  10  11
ATOM     11  C   UNL     1      49.876   5.889  21.559  0.00  0.00    +0.000 A 
ATOM     12  C   UNL     1      48.740   5.130  21.839  0.00  0.00    +0.000 A 
ATOM     13  C   UNL     1      47.491   5.736  21.755  0.00  0.00    +0.000 A 
ATOM     14  C   UNL     1      47.406   7.078  21.402  0.00  0.00    +0.000 A 
ATOM     15  C   UNL     1      48.583   7.765  21.155  0.00  0.00    +0.000 A 
ATOM     16  N   UNL     1      49.810   7.205  21.227  0.00  0.00    +0.000 NA
ENDBRANCH  10  11
ENDBRANCH   9  10
ENDBRANCH   7   9
ENDBRANCH   1   7
BRANCH   4  17
ATOM     17  C   UNL     1      48.631   7.685  15.019  0.00  0.00    +0.000 C 
BRANCH  17  18
ATOM     18  N   UNL     1      47.503   6.967  14.481  0.00  0.00    +0.000 N 
ATOM     19  C   UNL     1      47.652   6.089  13.439  0.00  0.00    +0.000 C 
ATOM     20  O   UNL     1      48.753   5.837  12.957  0.00  0.00    +0.000 OA
ATOM     21  H   UNL     1      46.579   7.313  14.721  0.00  0.00    +0.000 HD
BRANCH  19  22
ATOM     22  C   UNL     1      46.437   5.417  12.962  0.00  0.00    +0.000 A 
ATOM     23  C   UNL     1      46.334   4.036  13.061  0.00  0.00    +0.000 A 
ATOM     24  S   UNL     1      44.853   3.414  12.493  0.00  0.00    +0.000 S 
ATOM     25  C   UNL     1      44.312   4.962  12.048  0.00  0.00    +0.000 A 
ATOM     26  N   UNL     1      43.097   5.135  11.460  0.00  0.00    +0.000 NA
ATOM     27  C   UNL     1      42.824   6.358  11.149  0.00  0.00    +0.000 A 
ATOM     28  N   UNL     1      43.655   7.425  11.378  0.00  0.00    +0.000 N 
ATOM     29  C   UNL     1      44.877   7.304  11.994  0.00  0.00    +0.000 A 
ATOM     30  O   UNL     1      45.575   8.287  12.221  0.00  0.00    +0.000 OA
ATOM     31  C   UNL     1      45.238   5.947  12.352  0.00  0.00    +0.000 A 
ATOM     32  H   UNL     1      43.375   8.361  11.121  0.00  0.00    +0.000 HD
ENDBRANCH  19  22
ENDBRANCH  17  18
ENDBRANCH   4  17
TORSDOF 7
ENDMDL
