MODEL 1
REMARK VINA RESULT:    -8.026      0.000      0.000
REMARK INTER + INTRA:         -12.294
REMARK INTER:                 -11.310
REMARK INTRA:                  -0.984
REMARK UNBOUND:                -0.984
REMARK  Name = 
REMARK  7 active torsions:
REMARK  status: ('A' for Active; 'I' for Inactive)
REMARK    1  A    between atoms: C_2  and  C_4
REMARK    2  A    between atoms: C_7  and  O_8
REMARK    3  A    between atoms: O_8  and  C_9
REMARK    4  A    between atoms: C_9  and  C_10
REMARK    5  A    between atoms: C_10  and  C_11
REMARK    6  A    between atoms: C_15  and  O_16
REMARK    7  A    between atoms: O_16  and  C_17
REMARK                            x       y       z     vdW  Elec       q    Type
REMARK                         _______ _______ _______ _____ _____    ______ ____
ROOT
ATOM      1  C   UNL     1      43.828   3.157  11.865  0.00  0.00    +0.000 C 
ENDROOT
BRANCH   1   2
ATOM      2  O   UNL     1      43.431   3.405  10.514  0.00  0.00    +0.000 OA
BRANCH   2   6
ATOM      3  C   UNL     1      46.399   2.711   7.655  0.00  0.00    +0.000 A 
ATOM      4  C   UNL     1      45.946   4.019   7.848  0.00  0.00    +0.000 A 
ATOM      5  C   UNL     1      44.954   4.289   8.796  0.00  0.00    +0.000 A 
ATOM      6  C   UNL     1      44.400   3.255   9.559  0.00  0.00    +0.000 A 
ATOM      7  C   UNL     1      44.846   1.947   9.351  0.00  0.00    +0.000 A 
ATOM      8  C   UNL     1      45.834   1.672   8.400  0.00  0.00    +0.000 A 
BRANCH   3  10
ATOM      9  N   UNL     1      47.403   3.063   5.464  0.00  0.00    +0.000 N 
ATOM     10  C   UNL     1      47.453   2.394   6.656  0.00  0.00    +0.000 C 
ATOM     11  O   UNL     1      48.349   1.597   6.896  0.00  0.00    +0.000 OA
ATOM     12  H   UNL     1      48.183   2.919   4.836  0.00  0.00    +0.000 HD
ATOM     13  H   UNL     1      46.844   3.895   5.331  0.00  0.00    +0.000 HD
ENDBRANCH   3  10
ENDBRANCH   2   6
ENDBRANCH   1   2
BRANCH   1  14
ATOM     14  C   UNL     1      43.780   4.466  12.651  0.00  0.00    +0.000 C 
BRANCH  14  15
ATOM     15  C   UNL     1      45.154   5.066  12.816  0.00  0.00    +0.000 A 
ATOM     16  C   UNL     1      45.645   5.991  11.887  0.00  0.00    +0.000 A 
ATOM     17  C   UNL     1      46.921   6.536  12.041  0.00  0.00    +0.000 A 
ATOM     18  C   UNL     1      47.729   6.157  13.117  0.00  0.00    +0.000 A 
ATOM     19  C   UNL     1      47.258   5.223  14.036  0.00  0.00    +0.000 A 
ATOM     20  C   UNL     1      45.975   4.685  13.887  0.00  0.00    +0.000 A 
BRANCH  19  21
ATOM     21  O   UNL     1      47.945   4.793  15.143  0.00  0.00    +0.000 OA
BRANCH  21  22
ATOM     22  C   UNL     1      47.246   4.034  16.157  0.00  0.00    +0.000 C 
ATOM     23  C   UNL     1      47.205   4.609  17.587  0.00  0.00    +0.000 C 
ATOM     24  N   UNL     1      47.760   3.361  18.127  0.00  0.00    +0.000 NA
ATOM     25  C   UNL     1      48.060   2.878  16.772  0.00  0.00    +0.000 C 
ATOM     26  H   UNL     1      47.088   2.787  18.635  0.00  0.00    +0.000 HD
ENDBRANCH  21  22
ENDBRANCH  19  21
ENDBRANCH  14  15
ENDBRANCH   1  14
TORSDOF 7
ENDMDL
MODEL 2
REMARK VINA RESULT:    -7.363      1.150      1.568
REMARK INTER + INTRA:         -11.360
REMARK INTER:                 -10.418
REMARK INTRA:                  -0.942
REMARK UNBOUND:                -0.984
REMARK  Name = 
REMARK  7 active torsions:
REMARK  status: ('A' for Active; 'I' for Inactive)
REMARK    1  A    between atoms: C_2  and  C_4
REMARK    2  A    between atoms: C_7  and  O_8
REMARK    3  A    between atoms: O_8  and  C_9
REMARK    4  A    between atoms: C_9  and  C_10
REMARK    5  A    between atoms: C_10  and  C_11
REMARK    6  A    between atoms: C_15  and  O_16
REMARK    7  A    between atoms: O_16  and  C_17
REMARK                            x       y       z     vdW  Elec       q    Type
REMARK                         _______ _______ _______ _____ _____    ______ ____
ROOT
ATOM      1  C   UNL     1      43.717   3.545  11.799  0.00  0.00    +0.000 C 
ENDROOT
BRANCH   1   2
ATOM      2  O   UNL     1      43.431   3.744  10.412  0.00  0.00    +0.000 OA
BRANCH   2   6
ATOM      3  C   UNL     1      46.386   2.725   7.638  0.00  0.00    +0.000 A 
ATOM      4  C   UNL     1      45.820   1.712   8.418  0.00  0.00    +0.000 A 
ATOM      5  C   UNL     1      44.829   2.016   9.356  0.00  0.00    +0.000 A 
ATOM      6  C   UNL     1      44.394   3.335   9.529  0.00  0.00    +0.000 A 
ATOM      7  C   UNL     1      44.974   4.346   8.758  0.00  0.00    +0.000 A 
ATOM      8  C   UNL     1      45.970   4.047   7.821  0.00  0.00    +0.000 A 
BRANCH   3  10
ATOM      9  N   UNL     1      47.394   3.136   5.460  0.00  0.00    +0.000 N 
ATOM     10  C   UNL     1      47.440   2.433   6.632  0.00  0.00    +0.000 C 
ATOM     11  O   UNL     1      48.334   1.628   6.850  0.00  0.00    +0.000 OA
ATOM     12  H   UNL     1      48.175   3.008   4.829  0.00  0.00    +0.000 HD
ATOM     13  H   UNL     1      46.837   3.972   5.349  0.00  0.00    +0.000 HD
ENDBRANCH   3  10
ENDBRANCH   2   6
ENDBRANCH   1   2
BRANCH   1  14
ATOM     14  C   UNL     1      43.760   4.900  12.503  0.00  0.00    +0.000 C 
BRANCH  14  15
ATOM     15  C   UNL     1      45.171   5.422  12.620  0.00  0.00    +0.000 A 
ATOM     16  C   UNL     1      45.671   6.341  11.691  0.00  0.00    +0.000 A 
ATOM     17  C   UNL     1      46.981   6.812  11.801  0.00  0.00    +0.000 A 
ATOM     18  C   UNL     1      47.812   6.364  12.832  0.00  0.00    +0.000 A 
ATOM     19  C   UNL     1      47.329   5.435  13.751  0.00  0.00    +0.000 A 
ATOM     20  C   UNL     1      46.013   4.971  13.646  0.00  0.00    +0.000 A 
BRANCH  19  21
ATOM     21  O   UNL     1      48.038   4.943  14.817  0.00  0.00    +0.000 OA
BRANCH  21  22
ATOM     22  C   UNL     1      48.253   5.788  15.972  0.00  0.00    +0.000 C 
ATOM     23  C   UNL     1      49.629   6.467  16.120  0.00  0.00    +0.000 C 
ATOM     24  N   UNL     1      49.787   5.900  17.466  0.00  0.00    +0.000 NA
ATOM     25  C   UNL     1      48.619   5.032  17.265  0.00  0.00    +0.000 C 
ATOM     26  H   UNL     1      49.680   6.574  18.222  0.00  0.00    +0.000 HD
ENDBRANCH  21  22
ENDBRANCH  19  21
ENDBRANCH  14  15
ENDBRANCH   1  14
TORSDOF 7
ENDMDL
MODEL 3
REMARK VINA RESULT:    -6.955      2.340      3.595
REMARK INTER + INTRA:         -10.786
REMARK INTER:                 -10.045
REMARK INTRA:                  -0.741
REMARK UNBOUND:                -0.984
REMARK  Name = 
REMARK  7 active torsions:
REMARK  status: ('A' for Active; 'I' for Inactive)
REMARK    1  A    between atoms: C_2  and  C_4
REMARK    2  A    between atoms: C_7  and  O_8
REMARK    3  A    between atoms: O_8  and  C_9
REMARK    4  A    between atoms: C_9  and  C_10
REMARK    5  A    between atoms: C_10  and  C_11
REMARK    6  A    between atoms: C_15  and  O_16
REMARK    7  A    between atoms: O_16  and  C_17
REMARK                            x       y       z     vdW  Elec       q    Type
REMARK                         _______ _______ _______ _____ _____    ______ ____
ROOT
ATOM      1  C   UNL     1      43.646   2.913  11.928  0.00  0.00    +0.000 C 
ENDROOT
BRANCH   1   2
ATOM      2  O   UNL     1      43.352   3.326  10.591  0.00  0.00    +0.000 OA
BRANCH   2   6
ATOM      3  C   UNL     1      46.298   2.790   7.675  0.00  0.00    +0.000 A 
ATOM      4  C   UNL     1      45.776   1.664   8.317  0.00  0.00    +0.000 A 
ATOM      5  C   UNL     1      44.790   1.805   9.297  0.00  0.00    +0.000 A 
ATOM      6  C   UNL     1      44.315   3.073   9.651  0.00  0.00    +0.000 A 
ATOM      7  C   UNL     1      44.851   4.197   9.017  0.00  0.00    +0.000 A 
ATOM      8  C   UNL     1      45.841   4.061   8.039  0.00  0.00    +0.000 A 
BRANCH   3  10
ATOM      9  N   UNL     1      47.116   3.312   5.442  0.00  0.00    +0.000 N 
ATOM     10  C   UNL     1      47.346   2.673   6.628  0.00  0.00    +0.000 C 
ATOM     11  O   UNL     1      48.388   2.063   6.825  0.00  0.00    +0.000 OA
ATOM     12  H   UNL     1      47.880   3.316   4.778  0.00  0.00    +0.000 HD
ATOM     13  H   UNL     1      46.403   4.022   5.336  0.00  0.00    +0.000 HD
ENDBRANCH   3  10
ENDBRANCH   2   6
ENDBRANCH   1   2
BRANCH   1  14
ATOM     14  C   UNL     1      43.642   4.135  12.844  0.00  0.00    +0.000 C 
BRANCH  14  15
ATOM     15  C   UNL     1      45.025   4.718  13.000  0.00  0.00    +0.000 A 
ATOM     16  C   UNL     1      45.923   4.187  13.932  0.00  0.00    +0.000 A 
ATOM     17  C   UNL     1      47.198   4.738  14.077  0.00  0.00    +0.000 A 
ATOM     18  C   UNL     1      47.589   5.834  13.301  0.00  0.00    +0.000 A 
ATOM     19  C   UNL     1      46.696   6.381  12.384  0.00  0.00    +0.000 A 
ATOM     20  C   UNL     1      45.422   5.822  12.233  0.00  0.00    +0.000 A 
BRANCH  19  21
ATOM     21  O   UNL     1      46.972   7.436  11.551  0.00  0.00    +0.000 OA
BRANCH  21  22
ATOM     22  C   UNL     1      46.549   8.766  11.932  0.00  0.00    +0.000 C 
ATOM     23  C   UNL     1      46.068   8.979  13.382  0.00  0.00    +0.000 C 
ATOM     24  N   UNL     1      44.803   9.548  12.900  0.00  0.00    +0.000 NA
ATOM     25  C   UNL     1      45.106   9.124  11.526  0.00  0.00    +0.000 C 
ATOM     26  H   UNL     1      44.723  10.557  13.017  0.00  0.00    +0.000 HD
ENDBRANCH  21  22
ENDBRANCH  19  21
ENDBRANCH  14  15
ENDBRANCH   1  14
TORSDOF 7
ENDMDL
MODEL 4
REMARK VINA RESULT:    -6.730      1.713      8.328
REMARK INTER + INTRA:         -10.468
REMARK INTER:                  -9.853
REMARK INTRA:                  -0.615
REMARK UNBOUND:                -0.984
REMARK  Name = 
REMARK  7 active torsions:
REMARK  status: ('A' for Active; 'I' for Inactive)
REMARK    1  A    between atoms: C_2  and  C_4
REMARK    2  A    between atoms: C_7  and  O_8
REMARK    3  A    between atoms: O_8  and  C_9
REMARK    4  A    between atoms: C_9  and  C_10
REMARK    5  A    between atoms: C_10  and  C_11
REMARK    6  A    between atoms: C_15  and  O_16
REMARK    7  A    between atoms: O_16  and  C_17
REMARK                            x       y       z     vdW  Elec       q    Type
REMARK                         _______ _______ _______ _____ _____    ______ ____
ROOT
ATOM      1  C   UNL     1      45.719   6.103  12.427  0.00  0.00    +0.000 C 
ENDROOT
BRANCH   1   2
ATOM      2  O   UNL     1      47.120   5.923  12.653  0.00  0.00    +0.000 OA
BRANCH   2   6
ATOM      3  C   UNL     1      48.131   5.045  16.612  0.00  0.00    +0.000 A 
ATOM      4  C   UNL     1      48.707   6.164  16.005  0.00  0.00    +0.000 A 
ATOM      5  C   UNL     1      48.392   6.488  14.682  0.00  0.00    +0.000 A 
ATOM      6  C   UNL     1      47.501   5.697  13.949  0.00  0.00    +0.000 A 
ATOM      7  C   UNL     1      46.940   4.570  14.555  0.00  0.00    +0.000 A 
ATOM      8  C   UNL     1      47.256   4.239  15.877  0.00  0.00    +0.000 A 
BRANCH   3  10
ATOM      9  N   UNL     1      47.397   4.620  18.895  0.00  0.00    +0.000 N 
ATOM     10  C   UNL     1      48.445   4.675  18.017  0.00  0.00    +0.000 C 
ATOM     11  O   UNL     1      49.582   4.396  18.371  0.00  0.00    +0.000 OA
ATOM     12  H   UNL     1      47.606   4.263  19.819  0.00  0.00    +0.000 HD
ATOM     13  H   UNL     1      46.434   4.592  18.590  0.00  0.00    +0.000 HD
ENDBRANCH   3  10
ENDBRANCH   2   6
ENDBRANCH   1   2
BRANCH   1  14
ATOM     14  C   UNL     1      45.479   6.361  10.941  0.00  0.00    +0.000 C 
BRANCH  14  15
ATOM     15  C   UNL     1      45.215   5.080  10.189  0.00  0.00    +0.000 A 
ATOM     16  C   UNL     1      44.497   4.038  10.787  0.00  0.00    +0.000 A 
ATOM     17  C   UNL     1      44.264   2.851  10.088  0.00  0.00    +0.000 A 
ATOM     18  C   UNL     1      44.754   2.684   8.789  0.00  0.00    +0.000 A 
ATOM     19  C   UNL     1      45.485   3.709   8.193  0.00  0.00    +0.000 A 
ATOM     20  C   UNL     1      45.709   4.901   8.890  0.00  0.00    +0.000 A 
BRANCH  19  21
ATOM     21  O   UNL     1      45.993   3.673   6.919  0.00  0.00    +0.000 OA
BRANCH  21  22
ATOM     22  C   UNL     1      46.543   2.434   6.414  0.00  0.00    +0.000 C 
ATOM     23  C   UNL     1      47.932   2.002   6.926  0.00  0.00    +0.000 C 
ATOM     24  N   UNL     1      48.429   1.891   5.549  0.00  0.00    +0.000 NA
ATOM     25  C   UNL     1      47.219   2.545   5.032  0.00  0.00    +0.000 C 
ATOM     26  H   UNL     1      48.556   0.934   5.223  0.00  0.00    +0.000 HD
ENDBRANCH  21  22
ENDBRANCH  19  21
ENDBRANCH  14  15
ENDBRANCH   1  14
TORSDOF 7
ENDMDL
MODEL 5
REMARK VINA RESULT:    -6.560      2.272      3.685
REMARK INTER + INTRA:         -10.229
REMARK INTER:                  -9.609
REMARK INTRA:                  -0.620
REMARK UNBOUND:                -0.984
REMARK  Name = 
REMARK  7 active torsions:
REMARK  status: ('A' for Active; 'I' for Inactive)
REMARK    1  A    between atoms: C_2  and  C_4
REMARK    2  A    between atoms: C_7  and  O_8
REMARK    3  A    between atoms: O_8  and  C_9
REMARK    4  A    between atoms: C_9  and  C_10
REMARK    5  A    between atoms: C_10  and  C_11
REMARK    6  A    between atoms: C_15  and  O_16
REMARK    7  A    between atoms: O_16  and  C_17
REMARK                            x       y       z     vdW  Elec       q    Type
REMARK                         _______ _______ _______ _____ _____    ______ ____
ROOT
ATOM      1  C   UNL     1      45.189   3.914   8.365  0.00  0.00    +0.000 C 
ENDROOT
BRANCH   1   2
ATOM      2  O   UNL     1      46.541   3.608   8.015  0.00  0.00    +0.000 OA
BRANCH   2   6
ATOM      3  C   UNL     1      47.030   0.836   4.925  0.00  0.00    +0.000 A 
ATOM      4  C   UNL     1      47.134   0.393   6.247  0.00  0.00    +0.000 A 
ATOM      5  C   UNL     1      46.975   1.292   7.305  0.00  0.00    +0.000 A 
ATOM      6  C   UNL     1      46.717   2.644   7.058  0.00  0.00    +0.000 A 
ATOM      7  C   UNL     1      46.630   3.086   5.734  0.00  0.00    +0.000 A 
ATOM      8  C   UNL     1      46.792   2.190   4.672  0.00  0.00    +0.000 A 
BRANCH   3  10
ATOM      9  N   UNL     1      46.717  -1.368   3.938  0.00  0.00    +0.000 N 
ATOM     10  C   UNL     1      47.192  -0.095   3.778  0.00  0.00    +0.000 C 
ATOM     11  O   UNL     1      47.694   0.264   2.722  0.00  0.00    +0.000 OA
ATOM     12  H   UNL     1      46.734  -1.959   3.117  0.00  0.00    +0.000 HD
ATOM     13  H   UNL     1      46.081  -1.621   4.682  0.00  0.00    +0.000 HD
ENDBRANCH   3  10
ENDBRANCH   2   6
ENDBRANCH   1   2
BRANCH   1  14
ATOM     14  C   UNL     1      44.797   3.111   9.604  0.00  0.00    +0.000 C 
BRANCH  14  15
ATOM     15  C   UNL     1      44.477   4.012  10.772  0.00  0.00    +0.000 A 
ATOM     16  C   UNL     1      43.182   4.059  11.302  0.00  0.00    +0.000 A 
ATOM     17  C   UNL     1      42.891   4.903  12.376  0.00  0.00    +0.000 A 
ATOM     18  C   UNL     1      43.884   5.717  12.929  0.00  0.00    +0.000 A 
ATOM     19  C   UNL     1      45.170   5.690  12.396  0.00  0.00    +0.000 A 
ATOM     20  C   UNL     1      45.464   4.838  11.326  0.00  0.00    +0.000 A 
BRANCH  19  21
ATOM     21  O   UNL     1      46.231   6.422  12.868  0.00  0.00    +0.000 OA
BRANCH  21  22
ATOM     22  C   UNL     1      47.357   5.731  13.457  0.00  0.00    +0.000 C 
ATOM     23  C   UNL     1      47.084   4.808  14.662  0.00  0.00    +0.000 C 
ATOM     24  N   UNL     1      48.088   5.522  15.463  0.00  0.00    +0.000 NA
ATOM     25  C   UNL     1      48.188   6.576  14.444  0.00  0.00    +0.000 C 
ATOM     26  H   UNL     1      48.952   5.005  15.614  0.00  0.00    +0.000 HD
ENDBRANCH  21  22
ENDBRANCH  19  21
ENDBRANCH  14  15
ENDBRANCH   1  14
TORSDOF 7
ENDMDL
MODEL 6
REMARK VINA RESULT:    -6.532      3.765      5.263
REMARK INTER + INTRA:         -10.189
REMARK INTER:                  -9.670
REMARK INTRA:                  -0.520
REMARK UNBOUND:                -0.984
REMARK  Name = 
REMARK  7 active torsions:
REMARK  status: ('A' for Active; 'I' for Inactive)
REMARK    1  A    between atoms: C_2  and  C_4
REMARK    2  A    between atoms: C_7  and  O_8
REMARK    3  A    between atoms: O_8  and  C_9
REMARK    4  A    between atoms: C_9  and  C_10
REMARK    5  A    between atoms: C_10  and  C_11
REMARK    6  A    between atoms: C_15  and  O_16
REMARK    7  A    between atoms: O_16  and  C_17
REMARK                            x       y       z     vdW  Elec       q    Type
REMARK                         _______ _______ _______ _____ _____    ______ ____
ROOT
ATOM      1  C   UNL     1      43.852   5.207  11.226  0.00  0.00    +0.000 C 
ENDROOT
BRANCH   1   2
ATOM      2  O   UNL     1      43.580   4.875   9.862  0.00  0.00    +0.000 OA
BRANCH   2   6
ATOM      3  C   UNL     1      46.153   2.162   7.995  0.00  0.00    +0.000 A 
ATOM      4  C   UNL     1      45.216   1.677   8.911  0.00  0.00    +0.000 A 
ATOM      5  C   UNL     1      44.338   2.555   9.554  0.00  0.00    +0.000 A 
ATOM      6  C   UNL     1      44.390   3.928   9.294  0.00  0.00    +0.000 A 
ATOM      7  C   UNL     1      45.340   4.411   8.390  0.00  0.00    +0.000 A 
ATOM      8  C   UNL     1      46.223   3.537   7.747  0.00  0.00    +0.000 A 
BRANCH   3  10
ATOM      9  N   UNL     1      48.150   1.834   6.641  0.00  0.00    +0.000 N 
ATOM     10  C   UNL     1      47.098   1.254   7.295  0.00  0.00    +0.000 C 
ATOM     11  O   UNL     1      46.968   0.038   7.328  0.00  0.00    +0.000 OA
ATOM     12  H   UNL     1      48.844   1.203   6.260  0.00  0.00    +0.000 HD
ATOM     13  H   UNL     1      48.429   2.792   6.803  0.00  0.00    +0.000 HD
ENDBRANCH   3  10
ENDBRANCH   2   6
ENDBRANCH   1   2
BRANCH   1  14
ATOM     14  C   UNL     1      45.364   5.221  11.447  0.00  0.00    +0.000 C 
BRANCH  14  15
ATOM     15  C   UNL     1      45.877   6.618  11.696  0.00  0.00    +0.000 A 
ATOM     16  C   UNL     1      47.242   6.851  11.896  0.00  0.00    +0.000 A 
ATOM     17  C   UNL     1      47.708   8.146  12.136  0.00  0.00    +0.000 A 
ATOM     18  C   UNL     1      46.818   9.222  12.190  0.00  0.00    +0.000 A 
ATOM     19  C   UNL     1      45.455   8.997  12.010  0.00  0.00    +0.000 A 
ATOM     20  C   UNL     1      44.990   7.701  11.761  0.00  0.00    +0.000 A 
BRANCH  19  21
ATOM     21  O   UNL     1      44.490   9.972  12.015  0.00  0.00    +0.000 OA
BRANCH  21  22
ATOM     22  C   UNL     1      43.582  10.071  10.893  0.00  0.00    +0.000 C 
ATOM     23  C   UNL     1      43.981  10.992   9.723  0.00  0.00    +0.000 C 
ATOM     24  N   UNL     1      42.707  11.715   9.831  0.00  0.00    +0.000 NA
ATOM     25  C   UNL     1      42.404  11.043  11.101  0.00  0.00    +0.000 C 
ATOM     26  H   UNL     1      42.044  11.513   9.084  0.00  0.00    +0.000 HD
ENDBRANCH  21  22
ENDBRANCH  19  21
ENDBRANCH  14  15
ENDBRANCH   1  14
TORSDOF 7
ENDMDL
MODEL 7
REMARK VINA RESULT:    -6.461      2.880      3.292
REMARK INTER + INTRA:         -10.089
REMARK INTER:                  -9.361
REMARK INTRA:                  -0.728
REMARK UNBOUND:                -0.984
REMARK  Name = 
REMARK  7 active torsions:
REMARK  status: ('A' for Active; 'I' for Inactive)
REMARK    1  A    between atoms: C_2  and  C_4
REMARK    2  A    between atoms: C_7  and  O_8
REMARK    3  A    between atoms: O_8  and  C_9
REMARK    4  A    between atoms: C_9  and  C_10
REMARK    5  A    between atoms: C_10  and  C_11
REMARK    6  A    between atoms: C_15  and  O_16
REMARK    7  A    between atoms: O_16  and  C_17
REMARK                            x       y       z     vdW  Elec       q    Type
REMARK                         _______ _______ _______ _____ _____    ______ ____
ROOT
ATOM      1  C   UNL     1      44.487   4.663  11.285  0.00  0.00    +0.000 C 
ENDROOT
BRANCH   1   2
ATOM      2  O   UNL     1      44.032   3.735  10.297  0.00  0.00    +0.000 OA
BRANCH   2   6
ATOM      3  C   UNL     1      46.711   2.589   7.301  0.00  0.00    +0.000 A 
ATOM      4  C   UNL     1      46.426   3.948   7.462  0.00  0.00    +0.000 A 
ATOM      5  C   UNL     1      45.536   4.368   8.454  0.00  0.00    +0.000 A 
ATOM      6  C   UNL     1      44.915   3.436   9.293  0.00  0.00    +0.000 A 
ATOM      7  C   UNL     1      45.190   2.077   9.117  0.00  0.00    +0.000 A 
ATOM      8  C   UNL     1      46.078   1.652   8.123  0.00  0.00    +0.000 A 
BRANCH   3  10
ATOM      9  N   UNL     1      47.965   2.986   5.251  0.00  0.00    +0.000 N 
ATOM     10  C   UNL     1      47.654   2.112   6.256  0.00  0.00    +0.000 C 
ATOM     11  O   UNL     1      48.163   1.000   6.306  0.00  0.00    +0.000 OA
ATOM     12  H   UNL     1      48.688   2.691   4.608  0.00  0.00    +0.000 HD
ATOM     13  H   UNL     1      47.772   3.976   5.314  0.00  0.00    +0.000 HD
ENDBRANCH   3  10
ENDBRANCH   2   6
ENDBRANCH   1   2
BRANCH   1  14
ATOM     14  C   UNL     1      43.610   5.913  11.243  0.00  0.00    +0.000 C 
BRANCH  14  15
ATOM     15  C   UNL     1      44.382   7.148  11.635  0.00  0.00    +0.000 A 
ATOM     16  C   UNL     1      44.003   8.408  11.158  0.00  0.00    +0.000 A 
ATOM     17  C   UNL     1      44.728   9.546  11.518  0.00  0.00    +0.000 A 
ATOM     18  C   UNL     1      45.848   9.440  12.349  0.00  0.00    +0.000 A 
ATOM     19  C   UNL     1      46.244   8.189  12.813  0.00  0.00    +0.000 A 
ATOM     20  C   UNL     1      45.511   7.051  12.460  0.00  0.00    +0.000 A 
BRANCH  19  21
ATOM     21  O   UNL     1      47.306   7.962  13.652  0.00  0.00    +0.000 OA
BRANCH  21  22
ATOM     22  C   UNL     1      48.631   8.368  13.238  0.00  0.00    +0.000 C 
ATOM     23  C   UNL     1      49.168   7.814  11.903  0.00  0.00    +0.000 C 
ATOM     24  N   UNL     1      50.371   7.304  12.574  0.00  0.00    +0.000 NA
ATOM     25  C   UNL     1      49.782   7.577  13.892  0.00  0.00    +0.000 C 
ATOM     26  H   UNL     1      51.219   7.833  12.379  0.00  0.00    +0.000 HD
ENDBRANCH  21  22
ENDBRANCH  19  21
ENDBRANCH  14  15
ENDBRANCH   1  14
TORSDOF 7
ENDMDL
MODEL 8
REMARK VINA RESULT:    -6.430      2.045      2.550
REMARK INTER + INTRA:         -10.045
REMARK INTER:                  -9.318
REMARK INTRA:                  -0.727
REMARK UNBOUND:                -0.984
REMARK  Name = 
REMARK  7 active torsions:
REMARK  status: ('A' for Active; 'I' for Inactive)
REMARK    1  A    between atoms: C_2  and  C_4
REMARK    2  A    between atoms: C_7  and  O_8
REMARK    3  A    between atoms: O_8  and  C_9
REMARK    4  A    between atoms: C_9  and  C_10
REMARK    5  A    between atoms: C_10  and  C_11
REMARK    6  A    between atoms: C_15  and  O_16
REMARK    7  A    between atoms: O_16  and  C_17
REMARK                            x       y       z     vdW  Elec       q    Type
REMARK                         _______ _______ _______ _____ _____    ______ ____
ROOT
ATOM      1  C   UNL     1      44.201   5.487  11.274  0.00  0.00    +0.000 C 
ENDROOT
BRANCH   1   2
ATOM      2  O   UNL     1      43.660   4.394  10.527  0.00  0.00    +0.000 OA
BRANCH   2   6
ATOM      3  C   UNL     1      46.323   2.704   7.785  0.00  0.00    +0.000 A 
ATOM      4  C   UNL     1      45.628   1.858   8.654  0.00  0.00    +0.000 A 
ATOM      5  C   UNL     1      44.729   2.389   9.584  0.00  0.00    +0.000 A 
ATOM      6  C   UNL     1      44.517   3.769   9.660  0.00  0.00    +0.000 A 
ATOM      7  C   UNL     1      45.226   4.612   8.800  0.00  0.00    +0.000 A 
ATOM      8  C   UNL     1      46.129   4.086   7.870  0.00  0.00    +0.000 A 
BRANCH   3  10
ATOM      9  N   UNL     1      47.539   2.950   5.689  0.00  0.00    +0.000 N 
ATOM     10  C   UNL     1      47.284   2.171   6.784  0.00  0.00    +0.000 C 
ATOM     11  O   UNL     1      47.853   1.100   6.944  0.00  0.00    +0.000 OA
ATOM     12  H   UNL     1      48.273   2.627   5.071  0.00  0.00    +0.000 HD
ATOM     13  H   UNL     1      47.293   3.929   5.650  0.00  0.00    +0.000 HD
ENDBRANCH   3  10
ENDBRANCH   2   6
ENDBRANCH   1   2
BRANCH   1  14
ATOM     14  C   UNL     1      45.109   4.944  12.375  0.00  0.00    +0.000 C 
BRANCH  14  15
ATOM     15  C   UNL     1      46.380   5.748  12.495  0.00  0.00    +0.000 A 
ATOM     16  C   UNL     1      46.789   6.595  11.459  0.00  0.00    +0.000 A 
ATOM     17  C   UNL     1      47.971   7.329  11.573  0.00  0.00    +0.000 A 
ATOM     18  C   UNL     1      48.767   7.219  12.718  0.00  0.00    +0.000 A 
ATOM     19  C   UNL     1      48.378   6.364  13.747  0.00  0.00    +0.000 A 
ATOM     20  C   UNL     1      47.188   5.636  13.635  0.00  0.00    +0.000 A 
BRANCH  19  21
ATOM     21  O   UNL     1      49.059   6.192  14.925  0.00  0.00    +0.000 OA
BRANCH  21  22
ATOM     22  C   UNL     1      48.835   7.121  16.011  0.00  0.00    +0.000 C 
ATOM     23  C   UNL     1      48.483   8.578  15.650  0.00  0.00    +0.000 C 
ATOM     24  N   UNL     1      49.592   9.072  16.477  0.00  0.00    +0.000 NA
ATOM     25  C   UNL     1      50.118   7.709  16.632  0.00  0.00    +0.000 C 
ATOM     26  H   UNL     1      49.304   9.509  17.351  0.00  0.00    +0.000 HD
ENDBRANCH  21  22
ENDBRANCH  19  21
ENDBRANCH  14  15
ENDBRANCH   1  14
TORSDOF 7
ENDMDL
MODEL 9
REMARK VINA RESULT:    -6.213      3.342      7.550
REMARK INTER + INTRA:          -9.739
REMARK INTER:                  -8.996
REMARK INTRA:                  -0.743
REMARK UNBOUND:                -0.984
REMARK  Name = 
REMARK  7 active torsions:
REMARK  status: ('A' for Active; 'I' for Inactive)
REMARK    1  A    between atoms: C_2  and  C_4
REMARK    2  A    between atoms: C_7  and  O_8
REMARK    3  A    between atoms: O_8  and  C_9
REMARK    4  A    between atoms: C_9  and  C_10
REMARK    5  A    between atoms: C_10  and  C_11
REMARK    6  A    between atoms: C_15  and  O_16
REMARK    7  A    between atoms: O_16  and  C_17
REMARK                            x       y       z     vdW  Elec       q    Type
REMARK                         _______ _______ _______ _____ _____    ______ ____
ROOT
ATOM      1  C   UNL     1      45.020   6.017  12.568  0.00  0.00    +0.000 C 
ENDROOT
BRANCH   1   2
ATOM      2  O   UNL     1      45.532   7.265  13.043  0.00  0.00    +0.000 OA
BRANCH   2   6
ATOM      3  C   UNL     1      49.377   8.421  11.882  0.00  0.00    +0.000 A 
ATOM      4  C   UNL     1      49.170   7.104  12.304  0.00  0.00    +0.000 A 
ATOM      5  C   UNL     1      47.897   6.682  12.699  0.00  0.00    +0.000 A 
ATOM      6  C   UNL     1      46.817   7.571  12.682  0.00  0.00    +0.000 A 
ATOM      7  C   UNL     1      47.032   8.890  12.276  0.00  0.00    +0.000 A 
ATOM      8  C   UNL     1      48.305   9.318  11.883  0.00  0.00    +0.000 A 
BRANCH   3  10
ATOM      9  N   UNL     1      50.796  10.170  10.957  0.00  0.00    +0.000 N 
ATOM     10  C   UNL     1      50.717   8.899  11.455  0.00  0.00    +0.000 C 
ATOM     11  O   UNL     1      51.717   8.205  11.575  0.00  0.00    +0.000 OA
ATOM     12  H   UNL     1      51.726  10.522  10.770  0.00  0.00    +0.000 HD
ATOM     13  H   UNL     1      50.056  10.848  11.079  0.00  0.00    +0.000 HD
ENDBRANCH   3  10
ENDBRANCH   2   6
ENDBRANCH   1   2
BRANCH   1  14
ATOM     14  C   UNL     1      44.530   6.189  11.131  0.00  0.00    +0.000 C 
BRANCH  14  15
ATOM     15  C   UNL     1      44.647   4.907  10.346  0.00  0.00    +0.000 A 
ATOM     16  C   UNL     1      44.046   3.730  10.807  0.00  0.00    +0.000 A 
ATOM     17  C   UNL     1      44.167   2.544  10.079  0.00  0.00    +0.000 A 
ATOM     18  C   UNL     1      44.898   2.514   8.888  0.00  0.00    +0.000 A 
ATOM     19  C   UNL     1      45.516   3.675   8.431  0.00  0.00    +0.000 A 
ATOM     20  C   UNL     1      45.386   4.865   9.155  0.00  0.00    +0.000 A 
BRANCH  19  21
ATOM     21  O   UNL     1      46.236   3.776   7.267  0.00  0.00    +0.000 OA
BRANCH  21  22
ATOM     22  C   UNL     1      46.556   2.574   6.530  0.00  0.00    +0.000 C 
ATOM     23  C   UNL     1      47.863   1.837   6.887  0.00  0.00    +0.000 C 
ATOM     24  N   UNL     1      48.301   1.892   5.486  0.00  0.00    +0.000 NA
ATOM     25  C   UNL     1      47.208   2.815   5.154  0.00  0.00    +0.000 C 
ATOM     26  H   UNL     1      48.257   1.000   4.996  0.00  0.00    +0.000 HD
ENDBRANCH  21  22
ENDBRANCH  19  21
ENDBRANCH  14  15
ENDBRANCH   1  14
TORSDOF 7
ENDMDL
