MODEL 1
REMARK VINA RESULT:    -7.560      0.000      0.000
REMARK INTER + INTRA:         -11.688
REMARK INTER:                 -10.654
REMARK INTRA:                  -1.034
REMARK UNBOUND:                -1.034
REMARK  Name = 
REMARK  8 active torsions:
REMARK  status: ('A' for Active; 'I' for Inactive)
REMARK    1  A    between atoms: C_1  and  S_2
REMARK    2  A    between atoms: S_2  and  N_5
REMARK    3  A    between atoms: N_5  and  C_6
REMARK    4  A    between atoms: C_10  and  O_11
REMARK    5  A    between atoms: O_11  and  C_12
REMARK    6  A    between atoms: C_15  and  C_16
REMARK    7  A    between atoms: C_16  and  N_17
REMARK    8  A    between atoms: C_18  and  C_20
REMARK                            x       y       z     vdW  Elec       q    Type
REMARK                         _______ _______ _______ _____ _____    ______ ____
ROOT
ATOM      1  C   UNL     1      49.930   8.067  14.994  0.00  0.00    +0.000 A 
ATOM      2  C   UNL     1      48.651   8.602  15.188  0.00  0.00    +0.000 A 
ATOM      3  C   UNL     1      47.730   8.620  14.139  0.00  0.00    +0.000 A 
ATOM      4  C   UNL     1      48.104   8.183  12.863  0.00  0.00    +0.000 A 
ATOM      5  C   UNL     1      49.416   7.744  12.665  0.00  0.00    +0.000 A 
ATOM      6  F   UNL     1      49.812   7.359  11.443  0.00  0.00    +0.000 F 
ATOM      7  C   UNL     1      50.327   7.682  13.715  0.00  0.00    +0.000 A 
ENDROOT
BRANCH   1   8
ATOM      8  O   UNL     1      50.869   7.921  15.990  0.00  0.00    +0.000 OA
BRANCH   8  13
ATOM      9  C   UNL     1      49.853   4.842  17.646  0.00  0.00    +0.000 A 
ATOM     10  C   UNL     1      51.069   4.190  17.850  0.00  0.00    +0.000 A 
ATOM     11  C   UNL     1      52.258   4.822  17.492  0.00  0.00    +0.000 A 
ATOM     12  C   UNL     1      52.227   6.093  16.916  0.00  0.00    +0.000 A 
ATOM     13  C   UNL     1      51.003   6.708  16.633  0.00  0.00    +0.000 A 
ATOM     14  C   UNL     1      49.816   6.101  17.046  0.00  0.00    +0.000 A 
BRANCH   9  15
ATOM     15  N   UNL     1      48.631   4.239  18.065  0.00  0.00    +0.000 N 
ATOM     16  H   UNL     1      47.984   4.864  18.550  0.00  0.00    +0.000 HD
BRANCH  15  18
ATOM     17  C   UNL     1      47.324   4.621  15.751  0.00  0.00    +0.000 C 
ATOM     18  S   UNL     1      47.770   3.348  16.909  0.00  0.00    +0.000 S 
ATOM     19  O   UNL     1      46.569   2.794  17.493  0.00  0.00    +0.000 OA
ATOM     20  O   UNL     1      48.753   2.499  16.270  0.00  0.00    +0.000 OA
ENDBRANCH  15  18
ENDBRANCH   9  15
ENDBRANCH   8  13
ENDBRANCH   1   8
BRANCH   4  21
ATOM     21  C   UNL     1      47.106   8.151  11.742  0.00  0.00    +0.000 C 
BRANCH  21  22
ATOM     22  N   UNL     1      46.476   6.857  11.632  0.00  0.00    +0.000 N 
ATOM     23  C   UNL     1      45.124   6.698  11.471  0.00  0.00    +0.000 C 
ATOM     24  O   UNL     1      44.356   7.657  11.421  0.00  0.00    +0.000 OA
ATOM     25  H   UNL     1      47.056   6.049  11.839  0.00  0.00    +0.000 HD
BRANCH  23  26
ATOM     26  C   UNL     1      44.636   5.322  11.296  0.00  0.00    +0.000 A 
ATOM     27  C   UNL     1      43.851   4.747  12.288  0.00  0.00    +0.000 A 
ATOM     28  S   UNL     1      43.345   3.160  11.932  0.00  0.00    +0.000 S 
ATOM     29  C   UNL     1      44.192   3.164  10.457  0.00  0.00    +0.000 A 
ATOM     30  N   UNL     1      44.201   2.065   9.656  0.00  0.00    +0.000 NA
ATOM     31  C   UNL     1      44.905   2.194   8.581  0.00  0.00    +0.000 A 
ATOM     32  N   UNL     1      45.595   3.326   8.232  0.00  0.00    +0.000 N 
ATOM     33  C   UNL     1      45.573   4.477   8.985  0.00  0.00    +0.000 A 
ATOM     34  O   UNL     1      46.129   5.500   8.602  0.00  0.00    +0.000 OA
ATOM     35  C   UNL     1      44.826   4.373  10.224  0.00  0.00    +0.000 A 
ATOM     36  H   UNL     1      46.111   3.369   7.366  0.00  0.00    +0.000 HD
ENDBRANCH  23  26
ENDBRANCH  21  22
ENDBRANCH   4  21
TORSDOF 7
ENDMDL
MODEL 2
REMARK VINA RESULT:    -7.499      2.427      8.408
REMARK INTER + INTRA:         -11.602
REMARK INTER:                 -10.561
REMARK INTRA:                  -1.040
REMARK UNBOUND:                -1.034
REMARK  Name = 
REMARK  8 active torsions:
REMARK  status: ('A' for Active; 'I' for Inactive)
REMARK    1  A    between atoms: C_1  and  S_2
REMARK    2  A    between atoms: S_2  and  N_5
REMARK    3  A    between atoms: N_5  and  C_6
REMARK    4  A    between atoms: C_10  and  O_11
REMARK    5  A    between atoms: O_11  and  C_12
REMARK    6  A    between atoms: C_15  and  C_16
REMARK    7  A    between atoms: C_16  and  N_17
REMARK    8  A    between atoms: C_18  and  C_20
REMARK                            x       y       z     vdW  Elec       q    Type
REMARK                         _______ _______ _______ _____ _____    ______ ____
ROOT
ATOM      1  C   UNL     1      44.749   6.519  11.379  0.00  0.00    +0.000 A 
ATOM      2  C   UNL     1      45.929   5.905  11.816  0.00  0.00    +0.000 A 
ATOM      3  C   UNL     1      46.845   6.616  12.593  0.00  0.00    +0.000 A 
ATOM      4  C   UNL     1      46.634   7.972  12.870  0.00  0.00    +0.000 A 
ATOM      5  C   UNL     1      45.499   8.592  12.344  0.00  0.00    +0.000 A 
ATOM      6  F   UNL     1      45.293   9.900  12.560  0.00  0.00    +0.000 F 
ATOM      7  C   UNL     1      44.558   7.881  11.605  0.00  0.00    +0.000 A 
ENDROOT
BRANCH   1   8
ATOM      8  O   UNL     1      43.747   5.872  10.692  0.00  0.00    +0.000 OA
BRANCH   8  13
ATOM      9  C   UNL     1      44.684   3.141   8.474  0.00  0.00    +0.000 A 
ATOM     10  C   UNL     1      44.486   2.017   9.275  0.00  0.00    +0.000 A 
ATOM     11  C   UNL     1      43.961   2.167  10.557  0.00  0.00    +0.000 A 
ATOM     12  C   UNL     1      43.654   3.439  11.040  0.00  0.00    +0.000 A 
ATOM     13  C   UNL     1      43.935   4.573  10.268  0.00  0.00    +0.000 A 
ATOM     14  C   UNL     1      44.405   4.417   8.963  0.00  0.00    +0.000 A 
BRANCH   9  15
ATOM     15  N   UNL     1      45.160   3.001   7.137  0.00  0.00    +0.000 N 
ATOM     16  H   UNL     1      44.747   3.648   6.462  0.00  0.00    +0.000 HD
BRANCH  15  18
ATOM     17  C   UNL     1      46.946   2.764   5.147  0.00  0.00    +0.000 C 
ATOM     18  S   UNL     1      46.839   2.968   6.910  0.00  0.00    +0.000 S 
ATOM     19  O   UNL     1      47.411   1.810   7.559  0.00  0.00    +0.000 OA
ATOM     20  O   UNL     1      47.294   4.306   7.226  0.00  0.00    +0.000 OA
ENDBRANCH  15  18
ENDBRANCH   9  15
ENDBRANCH   8  13
ENDBRANCH   1   8
BRANCH   4  21
ATOM     21  C   UNL     1      47.588   8.731  13.747  0.00  0.00    +0.000 C 
BRANCH  21  22
ATOM     22  N   UNL     1      47.828   8.037  14.991  0.00  0.00    +0.000 N 
ATOM     23  C   UNL     1      48.917   7.231  15.195  0.00  0.00    +0.000 C 
ATOM     24  O   UNL     1      49.759   7.038  14.320  0.00  0.00    +0.000 OA
ATOM     25  H   UNL     1      47.070   8.040  15.667  0.00  0.00    +0.000 HD
BRANCH  23  26
ATOM     26  C   UNL     1      49.070   6.653  16.538  0.00  0.00    +0.000 A 
ATOM     27  C   UNL     1      49.689   7.398  17.534  0.00  0.00    +0.000 A 
ATOM     28  S   UNL     1      49.772   6.603  19.039  0.00  0.00    +0.000 S 
ATOM     29  C   UNL     1      49.022   5.214  18.405  0.00  0.00    +0.000 A 
ATOM     30  N   UNL     1      48.818   4.117  19.183  0.00  0.00    +0.000 NA
ATOM     31  C   UNL     1      48.266   3.123  18.570  0.00  0.00    +0.000 A 
ATOM     32  N   UNL     1      47.893   3.131  17.251  0.00  0.00    +0.000 N 
ATOM     33  C   UNL     1      48.033   4.234  16.441  0.00  0.00    +0.000 A 
ATOM     34  O   UNL     1      47.609   4.238  15.290  0.00  0.00    +0.000 OA
ATOM     35  C   UNL     1      48.684   5.367  17.071  0.00  0.00    +0.000 A 
ATOM     36  H   UNL     1      47.446   2.327  16.837  0.00  0.00    +0.000 HD
ENDBRANCH  23  26
ENDBRANCH  21  22
ENDBRANCH   4  21
TORSDOF 7
ENDMDL
MODEL 3
REMARK VINA RESULT:    -7.175      2.050      2.924
REMARK INTER + INTRA:         -11.145
REMARK INTER:                 -10.108
REMARK INTRA:                  -1.037
REMARK UNBOUND:                -1.034
REMARK  Name = 
REMARK  8 active torsions:
REMARK  status: ('A' for Active; 'I' for Inactive)
REMARK    1  A    between atoms: C_1  and  S_2
REMARK    2  A    between atoms: S_2  and  N_5
REMARK    3  A    between atoms: N_5  and  C_6
REMARK    4  A    between atoms: C_10  and  O_11
REMARK    5  A    between atoms: O_11  and  C_12
REMARK    6  A    between atoms: C_15  and  C_16
REMARK    7  A    between atoms: C_16  and  N_17
REMARK    8  A    between atoms: C_18  and  C_20
REMARK                            x       y       z     vdW  Elec       q    Type
REMARK                         _______ _______ _______ _____ _____    ______ ____
ROOT
ATOM      1  C   UNL     1      49.570   8.046  15.946  0.00  0.00    +0.000 A 
ATOM      2  C   UNL     1      50.401   7.571  14.925  0.00  0.00    +0.000 A 
ATOM      3  C   UNL     1      49.992   7.646  13.592  0.00  0.00    +0.000 A 
ATOM      4  C   UNL     1      48.713   8.116  13.272  0.00  0.00    +0.000 A 
ATOM      5  C   UNL     1      47.860   8.493  14.312  0.00  0.00    +0.000 A 
ATOM      6  F   UNL     1      46.615   8.908  14.037  0.00  0.00    +0.000 F 
ATOM      7  C   UNL     1      48.276   8.463  15.640  0.00  0.00    +0.000 A 
ENDROOT
BRANCH   1   8
ATOM      8  O   UNL     1      49.927   8.100  17.275  0.00  0.00    +0.000 OA
BRANCH   8  13
ATOM      9  C   UNL     1      48.215   5.431  19.064  0.00  0.00    +0.000 A 
ATOM     10  C   UNL     1      47.622   6.110  20.128  0.00  0.00    +0.000 A 
ATOM     11  C   UNL     1      47.736   7.496  20.212  0.00  0.00    +0.000 A 
ATOM     12  C   UNL     1      48.456   8.196  19.243  0.00  0.00    +0.000 A 
ATOM     13  C   UNL     1      49.123   7.505  18.225  0.00  0.00    +0.000 A 
ATOM     14  C   UNL     1      48.959   6.124  18.109  0.00  0.00    +0.000 A 
BRANCH   9  15
ATOM     15  N   UNL     1      48.055   4.021  18.927  0.00  0.00    +0.000 N 
ATOM     16  H   UNL     1      47.511   3.575  19.668  0.00  0.00    +0.000 HD
BRANCH  15  18
ATOM     17  C   UNL     1      48.958   2.566  16.860  0.00  0.00    +0.000 C 
ATOM     18  S   UNL     1      47.519   3.443  17.427  0.00  0.00    +0.000 S 
ATOM     19  O   UNL     1      47.248   4.543  16.531  0.00  0.00    +0.000 OA
ATOM     20  O   UNL     1      46.501   2.461  17.738  0.00  0.00    +0.000 OA
ENDBRANCH  15  18
ENDBRANCH   9  15
ENDBRANCH   8  13
ENDBRANCH   1   8
BRANCH   4  21
ATOM     21  C   UNL     1      48.282   8.247  11.840  0.00  0.00    +0.000 C 
BRANCH  21  22
ATOM     22  N   UNL     1      47.574   7.071  11.391  0.00  0.00    +0.000 N 
ATOM     23  C   UNL     1      46.211   7.028  11.260  0.00  0.00    +0.000 C 
ATOM     24  O   UNL     1      45.499   7.992  11.529  0.00  0.00    +0.000 OA
ATOM     25  H   UNL     1      48.114   6.213  11.325  0.00  0.00    +0.000 HD
BRANCH  23  26
ATOM     26  C   UNL     1      45.638   5.787  10.718  0.00  0.00    +0.000 A 
ATOM     27  C   UNL     1      45.817   5.484   9.374  0.00  0.00    +0.000 A 
ATOM     28  S   UNL     1      45.114   4.005   8.901  0.00  0.00    +0.000 S 
ATOM     29  C   UNL     1      44.505   3.734  10.466  0.00  0.00    +0.000 A 
ATOM     30  N   UNL     1      43.759   2.631  10.741  0.00  0.00    +0.000 NA
ATOM     31  C   UNL     1      43.336   2.562  11.959  0.00  0.00    +0.000 A 
ATOM     32  N   UNL     1      43.600   3.495  12.929  0.00  0.00    +0.000 N 
ATOM     33  C   UNL     1      44.391   4.598  12.710  0.00  0.00    +0.000 A 
ATOM     34  O   UNL     1      44.680   5.366  13.621  0.00  0.00    +0.000 OA
ATOM     35  C   UNL     1      44.861   4.743  11.345  0.00  0.00    +0.000 A 
ATOM     36  H   UNL     1      43.256   3.371  13.870  0.00  0.00    +0.000 HD
ENDBRANCH  23  26
ENDBRANCH  21  22
ENDBRANCH   4  21
TORSDOF 7
ENDMDL
MODEL 4
REMARK VINA RESULT:    -7.166      1.467      1.758
REMARK INTER + INTRA:         -11.133
REMARK INTER:                 -10.080
REMARK INTRA:                  -1.052
REMARK UNBOUND:                -1.034
REMARK  Name = 
REMARK  8 active torsions:
REMARK  status: ('A' for Active; 'I' for Inactive)
REMARK    1  A    between atoms: C_1  and  S_2
REMARK    2  A    between atoms: S_2  and  N_5
REMARK    3  A    between atoms: N_5  and  C_6
REMARK    4  A    between atoms: C_10  and  O_11
REMARK    5  A    between atoms: O_11  and  C_12
REMARK    6  A    between atoms: C_15  and  C_16
REMARK    7  A    between atoms: C_16  and  N_17
REMARK    8  A    between atoms: C_18  and  C_20
REMARK                            x       y       z     vdW  Elec       q    Type
REMARK                         _______ _______ _______ _____ _____    ______ ____
ROOT
ATOM      1  C   UNL     1      49.447   8.393  15.425  0.00  0.00    +0.000 A 
ATOM      2  C   UNL     1      50.088   7.629  14.443  0.00  0.00    +0.000 A 
ATOM      3  C   UNL     1      49.491   7.445  13.194  0.00  0.00    +0.000 A 
ATOM      4  C   UNL     1      48.210   7.949  12.943  0.00  0.00    +0.000 A 
ATOM      5  C   UNL     1      47.545   8.625  13.969  0.00  0.00    +0.000 A 
ATOM      6  F   UNL     1      46.300   9.082  13.769  0.00  0.00    +0.000 F 
ATOM      7  C   UNL     1      48.150   8.851  15.202  0.00  0.00    +0.000 A 
ENDROOT
BRANCH   1   8
ATOM      8  O   UNL     1      50.000   8.707  16.646  0.00  0.00    +0.000 OA
BRANCH   8  13
ATOM      9  C   UNL     1      49.012   5.775  18.566  0.00  0.00    +0.000 A 
ATOM     10  C   UNL     1      50.025   5.681  19.520  0.00  0.00    +0.000 A 
ATOM     11  C   UNL     1      51.019   6.656  19.570  0.00  0.00    +0.000 A 
ATOM     12  C   UNL     1      51.008   7.710  18.655  0.00  0.00    +0.000 A 
ATOM     13  C   UNL     1      50.041   7.755  17.644  0.00  0.00    +0.000 A 
ATOM     14  C   UNL     1      49.013   6.811  17.633  0.00  0.00    +0.000 A 
BRANCH   9  15
ATOM     15  N   UNL     1      47.952   4.822  18.541  0.00  0.00    +0.000 N 
ATOM     16  H   UNL     1      47.025   5.202  18.747  0.00  0.00    +0.000 HD
BRANCH  15  18
ATOM     17  C   UNL     1      49.267   2.776  17.407  0.00  0.00    +0.000 C 
ATOM     18  S   UNL     1      47.843   3.816  17.182  0.00  0.00    +0.000 S 
ATOM     19  O   UNL     1      48.004   4.588  15.971  0.00  0.00    +0.000 OA
ATOM     20  O   UNL     1      46.666   3.003  17.402  0.00  0.00    +0.000 OA
ENDBRANCH  15  18
ENDBRANCH   9  15
ENDBRANCH   8  13
ENDBRANCH   1   8
BRANCH   4  21
ATOM     21  C   UNL     1      47.581   7.799  11.588  0.00  0.00    +0.000 C 
BRANCH  21  22
ATOM     22  N   UNL     1      46.853   6.556  11.477  0.00  0.00    +0.000 N 
ATOM     23  C   UNL     1      45.486   6.487  11.536  0.00  0.00    +0.000 C 
ATOM     24  O   UNL     1      44.788   7.485  11.698  0.00  0.00    +0.000 OA
ATOM     25  H   UNL     1      47.403   5.703  11.514  0.00  0.00    +0.000 HD
BRANCH  23  26
ATOM     26  C   UNL     1      44.882   5.162  11.330  0.00  0.00    +0.000 A 
ATOM     27  C   UNL     1      44.117   4.598  12.343  0.00  0.00    +0.000 A 
ATOM     28  S   UNL     1      43.468   3.073  11.948  0.00  0.00    +0.000 S 
ATOM     29  C   UNL     1      44.221   3.088  10.423  0.00  0.00    +0.000 A 
ATOM     30  N   UNL     1      44.096   2.033   9.574  0.00  0.00    +0.000 NA
ATOM     31  C   UNL     1      44.741   2.163   8.463  0.00  0.00    +0.000 A 
ATOM     32  N   UNL     1      45.494   3.256   8.122  0.00  0.00    +0.000 N 
ATOM     33  C   UNL     1      45.608   4.366   8.927  0.00  0.00    +0.000 A 
ATOM     34  O   UNL     1      46.217   5.363   8.555  0.00  0.00    +0.000 OA
ATOM     35  C   UNL     1      44.932   4.256  10.206  0.00  0.00    +0.000 A 
ATOM     36  H   UNL     1      45.958   3.305   7.227  0.00  0.00    +0.000 HD
ENDBRANCH  23  26
ENDBRANCH  21  22
ENDBRANCH   4  21
TORSDOF 7
ENDMDL
MODEL 5
REMARK VINA RESULT:    -6.767      3.040      9.130
REMARK INTER + INTRA:         -10.570
REMARK INTER:                 -10.307
REMARK INTRA:                  -0.263
REMARK UNBOUND:                -1.034
REMARK  Name = 
REMARK  8 active torsions:
REMARK  status: ('A' for Active; 'I' for Inactive)
REMARK    1  A    between atoms: C_1  and  S_2
REMARK    2  A    between atoms: S_2  and  N_5
REMARK    3  A    between atoms: N_5  and  C_6
REMARK    4  A    between atoms: C_10  and  O_11
REMARK    5  A    between atoms: O_11  and  C_12
REMARK    6  A    between atoms: C_15  and  C_16
REMARK    7  A    between atoms: C_16  and  N_17
REMARK    8  A    between atoms: C_18  and  C_20
REMARK                            x       y       z     vdW  Elec       q    Type
REMARK                         _______ _______ _______ _____ _____    ______ ____
ROOT
ATOM      1  C   UNL     1      47.367   5.268  14.101  0.00  0.00    +0.000 A 
ATOM      2  C   UNL     1      48.053   6.392  14.576  0.00  0.00    +0.000 A 
ATOM      3  C   UNL     1      48.453   6.459  15.912  0.00  0.00    +0.000 A 
ATOM      4  C   UNL     1      48.097   5.444  16.807  0.00  0.00    +0.000 A 
ATOM      5  C   UNL     1      47.328   4.377  16.336  0.00  0.00    +0.000 A 
ATOM      6  F   UNL     1      46.939   3.411  17.181  0.00  0.00    +0.000 F 
ATOM      7  C   UNL     1      46.962   4.281  14.997  0.00  0.00    +0.000 A 
ENDROOT
BRANCH   1   8
ATOM      8  O   UNL     1      47.018   5.073  12.784  0.00  0.00    +0.000 OA
BRANCH   8  13
ATOM      9  C   UNL     1      44.106   4.829  10.612  0.00  0.00    +0.000 A 
ATOM     10  C   UNL     1      43.046   4.898  11.516  0.00  0.00    +0.000 A 
ATOM     11  C   UNL     1      43.306   5.103  12.869  0.00  0.00    +0.000 A 
ATOM     12  C   UNL     1      44.622   5.218  13.317  0.00  0.00    +0.000 A 
ATOM     13  C   UNL     1      45.687   5.061  12.422  0.00  0.00    +0.000 A 
ATOM     14  C   UNL     1      45.424   4.916  11.059  0.00  0.00    +0.000 A 
BRANCH   9  15
ATOM     15  N   UNL     1      43.857   4.684   9.216  0.00  0.00    +0.000 N 
ATOM     16  H   UNL     1      43.653   5.555   8.721  0.00  0.00    +0.000 HD
BRANCH  15  18
ATOM     17  C   UNL     1      45.250   2.395   9.382  0.00  0.00    +0.000 C 
ATOM     18  S   UNL     1      44.982   3.792   8.315  0.00  0.00    +0.000 S 
ATOM     19  O   UNL     1      46.216   4.530   8.178  0.00  0.00    +0.000 OA
ATOM     20  O   UNL     1      44.255   3.324   7.154  0.00  0.00    +0.000 OA
ENDBRANCH  15  18
ENDBRANCH   9  15
ENDBRANCH   8  13
ENDBRANCH   1   8
BRANCH   4  21
ATOM     21  C   UNL     1      48.565   5.482  18.233  0.00  0.00    +0.000 C 
BRANCH  21  22
ATOM     22  N   UNL     1      49.712   4.628  18.436  0.00  0.00    +0.000 N 
ATOM     23  C   UNL     1      51.002   5.078  18.336  0.00  0.00    +0.000 C 
ATOM     24  O   UNL     1      51.266   6.245  18.054  0.00  0.00    +0.000 OA
ATOM     25  H   UNL     1      49.530   3.631  18.501  0.00  0.00    +0.000 HD
BRANCH  23  26
ATOM     26  C   UNL     1      52.066   4.111  18.646  0.00  0.00    +0.000 A 
ATOM     27  C   UNL     1      53.117   4.495  19.469  0.00  0.00    +0.000 A 
ATOM     28  S   UNL     1      54.257   3.260  19.752  0.00  0.00    +0.000 S 
ATOM     29  C   UNL     1      53.412   2.178  18.749  0.00  0.00    +0.000 A 
ATOM     30  N   UNL     1      53.884   0.921  18.527  0.00  0.00    +0.000 NA
ATOM     31  C   UNL     1      53.161   0.214  17.724  0.00  0.00    +0.000 A 
ATOM     32  N   UNL     1      52.005   0.648  17.129  0.00  0.00    +0.000 N 
ATOM     33  C   UNL     1      51.464   1.891  17.364  0.00  0.00    +0.000 A 
ATOM     34  O   UNL     1      50.382   2.216  16.886  0.00  0.00    +0.000 OA
ATOM     35  C   UNL     1      52.258   2.740  18.231  0.00  0.00    +0.000 A 
ATOM     36  H   UNL     1      51.474   0.037  16.526  0.00  0.00    +0.000 HD
ENDBRANCH  23  26
ENDBRANCH  21  22
ENDBRANCH   4  21
TORSDOF 7
ENDMDL
MODEL 6
REMARK VINA RESULT:    -6.567      4.382      6.530
REMARK INTER + INTRA:         -10.289
REMARK INTER:                  -9.114
REMARK INTRA:                  -1.175
REMARK UNBOUND:                -1.034
REMARK  Name = 
REMARK  8 active torsions:
REMARK  status: ('A' for Active; 'I' for Inactive)
REMARK    1  A    between atoms: C_1  and  S_2
REMARK    2  A    between atoms: S_2  and  N_5
REMARK    3  A    between atoms: N_5  and  C_6
REMARK    4  A    between atoms: C_10  and  O_11
REMARK    5  A    between atoms: O_11  and  C_12
REMARK    6  A    between atoms: C_15  and  C_16
REMARK    7  A    between atoms: C_16  and  N_17
REMARK    8  A    between atoms: C_18  and  C_20
REMARK                            x       y       z     vdW  Elec       q    Type
REMARK                         _______ _______ _______ _____ _____    ______ ____
ROOT
ATOM      1  C   UNL     1      50.826   8.699  11.783  0.00  0.00    +0.000 A 
ATOM      2  C   UNL     1      50.074   7.600  11.353  0.00  0.00    +0.000 A 
ATOM      3  C   UNL     1      48.712   7.519  11.652  0.00  0.00    +0.000 A 
ATOM      4  C   UNL     1      48.107   8.492  12.456  0.00  0.00    +0.000 A 
ATOM      5  C   UNL     1      48.896   9.530  12.958  0.00  0.00    +0.000 A 
ATOM      6  F   UNL     1      48.351  10.452  13.764  0.00  0.00    +0.000 F 
ATOM      7  C   UNL     1      50.244   9.641  12.629  0.00  0.00    +0.000 A 
ENDROOT
BRANCH   1   8
ATOM      8  O   UNL     1      52.147   8.911  11.457  0.00  0.00    +0.000 OA
BRANCH   8  13
ATOM      9  C   UNL     1      53.578   8.592   8.124  0.00  0.00    +0.000 A 
ATOM     10  C   UNL     1      53.167   9.771   7.502  0.00  0.00    +0.000 A 
ATOM     11  C   UNL     1      52.459  10.724   8.231  0.00  0.00    +0.000 A 
ATOM     12  C   UNL     1      52.148  10.489   9.571  0.00  0.00    +0.000 A 
ATOM     13  C   UNL     1      52.485   9.269  10.168  0.00  0.00    +0.000 A 
ATOM     14  C   UNL     1      53.246   8.341   9.455  0.00  0.00    +0.000 A 
BRANCH   9  15
ATOM     15  N   UNL     1      54.359   7.635   7.413  0.00  0.00    +0.000 N 
ATOM     16  H   UNL     1      55.191   7.304   7.907  0.00  0.00    +0.000 HD
BRANCH  15  18
ATOM     17  C   UNL     1      54.039   5.009   7.869  0.00  0.00    +0.000 C 
ATOM     18  S   UNL     1      53.544   6.303   6.755  0.00  0.00    +0.000 S 
ATOM     19  O   UNL     1      54.046   6.010   5.432  0.00  0.00    +0.000 OA
ATOM     20  O   UNL     1      52.138   6.564   6.983  0.00  0.00    +0.000 OA
ENDBRANCH  15  18
ENDBRANCH   9  15
ENDBRANCH   8  13
ENDBRANCH   1   8
BRANCH   4  21
ATOM     21  C   UNL     1      46.634   8.440  12.741  0.00  0.00    +0.000 C 
BRANCH  21  22
ATOM     22  N   UNL     1      46.104   7.111  12.545  0.00  0.00    +0.000 N 
ATOM     23  C   UNL     1      44.993   6.858  11.784  0.00  0.00    +0.000 C 
ATOM     24  O   UNL     1      44.367   7.756  11.224  0.00  0.00    +0.000 OA
ATOM     25  H   UNL     1      46.494   6.376  13.127  0.00  0.00    +0.000 HD
BRANCH  23  26
ATOM     26  C   UNL     1      44.617   5.447  11.612  0.00  0.00    +0.000 A 
ATOM     27  C   UNL     1      43.909   4.804  12.619  0.00  0.00    +0.000 A 
ATOM     28  S   UNL     1      43.528   3.181  12.265  0.00  0.00    +0.000 S 
ATOM     29  C   UNL     1      44.333   3.263  10.769  0.00  0.00    +0.000 A 
ATOM     30  N   UNL     1      44.413   2.172   9.961  0.00  0.00    +0.000 NA
ATOM     31  C   UNL     1      45.076   2.364   8.870  0.00  0.00    +0.000 A 
ATOM     32  N   UNL     1      45.659   3.552   8.511  0.00  0.00    +0.000 N 
ATOM     33  C   UNL     1      45.561   4.694   9.272  0.00  0.00    +0.000 A 
ATOM     34  O   UNL     1      46.019   5.762   8.881  0.00  0.00    +0.000 OA
ATOM     35  C   UNL     1      44.858   4.522  10.529  0.00  0.00    +0.000 A 
ATOM     36  H   UNL     1      46.147   3.642   7.632  0.00  0.00    +0.000 HD
ENDBRANCH  23  26
ENDBRANCH  21  22
ENDBRANCH   4  21
TORSDOF 7
ENDMDL
MODEL 7
REMARK VINA RESULT:    -6.394      4.301      9.058
REMARK INTER + INTRA:         -10.045
REMARK INTER:                  -9.087
REMARK INTRA:                  -0.958
REMARK UNBOUND:                -1.034
REMARK  Name = 
REMARK  8 active torsions:
REMARK  status: ('A' for Active; 'I' for Inactive)
REMARK    1  A    between atoms: C_1  and  S_2
REMARK    2  A    between atoms: S_2  and  N_5
REMARK    3  A    between atoms: N_5  and  C_6
REMARK    4  A    between atoms: C_10  and  O_11
REMARK    5  A    between atoms: O_11  and  C_12
REMARK    6  A    between atoms: C_15  and  C_16
REMARK    7  A    between atoms: C_16  and  N_17
REMARK    8  A    between atoms: C_18  and  C_20
REMARK                            x       y       z     vdW  Elec       q    Type
REMARK                         _______ _______ _______ _____ _____    ______ ____
ROOT
ATOM      1  C   UNL     1      47.843   3.868  16.559  0.00  0.00    +0.000 A 
ATOM      2  C   UNL     1      46.947   4.516  17.417  0.00  0.00    +0.000 A 
ATOM      3  C   UNL     1      47.397   5.070  18.618  0.00  0.00    +0.000 A 
ATOM      4  C   UNL     1      48.730   4.908  19.013  0.00  0.00    +0.000 A 
ATOM      5  C   UNL     1      49.587   4.174  18.190  0.00  0.00    +0.000 A 
ATOM      6  F   UNL     1      50.858   3.969  18.565  0.00  0.00    +0.000 F 
ATOM      7  C   UNL     1      49.157   3.655  16.972  0.00  0.00    +0.000 A 
ENDROOT
BRANCH   1   8
ATOM      8  O   UNL     1      47.510   3.377  15.317  0.00  0.00    +0.000 OA
BRANCH   8  13
ATOM      9  C   UNL     1      45.889   4.540  12.271  0.00  0.00    +0.000 A 
ATOM     10  C   UNL     1      46.227   5.893  12.245  0.00  0.00    +0.000 A 
ATOM     11  C   UNL     1      47.071   6.413  13.224  0.00  0.00    +0.000 A 
ATOM     12  C   UNL     1      47.559   5.584  14.235  0.00  0.00    +0.000 A 
ATOM     13  C   UNL     1      47.150   4.248  14.310  0.00  0.00    +0.000 A 
ATOM     14  C   UNL     1      46.353   3.715  13.296  0.00  0.00    +0.000 A 
BRANCH   9  15
ATOM     15  N   UNL     1      45.080   3.977  11.242  0.00  0.00    +0.000 N 
ATOM     16  H   UNL     1      45.359   3.042  10.936  0.00  0.00    +0.000 HD
BRANCH  15  18
ATOM     17  C   UNL     1      43.293   4.562  13.158  0.00  0.00    +0.000 C 
ATOM     18  S   UNL     1      43.401   4.001  11.474  0.00  0.00    +0.000 S 
ATOM     19  O   UNL     1      42.861   2.663  11.383  0.00  0.00    +0.000 OA
ATOM     20  O   UNL     1      42.913   5.066  10.625  0.00  0.00    +0.000 OA
ENDBRANCH  15  18
ENDBRANCH   9  15
ENDBRANCH   8  13
ENDBRANCH   1   8
BRANCH   4  21
ATOM     21  C   UNL     1      49.235   5.542  20.277  0.00  0.00    +0.000 C 
BRANCH  21  22
ATOM     22  N   UNL     1      48.994   6.966  20.285  0.00  0.00    +0.000 N 
ATOM     23  C   UNL     1      47.978   7.545  21.000  0.00  0.00    +0.000 C 
ATOM     24  O   UNL     1      47.195   6.881  21.675  0.00  0.00    +0.000 OA
ATOM     25  H   UNL     1      49.513   7.519  19.609  0.00  0.00    +0.000 HD
BRANCH  23  26
ATOM     26  C   UNL     1      47.904   9.013  20.974  0.00  0.00    +0.000 A 
ATOM     27  C   UNL     1      47.903   9.716  22.172  0.00  0.00    +0.000 A 
ATOM     28  S   UNL     1      47.835  11.408  21.979  0.00  0.00    +0.000 S 
ATOM     29  C   UNL     1      47.759  11.264  20.286  0.00  0.00    +0.000 A 
ATOM     30  N   UNL     1      47.649  12.367  19.497  0.00  0.00    +0.000 NA
ATOM     31  C   UNL     1      47.573  12.114  18.234  0.00  0.00    +0.000 A 
ATOM     32  N   UNL     1      47.604  10.857  17.687  0.00  0.00    +0.000 N 
ATOM     33  C   UNL     1      47.765   9.717  18.440  0.00  0.00    +0.000 A 
ATOM     34  O   UNL     1      47.878   8.616  17.914  0.00  0.00    +0.000 OA
ATOM     35  C   UNL     1      47.818   9.944  19.872  0.00  0.00    +0.000 A 
ATOM     36  H   UNL     1      47.561  10.729  16.687  0.00  0.00    +0.000 HD
ENDBRANCH  23  26
ENDBRANCH  21  22
ENDBRANCH   4  21
TORSDOF 7
ENDMDL
MODEL 8
REMARK VINA RESULT:    -6.187      2.291      2.617
REMARK INTER + INTRA:          -9.753
REMARK INTER:                  -8.027
REMARK INTRA:                  -1.726
REMARK UNBOUND:                -1.034
REMARK  Name = 
REMARK  8 active torsions:
REMARK  status: ('A' for Active; 'I' for Inactive)
REMARK    1  A    between atoms: C_1  and  S_2
REMARK    2  A    between atoms: S_2  and  N_5
REMARK    3  A    between atoms: N_5  and  C_6
REMARK    4  A    between atoms: C_10  and  O_11
REMARK    5  A    between atoms: O_11  and  C_12
REMARK    6  A    between atoms: C_15  and  C_16
REMARK    7  A    between atoms: C_16  and  N_17
REMARK    8  A    between atoms: C_18  and  C_20
REMARK                            x       y       z     vdW  Elec       q    Type
REMARK                         _______ _______ _______ _____ _____    ______ ____
ROOT
ATOM      1  C   UNL     1      50.308   8.872  15.782  0.00  0.00    +0.000 A 
ATOM      2  C   UNL     1      49.427   9.940  15.574  0.00  0.00    +0.000 A 
ATOM      3  C   UNL     1      48.738  10.058  14.365  0.00  0.00    +0.000 A 
ATOM      4  C   UNL     1      48.984   9.159  13.321  0.00  0.00    +0.000 A 
ATOM      5  C   UNL     1      49.939   8.157  13.513  0.00  0.00    +0.000 A 
ATOM      6  F   UNL     1      50.225   7.309  12.515  0.00  0.00    +0.000 F 
ATOM      7  C   UNL     1      50.600   8.007  14.729  0.00  0.00    +0.000 A 
ENDROOT
BRANCH   1   8
ATOM      8  O   UNL     1      50.957   8.622  16.970  0.00  0.00    +0.000 OA
BRANCH   8  13
ATOM      9  C   UNL     1      48.590   6.271  18.429  0.00  0.00    +0.000 A 
ATOM     10  C   UNL     1      49.027   6.180  19.750  0.00  0.00    +0.000 A 
ATOM     11  C   UNL     1      50.089   6.973  20.182  0.00  0.00    +0.000 A 
ATOM     12  C   UNL     1      50.720   7.839  19.289  0.00  0.00    +0.000 A 
ATOM     13  C   UNL     1      50.338   7.865  17.943  0.00  0.00    +0.000 A 
ATOM     14  C   UNL     1      49.237   7.115  17.526  0.00  0.00    +0.000 A 
BRANCH   9  15
ATOM     15  N   UNL     1      47.466   5.516  17.986  0.00  0.00    +0.000 N 
ATOM     16  H   UNL     1      46.724   6.064  17.545  0.00  0.00    +0.000 HD
BRANCH  15  18
ATOM     17  C   UNL     1      47.781   2.865  18.268  0.00  0.00    +0.000 C 
ATOM     18  S   UNL     1      47.775   4.147  17.036  0.00  0.00    +0.000 S 
ATOM     19  O   UNL     1      49.087   4.237  16.436  0.00  0.00    +0.000 OA
ATOM     20  O   UNL     1      46.590   3.969  16.224  0.00  0.00    +0.000 OA
ENDBRANCH  15  18
ENDBRANCH   9  15
ENDBRANCH   8  13
ENDBRANCH   1   8
BRANCH   4  21
ATOM     21  C   UNL     1      48.211   9.247  12.037  0.00  0.00    +0.000 C 
BRANCH  21  22
ATOM     22  N   UNL     1      47.303   8.134  11.890  0.00  0.00    +0.000 N 
ATOM     23  C   UNL     1      46.023   8.149  12.380  0.00  0.00    +0.000 C 
ATOM     24  O   UNL     1      45.568   9.115  12.989  0.00  0.00    +0.000 OA
ATOM     25  H   UNL     1      47.700   7.266  11.545  0.00  0.00    +0.000 HD
BRANCH  23  26
ATOM     26  C   UNL     1      45.189   6.974  12.086  0.00  0.00    +0.000 A 
ATOM     27  C   UNL     1      43.962   7.149  11.458  0.00  0.00    +0.000 A 
ATOM     28  S   UNL     1      43.124   5.695  11.167  0.00  0.00    +0.000 S 
ATOM     29  C   UNL     1      44.349   4.778  11.908  0.00  0.00    +0.000 A 
ATOM     30  N   UNL     1      44.234   3.428  12.026  0.00  0.00    +0.000 NA
ATOM     31  C   UNL     1      45.221   2.859  12.634  0.00  0.00    +0.000 A 
ATOM     32  N   UNL     1      46.317   3.519  13.128  0.00  0.00    +0.000 N 
ATOM     33  C   UNL     1      46.499   4.875  12.987  0.00  0.00    +0.000 A 
ATOM     34  O   UNL     1      47.531   5.422  13.363  0.00  0.00    +0.000 OA
ATOM     35  C   UNL     1      45.400   5.568  12.344  0.00  0.00    +0.000 A 
ATOM     36  H   UNL     1      47.066   3.012  13.576  0.00  0.00    +0.000 HD
ENDBRANCH  23  26
ENDBRANCH  21  22
ENDBRANCH   4  21
TORSDOF 7
ENDMDL
MODEL 9
REMARK VINA RESULT:    -6.162      4.398      8.055
REMARK INTER + INTRA:          -9.717
REMARK INTER:                  -8.356
REMARK INTRA:                  -1.361
REMARK UNBOUND:                -1.034
REMARK  Name = 
REMARK  8 active torsions:
REMARK  status: ('A' for Active; 'I' for Inactive)
REMARK    1  A    between atoms: C_1  and  S_2
REMARK    2  A    between atoms: S_2  and  N_5
REMARK    3  A    between atoms: N_5  and  C_6
REMARK    4  A    between atoms: C_10  and  O_11
REMARK    5  A    between atoms: O_11  and  C_12
REMARK    6  A    between atoms: C_15  and  C_16
REMARK    7  A    between atoms: C_16  and  N_17
REMARK    8  A    between atoms: C_18  and  C_20
REMARK                            x       y       z     vdW  Elec       q    Type
REMARK                         _______ _______ _______ _____ _____    ______ ____
ROOT
ATOM      1  C   UNL     1      46.843   6.813  13.213  0.00  0.00    +0.000 A 
ATOM      2  C   UNL     1      48.233   6.750  13.063  0.00  0.00    +0.000 A 
ATOM      3  C   UNL     1      48.956   7.893  12.717  0.00  0.00    +0.000 A 
ATOM      4  C   UNL     1      48.290   9.091  12.434  0.00  0.00    +0.000 A 
ATOM      5  C   UNL     1      46.894   9.110  12.495  0.00  0.00    +0.000 A 
ATOM      6  F   UNL     1      46.229  10.233  12.188  0.00  0.00    +0.000 F 
ATOM      7  C   UNL     1      46.168   7.986  12.880  0.00  0.00    +0.000 A 
ENDROOT
BRANCH   1   8
ATOM      8  O   UNL     1      46.061   5.764  13.642  0.00  0.00    +0.000 OA
BRANCH   8  13
ATOM      9  C   UNL     1      44.721   3.786  10.895  0.00  0.00    +0.000 A 
ATOM     10  C   UNL     1      43.344   3.947  11.047  0.00  0.00    +0.000 A 
ATOM     11  C   UNL     1      42.854   4.790  12.043  0.00  0.00    +0.000 A 
ATOM     12  C   UNL     1      43.739   5.453  12.893  0.00  0.00    +0.000 A 
ATOM     13  C   UNL     1      45.116   5.223  12.795  0.00  0.00    +0.000 A 
ATOM     14  C   UNL     1      45.608   4.426  11.760  0.00  0.00    +0.000 A 
BRANCH   9  15
ATOM     15  N   UNL     1      45.242   2.979   9.842  0.00  0.00    +0.000 N 
ATOM     16  H   UNL     1      44.769   2.082   9.711  0.00  0.00    +0.000 HD
BRANCH  15  18
ATOM     17  C   UNL     1      46.630   2.621   7.572  0.00  0.00    +0.000 C 
ATOM     18  S   UNL     1      45.451   3.715   8.330  0.00  0.00    +0.000 S 
ATOM     19  O   UNL     1      46.047   5.022   8.485  0.00  0.00    +0.000 OA
ATOM     20  O   UNL     1      44.188   3.544   7.643  0.00  0.00    +0.000 OA
ENDBRANCH  15  18
ENDBRANCH   9  15
ENDBRANCH   8  13
ENDBRANCH   1   8
BRANCH   4  21
ATOM     21  C   UNL     1      49.061  10.338  12.111  0.00  0.00    +0.000 C 
BRANCH  21  22
ATOM     22  N   UNL     1      50.003  10.114  11.040  0.00  0.00    +0.000 N 
ATOM     23  C   UNL     1      51.302  10.549  11.087  0.00  0.00    +0.000 C 
ATOM     24  O   UNL     1      51.746  11.172  12.049  0.00  0.00    +0.000 OA
ATOM     25  H   UNL     1      49.624   9.755  10.169  0.00  0.00    +0.000 HD
BRANCH  23  26
ATOM     26  C   UNL     1      52.165  10.179   9.956  0.00  0.00    +0.000 A 
ATOM     27  C   UNL     1      52.730  11.180   9.176  0.00  0.00    +0.000 A 
ATOM     28  S   UNL     1      53.721  10.596   7.918  0.00  0.00    +0.000 S 
ATOM     29  C   UNL     1      53.397   8.981   8.342  0.00  0.00    +0.000 A 
ATOM     30  N   UNL     1      53.924   7.954   7.623  0.00  0.00    +0.000 NA
ATOM     31  C   UNL     1      53.575   6.781   8.034  0.00  0.00    +0.000 A 
ATOM     32  N   UNL     1      52.753   6.543   9.104  0.00  0.00    +0.000 N 
ATOM     33  C   UNL     1      52.238   7.548   9.890  0.00  0.00    +0.000 A 
ATOM     34  O   UNL     1      51.578   7.298  10.893  0.00  0.00    +0.000 OA
ATOM     35  C   UNL     1      52.570   8.889   9.448  0.00  0.00    +0.000 A 
ATOM     36  H   UNL     1      52.535   5.599   9.388  0.00  0.00    +0.000 HD
ENDBRANCH  23  26
ENDBRANCH  21  22
ENDBRANCH   4  21
TORSDOF 7
ENDMDL
