MODEL 1
REMARK VINA RESULT:    -7.759      0.000      0.000
REMARK INTER + INTRA:         -12.804
REMARK INTER:                 -11.388
REMARK INTRA:                  -1.416
REMARK UNBOUND:                -1.416
REMARK  Name = 
REMARK  9 active torsions:
REMARK  status: ('A' for Active; 'I' for Inactive)
REMARK    1  A    between atoms: C_1  and  O_2
REMARK    2  A    between atoms: O_2  and  C_3
REMARK    3  A    between atoms: C_8  and  C_9
REMARK    4  A    between atoms: C_9  and  N_10
REMARK    5  A    between atoms: N_10  and  C_11
REMARK    6  A    between atoms: C_11  and  C_12
REMARK    7  A    between atoms: C_15  and  C_16
REMARK    8  A    between atoms: C_16  and  N_17
REMARK    9  A    between atoms: C_18  and  C_20
REMARK                            x       y       z     vdW  Elec       q    Type
REMARK                         _______ _______ _______ _____ _____    ______ ____
ROOT
ATOM      1  C   UNL     1      44.536   4.376  11.547  0.00  0.00    +0.000 A 
ATOM      2  C   UNL     1      44.959   5.473  10.780  0.00  0.00    +0.000 A 
ATOM      3  C   UNL     1      45.873   6.395  11.292  0.00  0.00    +0.000 A 
ATOM      4  C   UNL     1      46.378   6.249  12.590  0.00  0.00    +0.000 A 
ATOM      5  C   UNL     1      45.911   5.190  13.380  0.00  0.00    +0.000 A 
ATOM      6  C   UNL     1      45.006   4.259  12.862  0.00  0.00    +0.000 A 
ENDROOT
BRANCH   1   7
ATOM      7  C   UNL     1      43.600   3.342  10.956  0.00  0.00    +0.000 C 
BRANCH   7   8
ATOM      8  N   UNL     1      43.866   3.162   9.530  0.00  0.00    +0.000 NA
ATOM      9  H   UNL     1      42.985   3.050   9.032  0.00  0.00    +0.000 HD
BRANCH   8  10
ATOM     10  C   UNL     1      44.677   1.972   9.265  0.00  0.00    +0.000 C 
BRANCH  10  16
ATOM     11  C   UNL     1      46.639   1.285   7.762  0.00  0.00    +0.000 A 
ATOM     12  C   UNL     1      47.655   1.647   6.867  0.00  0.00    +0.000 A 
ATOM     13  C   UNL     1      47.790   2.969   6.437  0.00  0.00    +0.000 A 
ATOM     14  C   UNL     1      46.907   3.942   6.887  0.00  0.00    +0.000 A 
ATOM     15  C   UNL     1      45.899   3.596   7.784  0.00  0.00    +0.000 A 
ATOM     16  C   UNL     1      45.754   2.270   8.239  0.00  0.00    +0.000 A 
BRANCH  11  18
ATOM     17  C   UNL     1      46.726  -1.051   7.282  0.00  0.00    +0.000 C 
ATOM     18  O   UNL     1      46.414   0.000   8.187  0.00  0.00    +0.000 OA
ENDBRANCH  11  18
ENDBRANCH  10  16
ENDBRANCH   8  10
ENDBRANCH   7   8
ENDBRANCH   1   7
BRANCH   4  19
ATOM     19  C   UNL     1      47.380   7.229  13.137  0.00  0.00    +0.000 C 
BRANCH  19  20
ATOM     20  N   UNL     1      47.710   6.924  14.505  0.00  0.00    +0.000 N 
ATOM     21  C   UNL     1      49.014   6.858  14.922  0.00  0.00    +0.000 C 
ATOM     22  O   UNL     1      49.951   7.099  14.165  0.00  0.00    +0.000 OA
ATOM     23  H   UNL     1      46.977   6.516  15.075  0.00  0.00    +0.000 HD
BRANCH  21  24
ATOM     24  C   UNL     1      49.236   6.546  16.339  0.00  0.00    +0.000 A 
ATOM     25  C   UNL     1      49.861   7.478  17.156  0.00  0.00    +0.000 A 
ATOM     26  S   UNL     1      49.989   6.986  18.783  0.00  0.00    +0.000 S 
ATOM     27  C   UNL     1      49.262   5.486  18.442  0.00  0.00    +0.000 A 
ATOM     28  N   UNL     1      49.086   4.558  19.422  0.00  0.00    +0.000 NA
ATOM     29  C   UNL     1      48.550   3.456  19.019  0.00  0.00    +0.000 A 
ATOM     30  N   UNL     1      48.166   3.195  17.727  0.00  0.00    +0.000 N 
ATOM     31  C   UNL     1      48.304   4.111  16.712  0.00  0.00    +0.000 A 
ATOM     32  O   UNL     1      47.924   3.859  15.573  0.00  0.00    +0.000 OA
ATOM     33  C   UNL     1      48.910   5.368  17.109  0.00  0.00    +0.000 A 
ATOM     34  H   UNL     1      47.748   2.311  17.479  0.00  0.00    +0.000 HD
ENDBRANCH  21  24
ENDBRANCH  19  20
ENDBRANCH   4  19
TORSDOF 8
ENDMDL
MODEL 2
REMARK VINA RESULT:    -7.687      1.221      1.903
REMARK INTER + INTRA:         -12.697
REMARK INTER:                 -11.699
REMARK INTRA:                  -0.998
REMARK UNBOUND:                -1.416
REMARK  Name = 
REMARK  9 active torsions:
REMARK  status: ('A' for Active; 'I' for Inactive)
REMARK    1  A    between atoms: C_1  and  O_2
REMARK    2  A    between atoms: O_2  and  C_3
REMARK    3  A    between atoms: C_8  and  C_9
REMARK    4  A    between atoms: C_9  and  N_10
REMARK    5  A    between atoms: N_10  and  C_11
REMARK    6  A    between atoms: C_11  and  C_12
REMARK    7  A    between atoms: C_15  and  C_16
REMARK    8  A    between atoms: C_16  and  N_17
REMARK    9  A    between atoms: C_18  and  C_20
REMARK                            x       y       z     vdW  Elec       q    Type
REMARK                         _______ _______ _______ _____ _____    ______ ____
ROOT
ATOM      1  C   UNL     1      44.242   3.876  11.991  0.00  0.00    +0.000 A 
ATOM      2  C   UNL     1      43.773   5.197  11.926  0.00  0.00    +0.000 A 
ATOM      3  C   UNL     1      44.589   6.265  12.304  0.00  0.00    +0.000 A 
ATOM      4  C   UNL     1      45.890   6.037  12.767  0.00  0.00    +0.000 A 
ATOM      5  C   UNL     1      46.340   4.715  12.891  0.00  0.00    +0.000 A 
ATOM      6  C   UNL     1      45.528   3.646  12.500  0.00  0.00    +0.000 A 
ENDROOT
BRANCH   1   7
ATOM      7  C   UNL     1      43.375   2.730  11.511  0.00  0.00    +0.000 C 
BRANCH   7   8
ATOM      8  N   UNL     1      44.006   2.044  10.384  0.00  0.00    +0.000 NA
ATOM      9  H   UNL     1      44.906   1.669  10.677  0.00  0.00    +0.000 HD
BRANCH   8  10
ATOM     10  C   UNL     1      44.248   2.943   9.255  0.00  0.00    +0.000 C 
BRANCH  10  16
ATOM     11  C   UNL     1      46.256   3.408   7.727  0.00  0.00    +0.000 A 
ATOM     12  C   UNL     1      47.329   2.922   6.967  0.00  0.00    +0.000 A 
ATOM     13  C   UNL     1      47.632   1.559   6.948  0.00  0.00    +0.000 A 
ATOM     14  C   UNL     1      46.873   0.666   7.694  0.00  0.00    +0.000 A 
ATOM     15  C   UNL     1      45.798   1.136   8.445  0.00  0.00    +0.000 A 
ATOM     16  C   UNL     1      45.470   2.506   8.468  0.00  0.00    +0.000 A 
BRANCH  11  18
ATOM     17  C   UNL     1      46.167   5.365   9.089  0.00  0.00    +0.000 C 
ATOM     18  O   UNL     1      45.932   4.736   7.835  0.00  0.00    +0.000 OA
ENDBRANCH  11  18
ENDBRANCH  10  16
ENDBRANCH   8  10
ENDBRANCH   7   8
ENDBRANCH   1   7
BRANCH   4  19
ATOM     19  C   UNL     1      46.779   7.187  13.155  0.00  0.00    +0.000 C 
BRANCH  19  20
ATOM     20  N   UNL     1      47.349   6.985  14.462  0.00  0.00    +0.000 N 
ATOM     21  C   UNL     1      48.693   6.772  14.624  0.00  0.00    +0.000 C 
ATOM     22  O   UNL     1      49.473   6.790  13.675  0.00  0.00    +0.000 OA
ATOM     23  H   UNL     1      46.707   6.752  15.212  0.00  0.00    +0.000 HD
BRANCH  21  24
ATOM     24  C   UNL     1      49.167   6.584  16.000  0.00  0.00    +0.000 A 
ATOM     25  C   UNL     1      50.178   7.398  16.493  0.00  0.00    +0.000 A 
ATOM     26  S   UNL     1      50.571   7.090  18.123  0.00  0.00    +0.000 S 
ATOM     27  C   UNL     1      49.442   5.821  18.211  0.00  0.00    +0.000 A 
ATOM     28  N   UNL     1      49.287   5.103  19.358  0.00  0.00    +0.000 NA
ATOM     29  C   UNL     1      48.418   4.152  19.276  0.00  0.00    +0.000 A 
ATOM     30  N   UNL     1      47.683   3.855  18.155  0.00  0.00    +0.000 N 
ATOM     31  C   UNL     1      47.791   4.567  16.985  0.00  0.00    +0.000 A 
ATOM     32  O   UNL     1      47.097   4.295  16.010  0.00  0.00    +0.000 OA
ATOM     33  C   UNL     1      48.761   5.645  17.019  0.00  0.00    +0.000 A 
ATOM     34  H   UNL     1      47.016   3.098  18.159  0.00  0.00    +0.000 HD
ENDBRANCH  21  24
ENDBRANCH  19  20
ENDBRANCH   4  19
TORSDOF 8
ENDMDL
MODEL 3
REMARK VINA RESULT:    -7.050      3.118      8.860
REMARK INTER + INTRA:         -11.763
REMARK INTER:                  -9.784
REMARK INTRA:                  -1.979
REMARK UNBOUND:                -1.416
REMARK  Name = 
REMARK  9 active torsions:
REMARK  status: ('A' for Active; 'I' for Inactive)
REMARK    1  A    between atoms: C_1  and  O_2
REMARK    2  A    between atoms: O_2  and  C_3
REMARK    3  A    between atoms: C_8  and  C_9
REMARK    4  A    between atoms: C_9  and  N_10
REMARK    5  A    between atoms: N_10  and  C_11
REMARK    6  A    between atoms: C_11  and  C_12
REMARK    7  A    between atoms: C_15  and  C_16
REMARK    8  A    between atoms: C_16  and  N_17
REMARK    9  A    between atoms: C_18  and  C_20
REMARK                            x       y       z     vdW  Elec       q    Type
REMARK                         _______ _______ _______ _____ _____    ______ ____
ROOT
ATOM      1  C   UNL     1      48.779   8.021  16.224  0.00  0.00    +0.000 A 
ATOM      2  C   UNL     1      48.246   9.126  15.542  0.00  0.00    +0.000 A 
ATOM      3  C   UNL     1      47.893   9.034  14.195  0.00  0.00    +0.000 A 
ATOM      4  C   UNL     1      48.077   7.837  13.492  0.00  0.00    +0.000 A 
ATOM      5  C   UNL     1      48.667   6.751  14.153  0.00  0.00    +0.000 A 
ATOM      6  C   UNL     1      49.007   6.839  15.506  0.00  0.00    +0.000 A 
ENDROOT
BRANCH   1   7
ATOM      7  C   UNL     1      49.090   8.110  17.704  0.00  0.00    +0.000 C 
BRANCH   7   8
ATOM      8  N   UNL     1      47.991   7.561  18.495  0.00  0.00    +0.000 NA
ATOM      9  H   UNL     1      47.628   8.280  19.118  0.00  0.00    +0.000 HD
BRANCH   8  10
ATOM     10  C   UNL     1      48.415   6.432  19.324  0.00  0.00    +0.000 C 
BRANCH  10  16
ATOM     11  C   UNL     1      49.590   4.421  18.249  0.00  0.00    +0.000 A 
ATOM     12  C   UNL     1      49.523   3.276  17.444  0.00  0.00    +0.000 A 
ATOM     13  C   UNL     1      48.301   2.839  16.925  0.00  0.00    +0.000 A 
ATOM     14  C   UNL     1      47.134   3.534  17.211  0.00  0.00    +0.000 A 
ATOM     15  C   UNL     1      47.190   4.680  18.001  0.00  0.00    +0.000 A 
ATOM     16  C   UNL     1      48.413   5.143  18.525  0.00  0.00    +0.000 A 
BRANCH  11  18
ATOM     17  C   UNL     1      51.772   5.346  17.970  0.00  0.00    +0.000 C 
ATOM     18  O   UNL     1      50.743   4.880  18.834  0.00  0.00    +0.000 OA
ENDBRANCH  11  18
ENDBRANCH  10  16
ENDBRANCH   8  10
ENDBRANCH   7   8
ENDBRANCH   1   7
BRANCH   4  19
ATOM     19  C   UNL     1      47.679   7.729  12.046  0.00  0.00    +0.000 C 
BRANCH  19  20
ATOM     20  N   UNL     1      46.984   6.493  11.790  0.00  0.00    +0.000 N 
ATOM     21  C   UNL     1      45.622   6.407  11.915  0.00  0.00    +0.000 C 
ATOM     22  O   UNL     1      44.933   7.382  12.204  0.00  0.00    +0.000 OA
ATOM     23  H   UNL     1      47.543   5.647  11.768  0.00  0.00    +0.000 HD
BRANCH  21  24
ATOM     24  C   UNL     1      45.017   5.102  11.625  0.00  0.00    +0.000 A 
ATOM     25  C   UNL     1      44.346   4.419  12.631  0.00  0.00    +0.000 A 
ATOM     26  S   UNL     1      43.652   2.950  12.116  0.00  0.00    +0.000 S 
ATOM     27  C   UNL     1      44.272   3.146  10.544  0.00  0.00    +0.000 A 
ATOM     28  N   UNL     1      44.055   2.204   9.585  0.00  0.00    +0.000 NA
ATOM     29  C   UNL     1      44.606   2.467   8.448  0.00  0.00    +0.000 A 
ATOM     30  N   UNL     1      45.350   3.587   8.176  0.00  0.00    +0.000 N 
ATOM     31  C   UNL     1      45.576   4.574   9.106  0.00  0.00    +0.000 A 
ATOM     32  O   UNL     1      46.220   5.578   8.823  0.00  0.00    +0.000 OA
ATOM     33  C   UNL     1      44.984   4.325  10.408  0.00  0.00    +0.000 A 
ATOM     34  H   UNL     1      45.751   3.733   7.262  0.00  0.00    +0.000 HD
ENDBRANCH  21  24
ENDBRANCH  19  20
ENDBRANCH   4  19
TORSDOF 8
ENDMDL
MODEL 4
REMARK VINA RESULT:    -6.934      3.235      8.935
REMARK INTER + INTRA:         -11.592
REMARK INTER:                 -10.258
REMARK INTRA:                  -1.334
REMARK UNBOUND:                -1.416
REMARK  Name = 
REMARK  9 active torsions:
REMARK  status: ('A' for Active; 'I' for Inactive)
REMARK    1  A    between atoms: C_1  and  O_2
REMARK    2  A    between atoms: O_2  and  C_3
REMARK    3  A    between atoms: C_8  and  C_9
REMARK    4  A    between atoms: C_9  and  N_10
REMARK    5  A    between atoms: N_10  and  C_11
REMARK    6  A    between atoms: C_11  and  C_12
REMARK    7  A    between atoms: C_15  and  C_16
REMARK    8  A    between atoms: C_16  and  N_17
REMARK    9  A    between atoms: C_18  and  C_20
REMARK                            x       y       z     vdW  Elec       q    Type
REMARK                         _______ _______ _______ _____ _____    ______ ____
ROOT
ATOM      1  C   UNL     1      50.430   7.387  15.383  0.00  0.00    +0.000 A 
ATOM      2  C   UNL     1      50.820   8.041  14.204  0.00  0.00    +0.000 A 
ATOM      3  C   UNL     1      49.940   8.157  13.126  0.00  0.00    +0.000 A 
ATOM      4  C   UNL     1      48.654   7.611  13.196  0.00  0.00    +0.000 A 
ATOM      5  C   UNL     1      48.283   6.903  14.348  0.00  0.00    +0.000 A 
ATOM      6  C   UNL     1      49.159   6.799  15.433  0.00  0.00    +0.000 A 
ENDROOT
BRANCH   1   7
ATOM      7  C   UNL     1      51.366   7.330  16.573  0.00  0.00    +0.000 C 
BRANCH   7   8
ATOM      8  N   UNL     1      52.005   6.019  16.663  0.00  0.00    +0.000 NA
ATOM      9  H   UNL     1      51.675   5.426  15.904  0.00  0.00    +0.000 HD
BRANCH   8  10
ATOM     10  C   UNL     1      51.696   5.337  17.921  0.00  0.00    +0.000 C 
BRANCH  10  16
ATOM     11  C   UNL     1      50.676   3.056  17.341  0.00  0.00    +0.000 A 
ATOM     12  C   UNL     1      50.803   1.661  17.277  0.00  0.00    +0.000 A 
ATOM     13  C   UNL     1      52.008   1.038  17.607  0.00  0.00    +0.000 A 
ATOM     14  C   UNL     1      53.103   1.799  17.995  0.00  0.00    +0.000 A 
ATOM     15  C   UNL     1      52.986   3.185  18.073  0.00  0.00    +0.000 A 
ATOM     16  C   UNL     1      51.776   3.832  17.755  0.00  0.00    +0.000 A 
BRANCH  11  18
ATOM     17  C   UNL     1      48.379   2.972  16.701  0.00  0.00    +0.000 C 
ATOM     18  O   UNL     1      49.543   3.740  16.984  0.00  0.00    +0.000 OA
ENDBRANCH  11  18
ENDBRANCH  10  16
ENDBRANCH   8  10
ENDBRANCH   7   8
ENDBRANCH   1   7
BRANCH   4  19
ATOM     19  C   UNL     1      47.697   7.752  12.044  0.00  0.00    +0.000 C 
BRANCH  19  20
ATOM     20  N   UNL     1      46.981   6.524  11.810  0.00  0.00    +0.000 N 
ATOM     21  C   UNL     1      45.612   6.480  11.867  0.00  0.00    +0.000 C 
ATOM     22  O   UNL     1      44.938   7.486  12.073  0.00  0.00    +0.000 OA
ATOM     23  H   UNL     1      47.516   5.664  11.857  0.00  0.00    +0.000 HD
BRANCH  21  24
ATOM     24  C   UNL     1      44.986   5.179  11.607  0.00  0.00    +0.000 A 
ATOM     25  C   UNL     1      44.292   4.537  12.624  0.00  0.00    +0.000 A 
ATOM     26  S   UNL     1      43.576   3.067  12.143  0.00  0.00    +0.000 S 
ATOM     27  C   UNL     1      44.214   3.209  10.572  0.00  0.00    +0.000 A 
ATOM     28  N   UNL     1      43.987   2.245   9.638  0.00  0.00    +0.000 NA
ATOM     29  C   UNL     1      44.554   2.466   8.500  0.00  0.00    +0.000 A 
ATOM     30  N   UNL     1      45.321   3.565   8.204  0.00  0.00    +0.000 N 
ATOM     31  C   UNL     1      45.557   4.572   9.109  0.00  0.00    +0.000 A 
ATOM     32  O   UNL     1      46.223   5.556   8.805  0.00  0.00    +0.000 OA
ATOM     33  C   UNL     1      44.949   4.370  10.411  0.00  0.00    +0.000 A 
ATOM     34  H   UNL     1      45.734   3.678   7.290  0.00  0.00    +0.000 HD
ENDBRANCH  21  24
ENDBRANCH  19  20
ENDBRANCH   4  19
TORSDOF 8
ENDMDL
MODEL 5
REMARK VINA RESULT:    -6.874      4.082      5.277
REMARK INTER + INTRA:         -11.505
REMARK INTER:                 -10.095
REMARK INTRA:                  -1.410
REMARK UNBOUND:                -1.416
REMARK  Name = 
REMARK  9 active torsions:
REMARK  status: ('A' for Active; 'I' for Inactive)
REMARK    1  A    between atoms: C_1  and  O_2
REMARK    2  A    between atoms: O_2  and  C_3
REMARK    3  A    between atoms: C_8  and  C_9
REMARK    4  A    between atoms: C_9  and  N_10
REMARK    5  A    between atoms: N_10  and  C_11
REMARK    6  A    between atoms: C_11  and  C_12
REMARK    7  A    between atoms: C_15  and  C_16
REMARK    8  A    between atoms: C_16  and  N_17
REMARK    9  A    between atoms: C_18  and  C_20
REMARK                            x       y       z     vdW  Elec       q    Type
REMARK                         _______ _______ _______ _____ _____    ______ ____
ROOT
ATOM      1  C   UNL     1      44.556   4.849  11.732  0.00  0.00    +0.000 A 
ATOM      2  C   UNL     1      43.870   6.031  11.414  0.00  0.00    +0.000 A 
ATOM      3  C   UNL     1      44.396   7.278  11.758  0.00  0.00    +0.000 A 
ATOM      4  C   UNL     1      45.615   7.372  12.439  0.00  0.00    +0.000 A 
ATOM      5  C   UNL     1      46.271   6.191  12.813  0.00  0.00    +0.000 A 
ATOM      6  C   UNL     1      45.752   4.943  12.456  0.00  0.00    +0.000 A 
ENDROOT
BRANCH   1   7
ATOM      7  C   UNL     1      44.013   3.505  11.290  0.00  0.00    +0.000 C 
BRANCH   7   8
ATOM      8  N   UNL     1      45.066   2.704  10.669  0.00  0.00    +0.000 NA
ATOM      9  H   UNL     1      45.855   3.303  10.434  0.00  0.00    +0.000 HD
BRANCH   8  10
ATOM     10  C   UNL     1      44.616   2.060   9.434  0.00  0.00    +0.000 C 
BRANCH  10  16
ATOM     11  C   UNL     1      46.038   3.282   7.683  0.00  0.00    +0.000 A 
ATOM     12  C   UNL     1      47.003   3.231   6.667  0.00  0.00    +0.000 A 
ATOM     13  C   UNL     1      47.640   2.030   6.346  0.00  0.00    +0.000 A 
ATOM     14  C   UNL     1      47.328   0.869   7.040  0.00  0.00    +0.000 A 
ATOM     15  C   UNL     1      46.363   0.904   8.044  0.00  0.00    +0.000 A 
ATOM     16  C   UNL     1      45.702   2.103   8.375  0.00  0.00    +0.000 A 
BRANCH  11  18
ATOM     17  C   UNL     1      46.200   5.405   8.758  0.00  0.00    +0.000 C 
ATOM     18  O   UNL     1      45.409   4.431   8.087  0.00  0.00    +0.000 OA
ENDBRANCH  11  18
ENDBRANCH  10  16
ENDBRANCH   8  10
ENDBRANCH   7   8
ENDBRANCH   1   7
BRANCH   4  19
ATOM     19  C   UNL     1      46.194   8.715  12.793  0.00  0.00    +0.000 C 
BRANCH  19  20
ATOM     20  N   UNL     1      47.437   8.942  12.102  0.00  0.00    +0.000 N 
ATOM     21  C   UNL     1      48.046  10.169  12.125  0.00  0.00    +0.000 C 
ATOM     22  O   UNL     1      47.588  11.110  12.768  0.00  0.00    +0.000 OA
ATOM     23  H   UNL     1      47.707   8.258  11.403  0.00  0.00    +0.000 HD
BRANCH  21  24
ATOM     24  C   UNL     1      49.312  10.288  11.392  0.00  0.00    +0.000 A 
ATOM     25  C   UNL     1      49.531  11.390  10.577  0.00  0.00    +0.000 A 
ATOM     26  S   UNL     1      51.070  11.406   9.845  0.00  0.00    +0.000 S 
ATOM     27  C   UNL     1      51.479   9.912  10.548  0.00  0.00    +0.000 A 
ATOM     28  N   UNL     1      52.686   9.333  10.303  0.00  0.00    +0.000 NA
ATOM     29  C   UNL     1      52.852   8.189  10.877  0.00  0.00    +0.000 A 
ATOM     30  N   UNL     1      51.926   7.571  11.679  0.00  0.00    +0.000 N 
ATOM     31  C   UNL     1      50.705   8.130  11.972  0.00  0.00    +0.000 A 
ATOM     32  O   UNL     1      49.910   7.566  12.717  0.00  0.00    +0.000 OA
ATOM     33  C   UNL     1      50.462   9.415  11.345  0.00  0.00    +0.000 A 
ATOM     34  H   UNL     1      52.122   6.675  12.101  0.00  0.00    +0.000 HD
ENDBRANCH  21  24
ENDBRANCH  19  20
ENDBRANCH   4  19
TORSDOF 8
ENDMDL
MODEL 6
REMARK VINA RESULT:    -6.804      3.160      5.205
REMARK INTER + INTRA:         -11.402
REMARK INTER:                  -9.720
REMARK INTRA:                  -1.681
REMARK UNBOUND:                -1.416
REMARK  Name = 
REMARK  9 active torsions:
REMARK  status: ('A' for Active; 'I' for Inactive)
REMARK    1  A    between atoms: C_1  and  O_2
REMARK    2  A    between atoms: O_2  and  C_3
REMARK    3  A    between atoms: C_8  and  C_9
REMARK    4  A    between atoms: C_9  and  N_10
REMARK    5  A    between atoms: N_10  and  C_11
REMARK    6  A    between atoms: C_11  and  C_12
REMARK    7  A    between atoms: C_15  and  C_16
REMARK    8  A    between atoms: C_16  and  N_17
REMARK    9  A    between atoms: C_18  and  C_20
REMARK                            x       y       z     vdW  Elec       q    Type
REMARK                         _______ _______ _______ _____ _____    ______ ____
ROOT
ATOM      1  C   UNL     1      47.362   5.616  13.631  0.00  0.00    +0.000 A 
ATOM      2  C   UNL     1      47.923   6.146  14.803  0.00  0.00    +0.000 A 
ATOM      3  C   UNL     1      48.044   5.366  15.955  0.00  0.00    +0.000 A 
ATOM      4  C   UNL     1      47.594   4.040  15.966  0.00  0.00    +0.000 A 
ATOM      5  C   UNL     1      46.977   3.528  14.816  0.00  0.00    +0.000 A 
ATOM      6  C   UNL     1      46.869   4.304  13.659  0.00  0.00    +0.000 A 
ENDROOT
BRANCH   1   7
ATOM      7  C   UNL     1      47.303   6.447  12.366  0.00  0.00    +0.000 C 
BRANCH   7   8
ATOM      8  N   UNL     1      45.985   7.061  12.214  0.00  0.00    +0.000 NA
ATOM      9  H   UNL     1      45.307   6.556  12.782  0.00  0.00    +0.000 HD
BRANCH   8  10
ATOM     10  C   UNL     1      45.513   7.025  10.829  0.00  0.00    +0.000 C 
BRANCH  10  16
ATOM     11  C   UNL     1      44.202   4.856  11.226  0.00  0.00    +0.000 A 
ATOM     12  C   UNL     1      43.904   3.541  10.842  0.00  0.00    +0.000 A 
ATOM     13  C   UNL     1      44.462   2.991   9.685  0.00  0.00    +0.000 A 
ATOM     14  C   UNL     1      45.316   3.749   8.895  0.00  0.00    +0.000 A 
ATOM     15  C   UNL     1      45.627   5.054   9.272  0.00  0.00    +0.000 A 
ATOM     16  C   UNL     1      45.084   5.622  10.441  0.00  0.00    +0.000 A 
BRANCH  11  18
ATOM     17  C   UNL     1      43.040   4.652  13.300  0.00  0.00    +0.000 C 
ATOM     18  O   UNL     1      43.653   5.479  12.318  0.00  0.00    +0.000 OA
ENDBRANCH  11  18
ENDBRANCH  10  16
ENDBRANCH   8  10
ENDBRANCH   7   8
ENDBRANCH   1   7
BRANCH   4  19
ATOM     19  C   UNL     1      47.742   3.191  17.199  0.00  0.00    +0.000 C 
BRANCH  19  20
ATOM     20  N   UNL     1      49.125   3.064  17.579  0.00  0.00    +0.000 N 
ATOM     21  C   UNL     1      49.966   2.207  16.918  0.00  0.00    +0.000 C 
ATOM     22  O   UNL     1      49.594   1.549  15.950  0.00  0.00    +0.000 OA
ATOM     23  H   UNL     1      49.386   3.423  18.491  0.00  0.00    +0.000 HD
BRANCH  21  24
ATOM     24  C   UNL     1      51.356   2.161  17.385  0.00  0.00    +0.000 A 
ATOM     25  C   UNL     1      51.962   0.932  17.611  0.00  0.00    +0.000 A 
ATOM     26  S   UNL     1      53.593   1.052  18.092  0.00  0.00    +0.000 S 
ATOM     27  C   UNL     1      53.532   2.751  18.069  0.00  0.00    +0.000 A 
ATOM     28  N   UNL     1      54.621   3.494  18.410  0.00  0.00    +0.000 NA
ATOM     29  C   UNL     1      54.425   4.769  18.377  0.00  0.00    +0.000 A 
ATOM     30  N   UNL     1      53.244   5.374  18.028  0.00  0.00    +0.000 N 
ATOM     31  C   UNL     1      52.127   4.664  17.655  0.00  0.00    +0.000 A 
ATOM     32  O   UNL     1      51.094   5.235  17.319  0.00  0.00    +0.000 OA
ATOM     33  C   UNL     1      52.289   3.223  17.682  0.00  0.00    +0.000 A 
ATOM     34  H   UNL     1      53.159   6.379  18.019  0.00  0.00    +0.000 HD
ENDBRANCH  21  24
ENDBRANCH  19  20
ENDBRANCH   4  19
TORSDOF 8
ENDMDL
MODEL 7
REMARK VINA RESULT:    -6.793      4.174      9.761
REMARK INTER + INTRA:         -11.385
REMARK INTER:                  -9.162
REMARK INTRA:                  -2.223
REMARK UNBOUND:                -1.416
REMARK  Name = 
REMARK  9 active torsions:
REMARK  status: ('A' for Active; 'I' for Inactive)
REMARK    1  A    between atoms: C_1  and  O_2
REMARK    2  A    between atoms: O_2  and  C_3
REMARK    3  A    between atoms: C_8  and  C_9
REMARK    4  A    between atoms: C_9  and  N_10
REMARK    5  A    between atoms: N_10  and  C_11
REMARK    6  A    between atoms: C_11  and  C_12
REMARK    7  A    between atoms: C_15  and  C_16
REMARK    8  A    between atoms: C_16  and  N_17
REMARK    9  A    between atoms: C_18  and  C_20
REMARK                            x       y       z     vdW  Elec       q    Type
REMARK                         _______ _______ _______ _____ _____    ______ ____
ROOT
ATOM      1  C   UNL     1      48.189   5.359  20.356  0.00  0.00    +0.000 A 
ATOM      2  C   UNL     1      48.855   4.183  19.981  0.00  0.00    +0.000 A 
ATOM      3  C   UNL     1      48.639   3.606  18.728  0.00  0.00    +0.000 A 
ATOM      4  C   UNL     1      47.742   4.186  17.824  0.00  0.00    +0.000 A 
ATOM      5  C   UNL     1      47.029   5.326  18.219  0.00  0.00    +0.000 A 
ATOM      6  C   UNL     1      47.255   5.911  19.468  0.00  0.00    +0.000 A 
ENDROOT
BRANCH   1   7
ATOM      7  C   UNL     1      48.484   6.017  21.688  0.00  0.00    +0.000 C 
BRANCH   7   8
ATOM      8  N   UNL     1      48.826   7.426  21.503  0.00  0.00    +0.000 NA
ATOM      9  H   UNL     1      48.322   7.795  20.699  0.00  0.00    +0.000 HD
BRANCH   8  10
ATOM     10  C   UNL     1      50.255   7.620  21.254  0.00  0.00    +0.000 C 
BRANCH  10  16
ATOM     11  C   UNL     1      49.920   8.214  18.781  0.00  0.00    +0.000 A 
ATOM     12  C   UNL     1      50.214   7.968  17.432  0.00  0.00    +0.000 A 
ATOM     13  C   UNL     1      51.155   7.000  17.071  0.00  0.00    +0.000 A 
ATOM     14  C   UNL     1      51.819   6.274  18.051  0.00  0.00    +0.000 A 
ATOM     15  C   UNL     1      51.527   6.502  19.395  0.00  0.00    +0.000 A 
ATOM     16  C   UNL     1      50.573   7.466  19.778  0.00  0.00    +0.000 A 
BRANCH  11  18
ATOM     17  C   UNL     1      47.900   9.427  18.408  0.00  0.00    +0.000 C 
ATOM     18  O   UNL     1      49.047   9.181  19.211  0.00  0.00    +0.000 OA
ENDBRANCH  11  18
ENDBRANCH  10  16
ENDBRANCH   8  10
ENDBRANCH   7   8
ENDBRANCH   1   7
BRANCH   4  19
ATOM     19  C   UNL     1      47.523   3.579  16.465  0.00  0.00    +0.000 C 
BRANCH  19  20
ATOM     20  N   UNL     1      46.884   4.514  15.575  0.00  0.00    +0.000 N 
ATOM     21  C   UNL     1      46.749   4.242  14.239  0.00  0.00    +0.000 C 
ATOM     22  O   UNL     1      47.121   3.178  13.752  0.00  0.00    +0.000 OA
ATOM     23  H   UNL     1      46.774   5.465  15.910  0.00  0.00    +0.000 HD
BRANCH  21  24
ATOM     24  C   UNL     1      46.077   5.262  13.426  0.00  0.00    +0.000 A 
ATOM     25  C   UNL     1      46.716   6.470  13.178  0.00  0.00    +0.000 A 
ATOM     26  S   UNL     1      45.828   7.520  12.170  0.00  0.00    +0.000 S 
ATOM     27  C   UNL     1      44.534   6.420  12.074  0.00  0.00    +0.000 A 
ATOM     28  N   UNL     1      43.414   6.721  11.362  0.00  0.00    +0.000 NA
ATOM     29  C   UNL     1      42.501   5.810  11.398  0.00  0.00    +0.000 A 
ATOM     30  N   UNL     1      42.605   4.620  12.075  0.00  0.00    +0.000 N 
ATOM     31  C   UNL     1      43.725   4.266  12.787  0.00  0.00    +0.000 A 
ATOM     32  O   UNL     1      43.799   3.181  13.356  0.00  0.00    +0.000 OA
ATOM     33  C   UNL     1      44.782   5.259  12.786  0.00  0.00    +0.000 A 
ATOM     34  H   UNL     1      41.852   3.948  12.059  0.00  0.00    +0.000 HD
ENDBRANCH  21  24
ENDBRANCH  19  20
ENDBRANCH   4  19
TORSDOF 8
ENDMDL
MODEL 8
REMARK VINA RESULT:    -6.557      4.045      8.639
REMARK INTER + INTRA:         -11.039
REMARK INTER:                  -8.874
REMARK INTRA:                  -2.166
REMARK UNBOUND:                -1.416
REMARK  Name = 
REMARK  9 active torsions:
REMARK  status: ('A' for Active; 'I' for Inactive)
REMARK    1  A    between atoms: C_1  and  O_2
REMARK    2  A    between atoms: O_2  and  C_3
REMARK    3  A    between atoms: C_8  and  C_9
REMARK    4  A    between atoms: C_9  and  N_10
REMARK    5  A    between atoms: N_10  and  C_11
REMARK    6  A    between atoms: C_11  and  C_12
REMARK    7  A    between atoms: C_15  and  C_16
REMARK    8  A    between atoms: C_16  and  N_17
REMARK    9  A    between atoms: C_18  and  C_20
REMARK                            x       y       z     vdW  Elec       q    Type
REMARK                         _______ _______ _______ _____ _____    ______ ____
ROOT
ATOM      1  C   UNL     1      50.723   7.277  17.760  0.00  0.00    +0.000 A 
ATOM      2  C   UNL     1      51.118   6.898  16.468  0.00  0.00    +0.000 A 
ATOM      3  C   UNL     1      50.389   7.306  15.349  0.00  0.00    +0.000 A 
ATOM      4  C   UNL     1      49.240   8.092  15.497  0.00  0.00    +0.000 A 
ATOM      5  C   UNL     1      48.809   8.420  16.789  0.00  0.00    +0.000 A 
ATOM      6  C   UNL     1      49.547   8.024  17.909  0.00  0.00    +0.000 A 
ENDROOT
BRANCH   1   7
ATOM      7  C   UNL     1      51.561   6.892  18.962  0.00  0.00    +0.000 C 
BRANCH   7   8
ATOM      8  N   UNL     1      50.780   6.083  19.897  0.00  0.00    +0.000 NA
ATOM      9  H   UNL     1      51.204   6.129  20.821  0.00  0.00    +0.000 HD
BRANCH   8  10
ATOM     10  C   UNL     1      50.731   4.675  19.503  0.00  0.00    +0.000 C 
BRANCH  10  16
ATOM     11  C   UNL     1      49.587   3.682  17.433  0.00  0.00    +0.000 A 
ATOM     12  C   UNL     1      48.432   3.522  16.655  0.00  0.00    +0.000 A 
ATOM     13  C   UNL     1      47.209   4.052  17.075  0.00  0.00    +0.000 A 
ATOM     14  C   UNL     1      47.125   4.739  18.280  0.00  0.00    +0.000 A 
ATOM     15  C   UNL     1      48.269   4.912  19.056  0.00  0.00    +0.000 A 
ATOM     16  C   UNL     1      49.513   4.395  18.644  0.00  0.00    +0.000 A 
BRANCH  11  18
ATOM     17  C   UNL     1      50.947   1.734  17.208  0.00  0.00    +0.000 C 
ATOM     18  O   UNL     1      50.808   3.147  17.110  0.00  0.00    +0.000 OA
ENDBRANCH  11  18
ENDBRANCH  10  16
ENDBRANCH   8  10
ENDBRANCH   7   8
ENDBRANCH   1   7
BRANCH   4  19
ATOM     19  C   UNL     1      48.465   8.550  14.291  0.00  0.00    +0.000 C 
BRANCH  19  20
ATOM     20  N   UNL     1      47.420   7.615  13.961  0.00  0.00    +0.000 N 
ATOM     21  C   UNL     1      47.639   6.592  13.076  0.00  0.00    +0.000 C 
ATOM     22  O   UNL     1      48.738   6.399  12.564  0.00  0.00    +0.000 OA
ATOM     23  H   UNL     1      46.471   7.884  14.197  0.00  0.00    +0.000 HD
BRANCH  21  24
ATOM     24  C   UNL     1      46.506   5.696  12.816  0.00  0.00    +0.000 A 
ATOM     25  C   UNL     1      46.618   4.345  13.120  0.00  0.00    +0.000 A 
ATOM     26  S   UNL     1      45.197   3.454  12.814  0.00  0.00    +0.000 S 
ATOM     27  C   UNL     1      44.400   4.831  12.212  0.00  0.00    +0.000 A 
ATOM     28  N   UNL     1      43.122   4.751  11.750  0.00  0.00    +0.000 NA
ATOM     29  C   UNL     1      42.650   5.863  11.297  0.00  0.00    +0.000 A 
ATOM     30  N   UNL     1      43.335   7.053  11.268  0.00  0.00    +0.000 N 
ATOM     31  C   UNL     1      44.617   7.184  11.745  0.00  0.00    +0.000 A 
ATOM     32  O   UNL     1      45.191   8.269  11.733  0.00  0.00    +0.000 OA
ATOM     33  C   UNL     1      45.200   5.960  12.260  0.00  0.00    +0.000 A 
ATOM     34  H   UNL     1      42.905   7.889  10.902  0.00  0.00    +0.000 HD
ENDBRANCH  21  24
ENDBRANCH  19  20
ENDBRANCH   4  19
TORSDOF 8
ENDMDL
MODEL 9
REMARK VINA RESULT:    -6.384      4.042      8.238
REMARK INTER + INTRA:         -10.785
REMARK INTER:                  -8.427
REMARK INTRA:                  -2.358
REMARK UNBOUND:                -1.416
REMARK  Name = 
REMARK  9 active torsions:
REMARK  status: ('A' for Active; 'I' for Inactive)
REMARK    1  A    between atoms: C_1  and  O_2
REMARK    2  A    between atoms: O_2  and  C_3
REMARK    3  A    between atoms: C_8  and  C_9
REMARK    4  A    between atoms: C_9  and  N_10
REMARK    5  A    between atoms: N_10  and  C_11
REMARK    6  A    between atoms: C_11  and  C_12
REMARK    7  A    between atoms: C_15  and  C_16
REMARK    8  A    between atoms: C_16  and  N_17
REMARK    9  A    between atoms: C_18  and  C_20
REMARK                            x       y       z     vdW  Elec       q    Type
REMARK                         _______ _______ _______ _____ _____    ______ ____
ROOT
ATOM      1  C   UNL     1      51.301   7.623  16.882  0.00  0.00    +0.000 A 
ATOM      2  C   UNL     1      50.517   8.610  17.498  0.00  0.00    +0.000 A 
ATOM      3  C   UNL     1      49.480   9.236  16.804  0.00  0.00    +0.000 A 
ATOM      4  C   UNL     1      49.210   8.899  15.473  0.00  0.00    +0.000 A 
ATOM      5  C   UNL     1      50.030   7.958  14.836  0.00  0.00    +0.000 A 
ATOM      6  C   UNL     1      51.060   7.321  15.535  0.00  0.00    +0.000 A 
ENDROOT
BRANCH   1   7
ATOM      7  C   UNL     1      52.376   6.897  17.665  0.00  0.00    +0.000 C 
BRANCH   7   8
ATOM      8  N   UNL     1      52.058   5.475  17.781  0.00  0.00    +0.000 NA
ATOM      9  H   UNL     1      51.754   5.121  16.876  0.00  0.00    +0.000 HD
BRANCH   8  10
ATOM     10  C   UNL     1      50.979   5.225  18.738  0.00  0.00    +0.000 C 
BRANCH  10  16
ATOM     11  C   UNL     1      50.061   3.134  17.569  0.00  0.00    +0.000 A 
ATOM     12  C   UNL     1      49.000   2.481  16.927  0.00  0.00    +0.000 A 
ATOM     13  C   UNL     1      47.748   3.091  16.816  0.00  0.00    +0.000 A 
ATOM     14  C   UNL     1      47.539   4.354  17.353  0.00  0.00    +0.000 A 
ATOM     15  C   UNL     1      48.589   5.017  17.984  0.00  0.00    +0.000 A 
ATOM     16  C   UNL     1      49.862   4.424  18.096  0.00  0.00    +0.000 A 
BRANCH  11  18
ATOM     17  C   UNL     1      51.477   1.225  17.360  0.00  0.00    +0.000 C 
ATOM     18  O   UNL     1      51.301   2.578  17.760  0.00  0.00    +0.000 OA
ENDBRANCH  11  18
ENDBRANCH  10  16
ENDBRANCH   8  10
ENDBRANCH   7   8
ENDBRANCH   1   7
BRANCH   4  19
ATOM     19  C   UNL     1      48.079   9.557  14.730  0.00  0.00    +0.000 C 
BRANCH  19  20
ATOM     20  N   UNL     1      47.140   8.580  14.242  0.00  0.00    +0.000 N 
ATOM     21  C   UNL     1      47.062   8.276  12.908  0.00  0.00    +0.000 C 
ATOM     22  O   UNL     1      47.815   8.783  12.081  0.00  0.00    +0.000 OA
ATOM     23  H   UNL     1      46.381   8.322  14.864  0.00  0.00    +0.000 HD
BRANCH  21  24
ATOM     24  C   UNL     1      46.074   7.262  12.523  0.00  0.00    +0.000 A 
ATOM     25  C   UNL     1      44.929   7.648  11.838  0.00  0.00    +0.000 A 
ATOM     26  S   UNL     1      43.914   6.346  11.413  0.00  0.00    +0.000 S 
ATOM     27  C   UNL     1      44.941   5.226  12.178  0.00  0.00    +0.000 A 
ATOM     28  N   UNL     1      44.634   3.900  12.201  0.00  0.00    +0.000 NA
ATOM     29  C   UNL     1      45.484   3.169  12.839  0.00  0.00    +0.000 A 
ATOM     30  N   UNL     1      46.619   3.638  13.452  0.00  0.00    +0.000 N 
ATOM     31  C   UNL     1      46.980   4.964  13.434  0.00  0.00    +0.000 A 
ATOM     32  O   UNL     1      48.017   5.348  13.966  0.00  0.00    +0.000 OA
ATOM     33  C   UNL     1      46.053   5.834  12.735  0.00  0.00    +0.000 A 
ATOM     34  H   UNL     1      47.246   3.010  13.933  0.00  0.00    +0.000 HD
ENDBRANCH  21  24
ENDBRANCH  19  20
ENDBRANCH   4  19
TORSDOF 8
ENDMDL
