MODEL 1
REMARK VINA RESULT:    -7.243      0.000      0.000
REMARK INTER + INTRA:         -10.074
REMARK INTER:                  -9.361
REMARK INTRA:                  -0.714
REMARK UNBOUND:                -0.714
REMARK  Name = 
REMARK  5 active torsions:
REMARK  status: ('A' for Active; 'I' for Inactive)
REMARK    1  A    between atoms: C_2  and  C_4
REMARK    2  A    between atoms: C_9  and  O_10
REMARK    3  A    between atoms: O_10  and  C_11
REMARK    4  A    between atoms: C_11  and  C_12
REMARK    5  A    between atoms: C_16  and  N_17
REMARK                            x       y       z     vdW  Elec       q    Type
REMARK                         _______ _______ _______ _____ _____    ______ ____
ROOT
ATOM      1  O   UNL     1      46.513   3.882  15.405  0.00  0.00    +0.000 OA
ENDROOT
BRANCH   1   7
ATOM      2  C   UNL     1      49.508   3.102  17.474  0.00  0.00    +0.000 A 
ATOM      3  C   UNL     1      49.268   3.961  18.550  0.00  0.00    +0.000 A 
ATOM      4  C   UNL     1      48.127   4.757  18.539  0.00  0.00    +0.000 A 
ATOM      5 BR   UNL     1      47.796   5.925  19.990  0.00  0.00    +0.000 Br
ATOM      6  C   UNL     1      47.226   4.702  17.473  0.00  0.00    +0.000 A 
ATOM      7  C   UNL     1      47.467   3.853  16.390  0.00  0.00    +0.000 A 
ATOM      8  C   UNL     1      48.619   3.061  16.389  0.00  0.00    +0.000 A 
BRANCH   2  10
ATOM      9  N   UNL     1      51.751   2.557  18.247  0.00  0.00    +0.000 N 
ATOM     10  C   UNL     1      50.705   2.227  17.432  0.00  0.00    +0.000 C 
ATOM     11  O   UNL     1      50.739   1.223  16.730  0.00  0.00    +0.000 OA
ATOM     12  H   UNL     1      52.511   1.889  18.293  0.00  0.00    +0.000 HD
ATOM     13  H   UNL     1      51.660   3.212  19.010  0.00  0.00    +0.000 HD
ENDBRANCH   2  10
ENDBRANCH   1   7
BRANCH   1  14
ATOM     14  C   UNL     1      46.992   3.832  14.062  0.00  0.00    +0.000 C 
BRANCH  14  15
ATOM     15  C   UNL     1      45.926   4.277  13.088  0.00  0.00    +0.000 A 
ATOM     16  C   UNL     1      45.122   5.382  13.387  0.00  0.00    +0.000 A 
ATOM     17  C   UNL     1      44.221   5.862  12.442  0.00  0.00    +0.000 A 
ATOM     18  C   UNL     1      44.124   5.249  11.191  0.00  0.00    +0.000 A 
ATOM     19  C   UNL     1      44.901   4.132  10.853  0.00  0.00    +0.000 A 
ATOM     20  C   UNL     1      45.776   3.643  11.839  0.00  0.00    +0.000 A 
BRANCH  19  21
ATOM     21  N   UNL     1      44.839   3.564   9.594  0.00  0.00    +0.000 N 
ATOM     22  C   UNL     1      44.690   2.120   9.404  0.00  0.00    +0.000 C 
ATOM     23  C   UNL     1      45.893   1.557   8.651  0.00  0.00    +0.000 C 
ATOM     24  C   UNL     1      46.160   2.340   7.366  0.00  0.00    +0.000 C 
ATOM     25  C   UNL     1      46.282   3.835   7.651  0.00  0.00    +0.000 C 
ATOM     26  C   UNL     1      45.050   4.364   8.389  0.00  0.00    +0.000 C 
ENDBRANCH  19  21
ENDBRANCH  14  15
ENDBRANCH   1  14
TORSDOF 5
ENDMDL
MODEL 2
REMARK VINA RESULT:    -7.218      3.727      4.903
REMARK INTER + INTRA:         -10.042
REMARK INTER:                  -9.028
REMARK INTRA:                  -1.014
REMARK UNBOUND:                -0.714
REMARK  Name = 
REMARK  5 active torsions:
REMARK  status: ('A' for Active; 'I' for Inactive)
REMARK    1  A    between atoms: C_2  and  C_4
REMARK    2  A    between atoms: C_9  and  O_10
REMARK    3  A    between atoms: O_10  and  C_11
REMARK    4  A    between atoms: C_11  and  C_12
REMARK    5  A    between atoms: C_16  and  N_17
REMARK                            x       y       z     vdW  Elec       q    Type
REMARK                         _______ _______ _______ _____ _____    ______ ____
ROOT
ATOM      1  O   UNL     1      47.584   4.916  13.321  0.00  0.00    +0.000 OA
ENDROOT
BRANCH   1   7
ATOM      2  C   UNL     1      46.948   8.583  13.220  0.00  0.00    +0.000 A 
ATOM      3  C   UNL     1      47.807   8.988  14.245  0.00  0.00    +0.000 A 
ATOM      4  C   UNL     1      48.556   8.028  14.920  0.00  0.00    +0.000 A 
ATOM      5 BR   UNL     1      49.720   8.569  16.310  0.00  0.00    +0.000 Br
ATOM      6  C   UNL     1      48.459   6.676  14.581  0.00  0.00    +0.000 A 
ATOM      7  C   UNL     1      47.593   6.265  13.566  0.00  0.00    +0.000 A 
ATOM      8  C   UNL     1      46.828   7.223  12.893  0.00  0.00    +0.000 A 
BRANCH   2  10
ATOM      9  N   UNL     1      44.790   9.599  12.737  0.00  0.00    +0.000 N 
ATOM     10  C   UNL     1      46.127   9.559  12.463  0.00  0.00    +0.000 C 
ATOM     11  O   UNL     1      46.634  10.332  11.658  0.00  0.00    +0.000 OA
ATOM     12  H   UNL     1      44.265  10.347  12.299  0.00  0.00    +0.000 HD
ATOM     13  H   UNL     1      44.390   9.169  13.559  0.00  0.00    +0.000 HD
ENDBRANCH   2  10
ENDBRANCH   1   7
BRANCH   1  14
ATOM     14  C   UNL     1      46.493   4.181  13.876  0.00  0.00    +0.000 C 
BRANCH  14  15
ATOM     15  C   UNL     1      45.323   4.143  12.922  0.00  0.00    +0.000 A 
ATOM     16  C   UNL     1      44.100   4.714  13.290  0.00  0.00    +0.000 A 
ATOM     17  C   UNL     1      43.059   4.782  12.370  0.00  0.00    +0.000 A 
ATOM     18  C   UNL     1      43.235   4.291  11.075  0.00  0.00    +0.000 A 
ATOM     19  C   UNL     1      44.439   3.700  10.666  0.00  0.00    +0.000 A 
ATOM     20  C   UNL     1      45.462   3.609  11.626  0.00  0.00    +0.000 A 
BRANCH  19  21
ATOM     21  N   UNL     1      44.624   3.266   9.366  0.00  0.00    +0.000 N 
ATOM     22  C   UNL     1      44.714   1.843   9.033  0.00  0.00    +0.000 C 
ATOM     23  C   UNL     1      46.073   1.528   8.414  0.00  0.00    +0.000 C 
ATOM     24  C   UNL     1      46.387   2.470   7.253  0.00  0.00    +0.000 C 
ATOM     25  C   UNL     1      46.252   3.930   7.681  0.00  0.00    +0.000 C 
ATOM     26  C   UNL     1      44.871   4.210   8.278  0.00  0.00    +0.000 C 
ENDBRANCH  19  21
ENDBRANCH  14  15
ENDBRANCH   1  14
TORSDOF 5
ENDMDL
MODEL 3
REMARK VINA RESULT:    -7.074      4.769      6.720
REMARK INTER + INTRA:          -9.856
REMARK INTER:                  -8.853
REMARK INTRA:                  -1.003
REMARK UNBOUND:                -0.714
REMARK  Name = 
REMARK  5 active torsions:
REMARK  status: ('A' for Active; 'I' for Inactive)
REMARK    1  A    between atoms: C_2  and  C_4
REMARK    2  A    between atoms: C_9  and  O_10
REMARK    3  A    between atoms: O_10  and  C_11
REMARK    4  A    between atoms: C_11  and  C_12
REMARK    5  A    between atoms: C_16  and  N_17
REMARK                            x       y       z     vdW  Elec       q    Type
REMARK                         _______ _______ _______ _____ _____    ______ ____
ROOT
ATOM      1  O   UNL     1      46.934   6.752  12.226  0.00  0.00    +0.000 OA
ENDROOT
BRANCH   1   7
ATOM      2  C   UNL     1      44.936   9.831  11.601  0.00  0.00    +0.000 A 
ATOM      3  C   UNL     1      45.952  10.784  11.714  0.00  0.00    +0.000 A 
ATOM      4  C   UNL     1      47.249  10.363  11.990  0.00  0.00    +0.000 A 
ATOM      5 BR   UNL     1      48.629  11.647  12.146  0.00  0.00    +0.000 Br
ATOM      6  C   UNL     1      47.541   9.006  12.152  0.00  0.00    +0.000 A 
ATOM      7  C   UNL     1      46.528   8.050  12.052  0.00  0.00    +0.000 A 
ATOM      8  C   UNL     1      45.221   8.469  11.787  0.00  0.00    +0.000 A 
BRANCH   2  10
ATOM      9  N   UNL     1      42.900   9.548  10.299  0.00  0.00    +0.000 N 
ATOM     10  C   UNL     1      43.536  10.220  11.304  0.00  0.00    +0.000 C 
ATOM     11  O   UNL     1      42.957  11.076  11.962  0.00  0.00    +0.000 OA
ATOM     12  H   UNL     1      41.912   9.743  10.185  0.00  0.00    +0.000 HD
ATOM     13  H   UNL     1      43.251   8.682   9.917  0.00  0.00    +0.000 HD
ENDBRANCH   2  10
ENDBRANCH   1   7
BRANCH   1  14
ATOM     14  C   UNL     1      46.258   6.011  13.241  0.00  0.00    +0.000 C 
BRANCH  14  15
ATOM     15  C   UNL     1      45.306   5.005  12.636  0.00  0.00    +0.000 A 
ATOM     16  C   UNL     1      44.162   4.614  13.338  0.00  0.00    +0.000 A 
ATOM     17  C   UNL     1      43.226   3.779  12.735  0.00  0.00    +0.000 A 
ATOM     18  C   UNL     1      43.423   3.338  11.424  0.00  0.00    +0.000 A 
ATOM     19  C   UNL     1      44.562   3.696  10.688  0.00  0.00    +0.000 A 
ATOM     20  C   UNL     1      45.510   4.509  11.334  0.00  0.00    +0.000 A 
BRANCH  19  21
ATOM     21  N   UNL     1      44.722   3.299   9.373  0.00  0.00    +0.000 N 
ATOM     22  C   UNL     1      44.776   1.886   8.993  0.00  0.00    +0.000 C 
ATOM     23  C   UNL     1      46.121   1.561   8.349  0.00  0.00    +0.000 C 
ATOM     24  C   UNL     1      46.444   2.533   7.214  0.00  0.00    +0.000 C 
ATOM     25  C   UNL     1      46.346   3.981   7.690  0.00  0.00    +0.000 C 
ATOM     26  C   UNL     1      44.978   4.272   8.312  0.00  0.00    +0.000 C 
ENDBRANCH  19  21
ENDBRANCH  14  15
ENDBRANCH   1  14
TORSDOF 5
ENDMDL
MODEL 4
REMARK VINA RESULT:    -6.935      5.211      6.396
REMARK INTER + INTRA:          -9.676
REMARK INTER:                  -8.829
REMARK INTRA:                  -0.847
REMARK UNBOUND:                -0.714
REMARK  Name = 
REMARK  5 active torsions:
REMARK  status: ('A' for Active; 'I' for Inactive)
REMARK    1  A    between atoms: C_2  and  C_4
REMARK    2  A    between atoms: C_9  and  O_10
REMARK    3  A    between atoms: O_10  and  C_11
REMARK    4  A    between atoms: C_11  and  C_12
REMARK    5  A    between atoms: C_16  and  N_17
REMARK                            x       y       z     vdW  Elec       q    Type
REMARK                         _______ _______ _______ _____ _____    ______ ____
ROOT
ATOM      1  O   UNL     1      46.372   7.013  12.834  0.00  0.00    +0.000 OA
ENDROOT
BRANCH   1   7
ATOM      2  C   UNL     1      47.771  10.293  11.765  0.00  0.00    +0.000 A 
ATOM      3  C   UNL     1      49.067   9.888  11.437  0.00  0.00    +0.000 A 
ATOM      4  C   UNL     1      49.416   8.549  11.584  0.00  0.00    +0.000 A 
ATOM      5 BR   UNL     1      51.170   7.993  11.143  0.00  0.00    +0.000 Br
ATOM      6  C   UNL     1      48.488   7.615  12.050  0.00  0.00    +0.000 A 
ATOM      7  C   UNL     1      47.194   8.016  12.391  0.00  0.00    +0.000 A 
ATOM      8  C   UNL     1      46.842   9.363  12.258  0.00  0.00    +0.000 A 
BRANCH   2  10
ATOM      9  N   UNL     1      46.215  12.087  12.301  0.00  0.00    +0.000 N 
ATOM     10  C   UNL     1      47.340  11.706  11.626  0.00  0.00    +0.000 C 
ATOM     11  O   UNL     1      47.990  12.511  10.969  0.00  0.00    +0.000 OA
ATOM     12  H   UNL     1      46.000  13.076  12.290  0.00  0.00    +0.000 HD
ATOM     13  H   UNL     1      45.810  11.530  13.039  0.00  0.00    +0.000 HD
ENDBRANCH   2  10
ENDBRANCH   1   7
BRANCH   1  14
ATOM     14  C   UNL     1      45.084   6.936  12.222  0.00  0.00    +0.000 C 
BRANCH  14  15
ATOM     15  C   UNL     1      44.716   5.505  11.909  0.00  0.00    +0.000 A 
ATOM     16  C   UNL     1      43.974   4.755  12.828  0.00  0.00    +0.000 A 
ATOM     17  C   UNL     1      43.536   3.479  12.492  0.00  0.00    +0.000 A 
ATOM     18  C   UNL     1      43.827   2.947  11.234  0.00  0.00    +0.000 A 
ATOM     19  C   UNL     1      44.577   3.658  10.286  0.00  0.00    +0.000 A 
ATOM     20  C   UNL     1      45.041   4.930  10.665  0.00  0.00    +0.000 A 
BRANCH  19  21
ATOM     21  N   UNL     1      44.814   3.146   9.024  0.00  0.00    +0.000 N 
ATOM     22  C   UNL     1      44.910   1.705   8.780  0.00  0.00    +0.000 C 
ATOM     23  C   UNL     1      46.293   1.350   8.239  0.00  0.00    +0.000 C 
ATOM     24  C   UNL     1      46.660   2.220   7.037  0.00  0.00    +0.000 C 
ATOM     25  C   UNL     1      46.514   3.704   7.371  0.00  0.00    +0.000 C 
ATOM     26  C   UNL     1      45.110   4.022   7.892  0.00  0.00    +0.000 C 
ENDBRANCH  19  21
ENDBRANCH  14  15
ENDBRANCH   1  14
TORSDOF 5
ENDMDL
MODEL 5
REMARK VINA RESULT:    -6.858      3.025      3.908
REMARK INTER + INTRA:          -9.576
REMARK INTER:                  -8.709
REMARK INTRA:                  -0.868
REMARK UNBOUND:                -0.714
REMARK  Name = 
REMARK  5 active torsions:
REMARK  status: ('A' for Active; 'I' for Inactive)
REMARK    1  A    between atoms: C_2  and  C_4
REMARK    2  A    between atoms: C_9  and  O_10
REMARK    3  A    between atoms: O_10  and  C_11
REMARK    4  A    between atoms: C_11  and  C_12
REMARK    5  A    between atoms: C_16  and  N_17
REMARK                            x       y       z     vdW  Elec       q    Type
REMARK                         _______ _______ _______ _____ _____    ______ ____
ROOT
ATOM      1  O   UNL     1      46.432   7.004  11.409  0.00  0.00    +0.000 OA
ENDROOT
BRANCH   1   7
ATOM      2  C   UNL     1      48.034   6.062  14.635  0.00  0.00    +0.000 A 
ATOM      3  C   UNL     1      49.013   7.058  14.699  0.00  0.00    +0.000 A 
ATOM      4  C   UNL     1      49.095   7.994  13.672  0.00  0.00    +0.000 A 
ATOM      5 BR   UNL     1      50.417   9.344  13.750  0.00  0.00    +0.000 Br
ATOM      6  C   UNL     1      48.213   7.947  12.589  0.00  0.00    +0.000 A 
ATOM      7  C   UNL     1      47.241   6.947  12.515  0.00  0.00    +0.000 A 
ATOM      8  C   UNL     1      47.162   5.997  13.537  0.00  0.00    +0.000 A 
BRANCH   2  10
ATOM      9  N   UNL     1      46.766   4.273  15.690  0.00  0.00    +0.000 N 
ATOM     10  C   UNL     1      47.896   5.040  15.701  0.00  0.00    +0.000 C 
ATOM     11  O   UNL     1      48.779   4.858  16.531  0.00  0.00    +0.000 OA
ATOM     12  H   UNL     1      46.739   3.505  16.350  0.00  0.00    +0.000 HD
ATOM     13  H   UNL     1      46.152   4.220  14.889  0.00  0.00    +0.000 HD
ENDBRANCH   2  10
ENDBRANCH   1   7
BRANCH   1  14
ATOM     14  C   UNL     1      45.046   6.743  11.627  0.00  0.00    +0.000 C 
BRANCH  14  15
ATOM     15  C   UNL     1      44.719   5.291  11.369  0.00  0.00    +0.000 A 
ATOM     16  C   UNL     1      43.943   4.574  12.286  0.00  0.00    +0.000 A 
ATOM     17  C   UNL     1      43.545   3.274  11.993  0.00  0.00    +0.000 A 
ATOM     18  C   UNL     1      43.909   2.685  10.780  0.00  0.00    +0.000 A 
ATOM     19  C   UNL     1      44.696   3.363   9.837  0.00  0.00    +0.000 A 
ATOM     20  C   UNL     1      45.117   4.661  10.174  0.00  0.00    +0.000 A 
BRANCH  19  21
ATOM     21  N   UNL     1      45.006   2.794   8.616  0.00  0.00    +0.000 N 
ATOM     22  C   UNL     1      45.478   1.412   8.506  0.00  0.00    +0.000 C 
ATOM     23  C   UNL     1      46.880   1.376   7.902  0.00  0.00    +0.000 C 
ATOM     24  C   UNL     1      46.944   2.172   6.599  0.00  0.00    +0.000 C 
ATOM     25  C   UNL     1      46.417   3.592   6.798  0.00  0.00    +0.000 C 
ATOM     26  C   UNL     1      45.004   3.584   7.387  0.00  0.00    +0.000 C 
ENDBRANCH  19  21
ENDBRANCH  14  15
ENDBRANCH   1  14
TORSDOF 5
ENDMDL
MODEL 6
REMARK VINA RESULT:    -6.799      4.892      5.635
REMARK INTER + INTRA:          -9.500
REMARK INTER:                  -8.625
REMARK INTRA:                  -0.874
REMARK UNBOUND:                -0.714
REMARK  Name = 
REMARK  5 active torsions:
REMARK  status: ('A' for Active; 'I' for Inactive)
REMARK    1  A    between atoms: C_2  and  C_4
REMARK    2  A    between atoms: C_9  and  O_10
REMARK    3  A    between atoms: O_10  and  C_11
REMARK    4  A    between atoms: C_11  and  C_12
REMARK    5  A    between atoms: C_16  and  N_17
REMARK                            x       y       z     vdW  Elec       q    Type
REMARK                         _______ _______ _______ _____ _____    ______ ____
ROOT
ATOM      1  O   UNL     1      47.269   6.611  12.599  0.00  0.00    +0.000 OA
ENDROOT
BRANCH   1   7
ATOM      2  C   UNL     1      50.094   8.709  11.384  0.00  0.00    +0.000 A 
ATOM      3  C   UNL     1      49.464   9.957  11.386  0.00  0.00    +0.000 A 
ATOM      4  C   UNL     1      48.135  10.044  11.789  0.00  0.00    +0.000 A 
ATOM      5 BR   UNL     1      47.275  11.729  11.793  0.00  0.00    +0.000 Br
ATOM      6  C   UNL     1      47.433   8.905  12.192  0.00  0.00    +0.000 A 
ATOM      7  C   UNL     1      48.055   7.654  12.181  0.00  0.00    +0.000 A 
ATOM      8  C   UNL     1      49.385   7.559  11.764  0.00  0.00    +0.000 A 
BRANCH   2  10
ATOM      9  N   UNL     1      52.033   7.293  10.986  0.00  0.00    +0.000 N 
ATOM     10  C   UNL     1      51.509   8.555  10.968  0.00  0.00    +0.000 C 
ATOM     11  O   UNL     1      52.169   9.511  10.578  0.00  0.00    +0.000 OA
ATOM     12  H   UNL     1      52.960   7.187  10.591  0.00  0.00    +0.000 HD
ATOM     13  H   UNL     1      51.457   6.467  11.053  0.00  0.00    +0.000 HD
ENDBRANCH   2  10
ENDBRANCH   1   7
BRANCH   1  14
ATOM     14  C   UNL     1      45.860   6.843  12.600  0.00  0.00    +0.000 C 
BRANCH  14  15
ATOM     15  C   UNL     1      45.104   5.599  12.198  0.00  0.00    +0.000 A 
ATOM     16  C   UNL     1      44.096   5.094  13.026  0.00  0.00    +0.000 A 
ATOM     17  C   UNL     1      43.321   4.019  12.602  0.00  0.00    +0.000 A 
ATOM     18  C   UNL     1      43.543   3.447  11.348  0.00  0.00    +0.000 A 
ATOM     19  C   UNL     1      44.551   3.912  10.491  0.00  0.00    +0.000 A 
ATOM     20  C   UNL     1      45.344   4.975  10.958  0.00  0.00    +0.000 A 
BRANCH  19  21
ATOM     21  N   UNL     1      44.728   3.376   9.229  0.00  0.00    +0.000 N 
ATOM     22  C   UNL     1      44.701   1.930   8.993  0.00  0.00    +0.000 C 
ATOM     23  C   UNL     1      46.042   1.459   8.436  0.00  0.00    +0.000 C 
ATOM     24  C   UNL     1      46.464   2.290   7.225  0.00  0.00    +0.000 C 
ATOM     25  C   UNL     1      46.446   3.782   7.551  0.00  0.00    +0.000 C 
ATOM     26  C   UNL     1      45.081   4.218   8.088  0.00  0.00    +0.000 C 
ENDBRANCH  19  21
ENDBRANCH  14  15
ENDBRANCH   1  14
TORSDOF 5
ENDMDL
MODEL 7
REMARK VINA RESULT:    -6.759      2.181      2.598
REMARK INTER + INTRA:          -9.448
REMARK INTER:                  -8.743
REMARK INTRA:                  -0.706
REMARK UNBOUND:                -0.714
REMARK  Name = 
REMARK  5 active torsions:
REMARK  status: ('A' for Active; 'I' for Inactive)
REMARK    1  A    between atoms: C_2  and  C_4
REMARK    2  A    between atoms: C_9  and  O_10
REMARK    3  A    between atoms: O_10  and  C_11
REMARK    4  A    between atoms: C_11  and  C_12
REMARK    5  A    between atoms: C_16  and  N_17
REMARK                            x       y       z     vdW  Elec       q    Type
REMARK                         _______ _______ _______ _____ _____    ______ ____
ROOT
ATOM      1  O   UNL     1      46.610   3.538  15.198  0.00  0.00    +0.000 OA
ENDROOT
BRANCH   1   7
ATOM      2  C   UNL     1      48.532   5.024  18.019  0.00  0.00    +0.000 A 
ATOM      3  C   UNL     1      49.556   4.077  18.117  0.00  0.00    +0.000 A 
ATOM      4  C   UNL     1      49.561   2.992  17.244  0.00  0.00    +0.000 A 
ATOM      5 BR   UNL     1      50.941   1.705  17.372  0.00  0.00    +0.000 Br
ATOM      6  C   UNL     1      48.562   2.847  16.279  0.00  0.00    +0.000 A 
ATOM      7  C   UNL     1      47.531   3.784  16.184  0.00  0.00    +0.000 A 
ATOM      8  C   UNL     1      47.513   4.868  17.066  0.00  0.00    +0.000 A 
BRANCH   2  10
ATOM      9  N   UNL     1      47.323   6.935  18.919  0.00  0.00    +0.000 N 
ATOM     10  C   UNL     1      48.476   6.202  18.918  0.00  0.00    +0.000 C 
ATOM     11  O   UNL     1      49.407   6.481  19.665  0.00  0.00    +0.000 OA
ATOM     12  H   UNL     1      47.256   7.664  19.619  0.00  0.00    +0.000 HD
ATOM     13  H   UNL     1      46.462   6.593  18.519  0.00  0.00    +0.000 HD
ENDBRANCH   2  10
ENDBRANCH   1   7
BRANCH   1  14
ATOM     14  C   UNL     1      46.964   3.966  13.883  0.00  0.00    +0.000 C 
BRANCH  14  15
ATOM     15  C   UNL     1      45.742   4.084  13.003  0.00  0.00    +0.000 A 
ATOM     16  C   UNL     1      44.622   4.792  13.452  0.00  0.00    +0.000 A 
ATOM     17  C   UNL     1      43.543   5.001  12.598  0.00  0.00    +0.000 A 
ATOM     18  C   UNL     1      43.580   4.513  11.290  0.00  0.00    +0.000 A 
ATOM     19  C   UNL     1      44.677   3.787  10.803  0.00  0.00    +0.000 A 
ATOM     20  C   UNL     1      45.737   3.558  11.697  0.00  0.00    +0.000 A 
BRANCH  19  21
ATOM     21  N   UNL     1      44.729   3.355   9.490  0.00  0.00    +0.000 N 
ATOM     22  C   UNL     1      44.736   1.932   9.146  0.00  0.00    +0.000 C 
ATOM     23  C   UNL     1      46.022   1.572   8.407  0.00  0.00    +0.000 C 
ATOM     24  C   UNL     1      46.266   2.509   7.225  0.00  0.00    +0.000 C 
ATOM     25  C   UNL     1      46.223   3.970   7.668  0.00  0.00    +0.000 C 
ATOM     26  C   UNL     1      44.912   4.296   8.387  0.00  0.00    +0.000 C 
ENDBRANCH  19  21
ENDBRANCH  14  15
ENDBRANCH   1  14
TORSDOF 5
ENDMDL
MODEL 8
REMARK VINA RESULT:    -6.673      2.493      3.533
REMARK INTER + INTRA:          -9.337
REMARK INTER:                  -8.460
REMARK INTRA:                  -0.877
REMARK UNBOUND:                -0.714
REMARK  Name = 
REMARK  5 active torsions:
REMARK  status: ('A' for Active; 'I' for Inactive)
REMARK    1  A    between atoms: C_2  and  C_4
REMARK    2  A    between atoms: C_9  and  O_10
REMARK    3  A    between atoms: O_10  and  C_11
REMARK    4  A    between atoms: C_11  and  C_12
REMARK    5  A    between atoms: C_16  and  N_17
REMARK                            x       y       z     vdW  Elec       q    Type
REMARK                         _______ _______ _______ _____ _____    ______ ____
ROOT
ATOM      1  O   UNL     1      49.237   7.723  15.710  0.00  0.00    +0.000 OA
ENDROOT
BRANCH   1   7
ATOM      2  C   UNL     1      47.913   4.746  17.512  0.00  0.00    +0.000 A 
ATOM      3  C   UNL     1      47.698   5.322  18.768  0.00  0.00    +0.000 A 
ATOM      4  C   UNL     1      48.000   6.667  18.958  0.00  0.00    +0.000 A 
ATOM      5 BR   UNL     1      47.712   7.452  20.655  0.00  0.00    +0.000 Br
ATOM      6  C   UNL     1      48.509   7.440  17.911  0.00  0.00    +0.000 A 
ATOM      7  C   UNL     1      48.738   6.867  16.658  0.00  0.00    +0.000 A 
ATOM      8  C   UNL     1      48.449   5.513  16.466  0.00  0.00    +0.000 A 
BRANCH   2  10
ATOM      9  N   UNL     1      48.612   2.546  16.740  0.00  0.00    +0.000 N 
ATOM     10  C   UNL     1      47.607   3.319  17.249  0.00  0.00    +0.000 C 
ATOM     11  O   UNL     1      46.512   2.840  17.520  0.00  0.00    +0.000 OA
ATOM     12  H   UNL     1      48.424   1.553  16.675  0.00  0.00    +0.000 HD
ATOM     13  H   UNL     1      49.579   2.838  16.747  0.00  0.00    +0.000 HD
ENDBRANCH   2  10
ENDBRANCH   1   7
BRANCH   1  14
ATOM     14  C   UNL     1      49.253   7.238  14.368  0.00  0.00    +0.000 C 
BRANCH  14  15
ATOM     15  C   UNL     1      47.872   7.279  13.758  0.00  0.00    +0.000 A 
ATOM     16  C   UNL     1      47.185   8.494  13.664  0.00  0.00    +0.000 A 
ATOM     17  C   UNL     1      45.964   8.553  12.999  0.00  0.00    +0.000 A 
ATOM     18  C   UNL     1      45.428   7.403  12.416  0.00  0.00    +0.000 A 
ATOM     19  C   UNL     1      46.076   6.162  12.497  0.00  0.00    +0.000 A 
ATOM     20  C   UNL     1      47.289   6.122  13.207  0.00  0.00    +0.000 A 
BRANCH  19  21
ATOM     21  N   UNL     1      45.565   5.040  11.870  0.00  0.00    +0.000 N 
ATOM     22  C   UNL     1      44.998   5.101  10.521  0.00  0.00    +0.000 C 
ATOM     23  C   UNL     1      43.527   4.694  10.545  0.00  0.00    +0.000 C 
ATOM     24  C   UNL     1      43.332   3.355  11.254  0.00  0.00    +0.000 C 
ATOM     25  C   UNL     1      43.968   3.372  12.642  0.00  0.00    +0.000 C 
ATOM     26  C   UNL     1      45.446   3.765  12.573  0.00  0.00    +0.000 C 
ENDBRANCH  19  21
ENDBRANCH  14  15
ENDBRANCH   1  14
TORSDOF 5
ENDMDL
MODEL 9
REMARK VINA RESULT:    -6.635      4.400      8.449
REMARK INTER + INTRA:          -9.289
REMARK INTER:                  -8.344
REMARK INTRA:                  -0.944
REMARK UNBOUND:                -0.714
REMARK  Name = 
REMARK  5 active torsions:
REMARK  status: ('A' for Active; 'I' for Inactive)
REMARK    1  A    between atoms: C_2  and  C_4
REMARK    2  A    between atoms: C_9  and  O_10
REMARK    3  A    between atoms: O_10  and  C_11
REMARK    4  A    between atoms: C_11  and  C_12
REMARK    5  A    between atoms: C_16  and  N_17
REMARK                            x       y       z     vdW  Elec       q    Type
REMARK                         _______ _______ _______ _____ _____    ______ ____
ROOT
ATOM      1  O   UNL     1      45.859   7.053  10.963  0.00  0.00    +0.000 OA
ENDROOT
BRANCH   1   7
ATOM      2  C   UNL     1      44.317   3.666  11.048  0.00  0.00    +0.000 A 
ATOM      3  C   UNL     1      44.708   3.209   9.786  0.00  0.00    +0.000 A 
ATOM      4  C   UNL     1      45.463   4.044   8.968  0.00  0.00    +0.000 A 
ATOM      5 BR   UNL     1      45.995   3.434   7.258  0.00  0.00    +0.000 Br
ATOM      6  C   UNL     1      45.833   5.322   9.396  0.00  0.00    +0.000 A 
ATOM      7  C   UNL     1      45.435   5.787  10.652  0.00  0.00    +0.000 A 
ATOM      8  C   UNL     1      44.665   4.958  11.472  0.00  0.00    +0.000 A 
BRANCH   2  10
ATOM      9  N   UNL     1      43.495   3.172  13.285  0.00  0.00    +0.000 N 
ATOM     10  C   UNL     1      43.514   2.820  11.965  0.00  0.00    +0.000 C 
ATOM     11  O   UNL     1      42.857   1.872  11.550  0.00  0.00    +0.000 OA
ATOM     12  H   UNL     1      42.853   2.657  13.876  0.00  0.00    +0.000 HD
ATOM     13  H   UNL     1      43.807   4.075  13.611  0.00  0.00    +0.000 HD
ENDBRANCH   2  10
ENDBRANCH   1   7
BRANCH   1  14
ATOM     14  C   UNL     1      46.050   7.331  12.350  0.00  0.00    +0.000 C 
BRANCH  14  15
ATOM     15  C   UNL     1      47.520   7.400  12.693  0.00  0.00    +0.000 A 
ATOM     16  C   UNL     1      48.441   7.846  11.739  0.00  0.00    +0.000 A 
ATOM     17  C   UNL     1      49.776   8.021  12.090  0.00  0.00    +0.000 A 
ATOM     18  C   UNL     1      50.197   7.761  13.396  0.00  0.00    +0.000 A 
ATOM     19  C   UNL     1      49.310   7.301  14.380  0.00  0.00    +0.000 A 
ATOM     20  C   UNL     1      47.975   7.096  13.990  0.00  0.00    +0.000 A 
BRANCH  19  21
ATOM     21  N   UNL     1      49.724   7.099  15.684  0.00  0.00    +0.000 N 
ATOM     22  C   UNL     1      51.094   7.390  16.113  0.00  0.00    +0.000 C 
ATOM     23  C   UNL     1      51.774   6.119  16.615  0.00  0.00    +0.000 C 
ATOM     24  C   UNL     1      50.920   5.407  17.664  0.00  0.00    +0.000 C 
ATOM     25  C   UNL     1      49.506   5.160  17.142  0.00  0.00    +0.000 C 
ATOM     26  C   UNL     1      48.852   6.460  16.668  0.00  0.00    +0.000 C 
ENDBRANCH  19  21
ENDBRANCH  14  15
ENDBRANCH   1  14
TORSDOF 5
ENDMDL
