MODEL 1
REMARK VINA RESULT:    -8.267      0.000      0.000
REMARK INTER + INTRA:         -12.336
REMARK INTER:                 -11.167
REMARK INTRA:                  -1.169
REMARK UNBOUND:                -1.169
REMARK  Name = 
REMARK  7 active torsions:
REMARK  status: ('A' for Active; 'I' for Inactive)
REMARK    1  A    between atoms: C_1  and  C_2
REMARK    2  A    between atoms: C_2  and  C_3
REMARK    3  A    between atoms: C_2  and  C_14
REMARK    4  A    between atoms: C_3  and  O_4
REMARK    5  A    between atoms: O_4  and  C_5
REMARK    6  A    between atoms: C_8  and  C_9
REMARK    7  A    between atoms: C_18  and  C_19
REMARK                            x       y       z     vdW  Elec       q    Type
REMARK                         _______ _______ _______ _____ _____    ______ ____
ROOT
ATOM      1  C   UNL     1      43.504   3.533  12.733  0.00  0.00    +0.000 C 
ATOM      2  C   UNL     1      43.837   4.907  12.142  0.00  0.00    +0.000 C 
ENDROOT
BRANCH   2   3
ATOM      3  C   UNL     1      45.247   5.330  12.521  0.00  0.00    +0.000 A 
ATOM      4  C   UNL     1      45.957   6.207  11.693  0.00  0.00    +0.000 A 
ATOM      5  C   UNL     1      47.245   6.611  12.035  0.00  0.00    +0.000 A 
ATOM      6  C   UNL     1      47.832   6.156  13.219  0.00  0.00    +0.000 A 
ATOM      7  C   UNL     1      47.144   5.299  14.094  0.00  0.00    +0.000 A 
ATOM      8  C   UNL     1      45.856   4.883  13.708  0.00  0.00    +0.000 A 
BRANCH   7   9
ATOM      9  C   UNL     1      47.706   4.909  15.409  0.00  0.00    +0.000 A 
ATOM     10  C   UNL     1      48.494   5.808  16.154  0.00  0.00    +0.000 A 
ATOM     11  C   UNL     1      48.950   5.494  17.437  0.00  0.00    +0.000 A 
ATOM     12  C   UNL     1      48.621   4.272  18.012  0.00  0.00    +0.000 A 
ATOM     13  C   UNL     1      47.861   3.354  17.294  0.00  0.00    +0.000 A 
ATOM     14  C   UNL     1      47.419   3.667  16.004  0.00  0.00    +0.000 A 
ENDBRANCH   7   9
ENDBRANCH   2   3
BRANCH   2  15
ATOM     15  C   UNL     1      43.616   4.908  10.618  0.00  0.00    +0.000 C 
BRANCH  15  16
ATOM     16  O   UNL     1      43.639   3.557  10.142  0.00  0.00    +0.000 OA
BRANCH  16  17
ATOM     17  C   UNL     1      44.589   3.243   9.214  0.00  0.00    +0.000 A 
ATOM     18  C   UNL     1      45.204   4.125   8.332  0.00  0.00    +0.000 A 
ATOM     19  C   UNL     1      46.191   3.654   7.464  0.00  0.00    +0.000 A 
ATOM     20  C   UNL     1      46.523   2.306   7.510  0.00  0.00    +0.000 A 
ATOM     21  N   UNL     1      45.930   1.407   8.344  0.00  0.00    +0.000 NA
ATOM     22  C   UNL     1      44.977   1.907   9.168  0.00  0.00    +0.000 A 
BRANCH  20  23
ATOM     23  C   UNL     1      47.603   1.780   6.617  0.00  0.00    +0.000 C 
ATOM     24  N   UNL     1      48.665   2.618   6.425  0.00  0.00    +0.000 N 
ATOM     25  O   UNL     1      47.538   0.680   6.080  0.00  0.00    +0.000 OA
ATOM     26  H   UNL     1      48.667   3.528   6.874  0.00  0.00    +0.000 HD
ATOM     27  H   UNL     1      49.415   2.343   5.810  0.00  0.00    +0.000 HD
ENDBRANCH  20  23
ENDBRANCH  16  17
ENDBRANCH  15  16
ENDBRANCH   2  15
TORSDOF 6
ENDMDL
MODEL 2
REMARK VINA RESULT:    -8.146      1.672      3.608
REMARK INTER + INTRA:         -12.172
REMARK INTER:                 -11.112
REMARK INTRA:                  -1.060
REMARK UNBOUND:                -1.169
REMARK  Name = 
REMARK  7 active torsions:
REMARK  status: ('A' for Active; 'I' for Inactive)
REMARK    1  A    between atoms: C_1  and  C_2
REMARK    2  A    between atoms: C_2  and  C_3
REMARK    3  A    between atoms: C_2  and  C_14
REMARK    4  A    between atoms: C_3  and  O_4
REMARK    5  A    between atoms: O_4  and  C_5
REMARK    6  A    between atoms: C_8  and  C_9
REMARK    7  A    between atoms: C_18  and  C_19
REMARK                            x       y       z     vdW  Elec       q    Type
REMARK                         _______ _______ _______ _____ _____    ______ ____
ROOT
ATOM      1  C   UNL     1      42.885   5.321  12.311  0.00  0.00    +0.000 C 
ATOM      2  C   UNL     1      44.128   4.822  11.569  0.00  0.00    +0.000 C 
ENDROOT
BRANCH   2   3
ATOM      3  C   UNL     1      45.395   5.219  12.308  0.00  0.00    +0.000 A 
ATOM      4  C   UNL     1      45.866   4.425  13.360  0.00  0.00    +0.000 A 
ATOM      5  C   UNL     1      47.032   4.772  14.037  0.00  0.00    +0.000 A 
ATOM      6  C   UNL     1      47.751   5.910  13.659  0.00  0.00    +0.000 A 
ATOM      7  C   UNL     1      47.331   6.718  12.590  0.00  0.00    +0.000 A 
ATOM      8  C   UNL     1      46.133   6.361  11.944  0.00  0.00    +0.000 A 
BRANCH   7   9
ATOM      9  C   UNL     1      48.148   7.854  12.101  0.00  0.00    +0.000 A 
ATOM     10  C   UNL     1      47.601   9.147  11.997  0.00  0.00    +0.000 A 
ATOM     11  C   UNL     1      48.381  10.247  11.633  0.00  0.00    +0.000 A 
ATOM     12  C   UNL     1      49.736  10.082  11.369  0.00  0.00    +0.000 A 
ATOM     13  C   UNL     1      50.303   8.813  11.443  0.00  0.00    +0.000 A 
ATOM     14  C   UNL     1      49.514   7.712  11.794  0.00  0.00    +0.000 A 
ENDBRANCH   7   9
ENDBRANCH   2   3
BRANCH   2  15
ATOM     15  C   UNL     1      44.042   3.302  11.331  0.00  0.00    +0.000 C 
BRANCH  15  16
ATOM     16  O   UNL     1      43.640   3.065   9.977  0.00  0.00    +0.000 OA
BRANCH  16  17
ATOM     17  C   UNL     1      44.633   2.907   9.054  0.00  0.00    +0.000 A 
ATOM     18  C   UNL     1      45.105   3.877   8.176  0.00  0.00    +0.000 A 
ATOM     19  C   UNL     1      46.159   3.571   7.313  0.00  0.00    +0.000 A 
ATOM     20  C   UNL     1      46.701   2.293   7.362  0.00  0.00    +0.000 A 
ATOM     21  N   UNL     1      46.254   1.309   8.192  0.00  0.00    +0.000 NA
ATOM     22  C   UNL     1      45.230   1.650   9.010  0.00  0.00    +0.000 A 
BRANCH  20  23
ATOM     23  C   UNL     1      47.857   1.947   6.474  0.00  0.00    +0.000 C 
ATOM     24  N   UNL     1      48.846   2.886   6.408  0.00  0.00    +0.000 N 
ATOM     25  O   UNL     1      47.910   0.901   5.837  0.00  0.00    +0.000 OA
ATOM     26  H   UNL     1      48.751   3.746   6.938  0.00  0.00    +0.000 HD
ATOM     27  H   UNL     1      49.641   2.735   5.806  0.00  0.00    +0.000 HD
ENDBRANCH  20  23
ENDBRANCH  16  17
ENDBRANCH  15  16
ENDBRANCH   2  15
TORSDOF 6
ENDMDL
MODEL 3
REMARK VINA RESULT:    -7.277      3.384      7.557
REMARK INTER + INTRA:         -10.999
REMARK INTER:                 -10.623
REMARK INTRA:                  -0.376
REMARK UNBOUND:                -1.169
REMARK  Name = 
REMARK  7 active torsions:
REMARK  status: ('A' for Active; 'I' for Inactive)
REMARK    1  A    between atoms: C_1  and  C_2
REMARK    2  A    between atoms: C_2  and  C_3
REMARK    3  A    between atoms: C_2  and  C_14
REMARK    4  A    between atoms: C_3  and  O_4
REMARK    5  A    between atoms: O_4  and  C_5
REMARK    6  A    between atoms: C_8  and  C_9
REMARK    7  A    between atoms: C_18  and  C_19
REMARK                            x       y       z     vdW  Elec       q    Type
REMARK                         _______ _______ _______ _____ _____    ______ ____
ROOT
ATOM      1  C   UNL     1      44.645   8.537  11.386  0.00  0.00    +0.000 C 
ATOM      2  C   UNL     1      45.104   7.407  12.312  0.00  0.00    +0.000 C 
ENDROOT
BRANCH   2   3
ATOM      3  C   UNL     1      44.593   6.063  11.820  0.00  0.00    +0.000 A 
ATOM      4  C   UNL     1      43.438   5.509  12.383  0.00  0.00    +0.000 A 
ATOM      5  C   UNL     1      42.953   4.284  11.932  0.00  0.00    +0.000 A 
ATOM      6  C   UNL     1      43.609   3.606  10.901  0.00  0.00    +0.000 A 
ATOM      7  C   UNL     1      44.754   4.139  10.287  0.00  0.00    +0.000 A 
ATOM      8  C   UNL     1      45.240   5.364  10.784  0.00  0.00    +0.000 A 
BRANCH   7   9
ATOM      9  C   UNL     1      45.386   3.491   9.113  0.00  0.00    +0.000 A 
ATOM     10  C   UNL     1      45.932   4.262   8.069  0.00  0.00    +0.000 A 
ATOM     11  C   UNL     1      46.617   3.673   7.004  0.00  0.00    +0.000 A 
ATOM     12  C   UNL     1      46.781   2.293   6.960  0.00  0.00    +0.000 A 
ATOM     13  C   UNL     1      46.235   1.502   7.966  0.00  0.00    +0.000 A 
ATOM     14  C   UNL     1      45.537   2.095   9.023  0.00  0.00    +0.000 A 
ENDBRANCH   7   9
ENDBRANCH   2   3
BRANCH   2  15
ATOM     15  C   UNL     1      46.636   7.427  12.471  0.00  0.00    +0.000 C 
BRANCH  15  16
ATOM     16  O   UNL     1      47.119   6.079  12.509  0.00  0.00    +0.000 OA
BRANCH  16  17
ATOM     17  C   UNL     1      47.397   5.554  13.737  0.00  0.00    +0.000 A 
ATOM     18  C   UNL     1      48.030   6.208  14.789  0.00  0.00    +0.000 A 
ATOM     19  C   UNL     1      48.208   5.544  16.005  0.00  0.00    +0.000 A 
ATOM     20  C   UNL     1      47.745   4.239  16.118  0.00  0.00    +0.000 A 
ATOM     21  N   UNL     1      47.140   3.558  15.106  0.00  0.00    +0.000 NA
ATOM     22  C   UNL     1      46.988   4.240  13.945  0.00  0.00    +0.000 A 
BRANCH  20  23
ATOM     23  C   UNL     1      47.890   3.514  17.421  0.00  0.00    +0.000 C 
ATOM     24  N   UNL     1      46.833   2.724  17.772  0.00  0.00    +0.000 N 
ATOM     25  O   UNL     1      48.879   3.631  18.134  0.00  0.00    +0.000 OA
ATOM     26  H   UNL     1      46.025   2.673  17.159  0.00  0.00    +0.000 HD
ATOM     27  H   UNL     1      46.847   2.230  18.651  0.00  0.00    +0.000 HD
ENDBRANCH  20  23
ENDBRANCH  16  17
ENDBRANCH  15  16
ENDBRANCH   2  15
TORSDOF 6
ENDMDL
MODEL 4
REMARK VINA RESULT:    -7.222      1.678      2.407
REMARK INTER + INTRA:         -10.924
REMARK INTER:                  -9.995
REMARK INTRA:                  -0.929
REMARK UNBOUND:                -1.169
REMARK  Name = 
REMARK  7 active torsions:
REMARK  status: ('A' for Active; 'I' for Inactive)
REMARK    1  A    between atoms: C_1  and  C_2
REMARK    2  A    between atoms: C_2  and  C_3
REMARK    3  A    between atoms: C_2  and  C_14
REMARK    4  A    between atoms: C_3  and  O_4
REMARK    5  A    between atoms: O_4  and  C_5
REMARK    6  A    between atoms: C_8  and  C_9
REMARK    7  A    between atoms: C_18  and  C_19
REMARK                            x       y       z     vdW  Elec       q    Type
REMARK                         _______ _______ _______ _____ _____    ______ ____
ROOT
ATOM      1  C   UNL     1      45.038   3.384  12.583  0.00  0.00    +0.000 C 
ATOM      2  C   UNL     1      44.115   4.578  12.320  0.00  0.00    +0.000 C 
ENDROOT
BRANCH   2   3
ATOM      3  C   UNL     1      44.908   5.874  12.272  0.00  0.00    +0.000 A 
ATOM      4  C   UNL     1      44.383   6.987  11.606  0.00  0.00    +0.000 A 
ATOM      5  C   UNL     1      45.094   8.184  11.565  0.00  0.00    +0.000 A 
ATOM      6  C   UNL     1      46.333   8.285  12.205  0.00  0.00    +0.000 A 
ATOM      7  C   UNL     1      46.884   7.203  12.910  0.00  0.00    +0.000 A 
ATOM      8  C   UNL     1      46.157   5.997  12.908  0.00  0.00    +0.000 A 
BRANCH   7   9
ATOM      9  C   UNL     1      48.134   7.335  13.694  0.00  0.00    +0.000 A 
ATOM     10  C   UNL     1      48.270   6.711  14.949  0.00  0.00    +0.000 A 
ATOM     11  C   UNL     1      49.474   6.743  15.656  0.00  0.00    +0.000 A 
ATOM     12  C   UNL     1      50.579   7.396  15.122  0.00  0.00    +0.000 A 
ATOM     13  C   UNL     1      50.471   8.040  13.893  0.00  0.00    +0.000 A 
ATOM     14  C   UNL     1      49.259   8.019  13.195  0.00  0.00    +0.000 A 
ENDBRANCH   7   9
ENDBRANCH   2   3
BRANCH   2  15
ATOM     15  C   UNL     1      43.288   4.351  11.041  0.00  0.00    +0.000 C 
BRANCH  15  16
ATOM     16  O   UNL     1      43.623   3.072  10.490  0.00  0.00    +0.000 OA
BRANCH  16  17
ATOM     17  C   UNL     1      44.544   3.053   9.484  0.00  0.00    +0.000 A 
ATOM     18  C   UNL     1      45.020   4.154   8.780  0.00  0.00    +0.000 A 
ATOM     19  C   UNL     1      45.997   3.974   7.799  0.00  0.00    +0.000 A 
ATOM     20  C   UNL     1      46.460   2.686   7.557  0.00  0.00    +0.000 A 
ATOM     21  N   UNL     1      46.005   1.581   8.209  0.00  0.00    +0.000 NA
ATOM     22  C   UNL     1      45.056   1.802   9.152  0.00  0.00    +0.000 A 
BRANCH  20  23
ATOM     23  C   UNL     1      47.534   2.467   6.536  0.00  0.00    +0.000 C 
ATOM     24  N   UNL     1      47.395   3.179   5.378  0.00  0.00    +0.000 N 
ATOM     25  O   UNL     1      48.467   1.694   6.715  0.00  0.00    +0.000 OA
ATOM     26  H   UNL     1      46.596   3.794   5.265  0.00  0.00    +0.000 HD
ATOM     27  H   UNL     1      48.064   3.058   4.633  0.00  0.00    +0.000 HD
ENDBRANCH  20  23
ENDBRANCH  16  17
ENDBRANCH  15  16
ENDBRANCH   2  15
TORSDOF 6
ENDMDL
MODEL 5
REMARK VINA RESULT:    -6.711      4.050      7.898
REMARK INTER + INTRA:         -10.234
REMARK INTER:                  -9.115
REMARK INTRA:                  -1.118
REMARK UNBOUND:                -1.169
REMARK  Name = 
REMARK  7 active torsions:
REMARK  status: ('A' for Active; 'I' for Inactive)
REMARK    1  A    between atoms: C_1  and  C_2
REMARK    2  A    between atoms: C_2  and  C_3
REMARK    3  A    between atoms: C_2  and  C_14
REMARK    4  A    between atoms: C_3  and  O_4
REMARK    5  A    between atoms: O_4  and  C_5
REMARK    6  A    between atoms: C_8  and  C_9
REMARK    7  A    between atoms: C_18  and  C_19
REMARK                            x       y       z     vdW  Elec       q    Type
REMARK                         _______ _______ _______ _____ _____    ______ ____
ROOT
ATOM      1  C   UNL     1      50.117   8.114  11.146  0.00  0.00    +0.000 C 
ATOM      2  C   UNL     1      49.312   8.404  12.416  0.00  0.00    +0.000 C 
ENDROOT
BRANCH   2   3
ATOM      3  C   UNL     1      47.828   8.175  12.181  0.00  0.00    +0.000 A 
ATOM      4  C   UNL     1      46.920   9.218  12.391  0.00  0.00    +0.000 A 
ATOM      5  C   UNL     1      45.560   9.024  12.167  0.00  0.00    +0.000 A 
ATOM      6  C   UNL     1      45.093   7.786  11.714  0.00  0.00    +0.000 A 
ATOM      7  C   UNL     1      45.972   6.720  11.461  0.00  0.00    +0.000 A 
ATOM      8  C   UNL     1      47.338   6.936  11.726  0.00  0.00    +0.000 A 
BRANCH   7   9
ATOM      9  C   UNL     1      45.506   5.446  10.865  0.00  0.00    +0.000 A 
ATOM     10  C   UNL     1      45.531   5.249   9.471  0.00  0.00    +0.000 A 
ATOM     11  C   UNL     1      45.189   4.021   8.898  0.00  0.00    +0.000 A 
ATOM     12  C   UNL     1      44.817   2.955   9.709  0.00  0.00    +0.000 A 
ATOM     13  C   UNL     1      44.763   3.124  11.089  0.00  0.00    +0.000 A 
ATOM     14  C   UNL     1      45.092   4.359  11.657  0.00  0.00    +0.000 A 
ENDBRANCH   7   9
ENDBRANCH   2   3
BRANCH   2  15
ATOM     15  C   UNL     1      49.851   7.576  13.598  0.00  0.00    +0.000 C 
BRANCH  15  16
ATOM     16  O   UNL     1      49.091   7.888  14.771  0.00  0.00    +0.000 OA
BRANCH  16  17
ATOM     17  C   UNL     1      48.800   6.854  15.614  0.00  0.00    +0.000 A 
ATOM     18  C   UNL     1      49.079   6.796  16.974  0.00  0.00    +0.000 A 
ATOM     19  C   UNL     1      48.681   5.680  17.712  0.00  0.00    +0.000 A 
ATOM     20  C   UNL     1      48.016   4.655  17.051  0.00  0.00    +0.000 A 
ATOM     21  N   UNL     1      47.742   4.664  15.717  0.00  0.00    +0.000 NA
ATOM     22  C   UNL     1      48.147   5.766  15.040  0.00  0.00    +0.000 A 
BRANCH  20  23
ATOM     23  C   UNL     1      47.544   3.461  17.824  0.00  0.00    +0.000 C 
ATOM     24  N   UNL     1      48.272   3.161  18.939  0.00  0.00    +0.000 N 
ATOM     25  O   UNL     1      46.581   2.789  17.476  0.00  0.00    +0.000 OA
ATOM     26  H   UNL     1      49.075   3.734  19.179  0.00  0.00    +0.000 HD
ATOM     27  H   UNL     1      48.032   2.352  19.492  0.00  0.00    +0.000 HD
ENDBRANCH  20  23
ENDBRANCH  16  17
ENDBRANCH  15  16
ENDBRANCH   2  15
TORSDOF 6
ENDMDL
MODEL 6
REMARK VINA RESULT:    -6.334      4.265      7.722
REMARK INTER + INTRA:          -9.725
REMARK INTER:                  -8.806
REMARK INTRA:                  -0.918
REMARK UNBOUND:                -1.169
REMARK  Name = 
REMARK  7 active torsions:
REMARK  status: ('A' for Active; 'I' for Inactive)
REMARK    1  A    between atoms: C_1  and  C_2
REMARK    2  A    between atoms: C_2  and  C_3
REMARK    3  A    between atoms: C_2  and  C_14
REMARK    4  A    between atoms: C_3  and  O_4
REMARK    5  A    between atoms: O_4  and  C_5
REMARK    6  A    between atoms: C_8  and  C_9
REMARK    7  A    between atoms: C_18  and  C_19
REMARK                            x       y       z     vdW  Elec       q    Type
REMARK                         _______ _______ _______ _____ _____    ______ ____
ROOT
ATOM      1  C   UNL     1      44.433   7.363  11.425  0.00  0.00    +0.000 C 
ATOM      2  C   UNL     1      44.785   6.220  12.382  0.00  0.00    +0.000 C 
ENDROOT
BRANCH   2   3
ATOM      3  C   UNL     1      44.509   4.871  11.737  0.00  0.00    +0.000 A 
ATOM      4  C   UNL     1      43.521   4.035  12.268  0.00  0.00    +0.000 A 
ATOM      5  C   UNL     1      43.251   2.802  11.679  0.00  0.00    +0.000 A 
ATOM      6  C   UNL     1      43.956   2.398  10.542  0.00  0.00    +0.000 A 
ATOM      7  C   UNL     1      44.935   3.219   9.958  0.00  0.00    +0.000 A 
ATOM      8  C   UNL     1      45.208   4.446  10.593  0.00  0.00    +0.000 A 
BRANCH   7   9
ATOM      9  C   UNL     1      45.601   2.857   8.684  0.00  0.00    +0.000 A 
ATOM     10  C   UNL     1      45.849   3.830   7.697  0.00  0.00    +0.000 A 
ATOM     11  C   UNL     1      46.562   3.529   6.534  0.00  0.00    +0.000 A 
ATOM     12  C   UNL     1      47.052   2.244   6.332  0.00  0.00    +0.000 A 
ATOM     13  C   UNL     1      46.806   1.255   7.279  0.00  0.00    +0.000 A 
ATOM     14  C   UNL     1      46.079   1.558   8.435  0.00  0.00    +0.000 A 
ENDBRANCH   7   9
ENDBRANCH   2   3
BRANCH   2  15
ATOM     15  C   UNL     1      46.241   6.349  12.867  0.00  0.00    +0.000 C 
BRANCH  15  16
ATOM     16  O   UNL     1      46.720   7.662  12.559  0.00  0.00    +0.000 OA
BRANCH  16  17
ATOM     17  C   UNL     1      48.074   7.835  12.522  0.00  0.00    +0.000 A 
ATOM     18  C   UNL     1      48.895   7.678  11.411  0.00  0.00    +0.000 A 
ATOM     19  C   UNL     1      50.264   7.930  11.525  0.00  0.00    +0.000 A 
ATOM     20  C   UNL     1      50.760   8.331  12.759  0.00  0.00    +0.000 A 
ATOM     21  N   UNL     1      49.993   8.477  13.875  0.00  0.00    +0.000 NA
ATOM     22  C   UNL     1      48.671   8.220  13.719  0.00  0.00    +0.000 A 
BRANCH  20  23
ATOM     23  C   UNL     1      52.218   8.645  12.902  0.00  0.00    +0.000 C 
ATOM     24  N   UNL     1      52.889   8.854  11.732  0.00  0.00    +0.000 N 
ATOM     25  O   UNL     1      52.777   8.697  13.991  0.00  0.00    +0.000 OA
ATOM     26  H   UNL     1      52.389   8.781  10.851  0.00  0.00    +0.000 HD
ATOM     27  H   UNL     1      53.881   9.039  11.749  0.00  0.00    +0.000 HD
ENDBRANCH  20  23
ENDBRANCH  16  17
ENDBRANCH  15  16
ENDBRANCH   2  15
TORSDOF 6
ENDMDL
MODEL 7
REMARK VINA RESULT:    -6.319      2.669      3.942
REMARK INTER + INTRA:          -9.704
REMARK INTER:                  -8.879
REMARK INTRA:                  -0.825
REMARK UNBOUND:                -1.169
REMARK  Name = 
REMARK  7 active torsions:
REMARK  status: ('A' for Active; 'I' for Inactive)
REMARK    1  A    between atoms: C_1  and  C_2
REMARK    2  A    between atoms: C_2  and  C_3
REMARK    3  A    between atoms: C_2  and  C_14
REMARK    4  A    between atoms: C_3  and  O_4
REMARK    5  A    between atoms: O_4  and  C_5
REMARK    6  A    between atoms: C_8  and  C_9
REMARK    7  A    between atoms: C_18  and  C_19
REMARK                            x       y       z     vdW  Elec       q    Type
REMARK                         _______ _______ _______ _____ _____    ______ ____
ROOT
ATOM      1  C   UNL     1      45.831   5.246  12.883  0.00  0.00    +0.000 C 
ATOM      2  C   UNL     1      44.967   6.375  12.313  0.00  0.00    +0.000 C 
ENDROOT
BRANCH   2   3
ATOM      3  C   UNL     1      45.771   7.659  12.183  0.00  0.00    +0.000 A 
ATOM      4  C   UNL     1      45.110   8.884  12.046  0.00  0.00    +0.000 A 
ATOM      5  C   UNL     1      45.836  10.067  11.938  0.00  0.00    +0.000 A 
ATOM      6  C   UNL     1      47.233  10.040  11.981  0.00  0.00    +0.000 A 
ATOM      7  C   UNL     1      47.936   8.836  12.147  0.00  0.00    +0.000 A 
ATOM      8  C   UNL     1      47.178   7.653  12.223  0.00  0.00    +0.000 A 
BRANCH   7   9
ATOM      9  C   UNL     1      49.408   8.808  12.318  0.00  0.00    +0.000 A 
ATOM     10  C   UNL     1      49.995   9.067  13.571  0.00  0.00    +0.000 A 
ATOM     11  C   UNL     1      51.373   8.948  13.774  0.00  0.00    +0.000 A 
ATOM     12  C   UNL     1      52.199   8.559  12.727  0.00  0.00    +0.000 A 
ATOM     13  C   UNL     1      51.652   8.315  11.471  0.00  0.00    +0.000 A 
ATOM     14  C   UNL     1      50.274   8.450  11.268  0.00  0.00    +0.000 A 
ENDBRANCH   7   9
ENDBRANCH   2   3
BRANCH   2  15
ATOM     15  C   UNL     1      44.329   5.947  10.978  0.00  0.00    +0.000 C 
BRANCH  15  16
ATOM     16  O   UNL     1      44.247   4.518  10.938  0.00  0.00    +0.000 OA
BRANCH  16  17
ATOM     17  C   UNL     1      44.916   3.887   9.929  0.00  0.00    +0.000 A 
ATOM     18  C   UNL     1      45.029   2.513   9.748  0.00  0.00    +0.000 A 
ATOM     19  C   UNL     1      45.719   2.019   8.639  0.00  0.00    +0.000 A 
ATOM     20  C   UNL     1      46.277   2.929   7.750  0.00  0.00    +0.000 A 
ATOM     21  N   UNL     1      46.206   4.281   7.903  0.00  0.00    +0.000 NA
ATOM     22  C   UNL     1      45.528   4.715   8.993  0.00  0.00    +0.000 A 
BRANCH  20  23
ATOM     23  C   UNL     1      46.991   2.429   6.532  0.00  0.00    +0.000 C 
ATOM     24  N   UNL     1      47.939   1.473   6.760  0.00  0.00    +0.000 N 
ATOM     25  O   UNL     1      46.755   2.855   5.408  0.00  0.00    +0.000 OA
ATOM     26  H   UNL     1      48.114   1.164   7.711  0.00  0.00    +0.000 HD
ATOM     27  H   UNL     1      48.482   1.112   5.991  0.00  0.00    +0.000 HD
ENDBRANCH  20  23
ENDBRANCH  16  17
ENDBRANCH  15  16
ENDBRANCH   2  15
TORSDOF 6
ENDMDL
MODEL 8
REMARK VINA RESULT:    -6.307      2.071      3.149
REMARK INTER + INTRA:          -9.688
REMARK INTER:                  -8.876
REMARK INTRA:                  -0.812
REMARK UNBOUND:                -1.169
REMARK  Name = 
REMARK  7 active torsions:
REMARK  status: ('A' for Active; 'I' for Inactive)
REMARK    1  A    between atoms: C_1  and  C_2
REMARK    2  A    between atoms: C_2  and  C_3
REMARK    3  A    between atoms: C_2  and  C_14
REMARK    4  A    between atoms: C_3  and  O_4
REMARK    5  A    between atoms: O_4  and  C_5
REMARK    6  A    between atoms: C_8  and  C_9
REMARK    7  A    between atoms: C_18  and  C_19
REMARK                            x       y       z     vdW  Elec       q    Type
REMARK                         _______ _______ _______ _____ _____    ______ ____
ROOT
ATOM      1  C   UNL     1      45.276   6.944  11.623  0.00  0.00    +0.000 C 
ATOM      2  C   UNL     1      45.854   5.550  11.887  0.00  0.00    +0.000 C 
ENDROOT
BRANCH   2   3
ATOM      3  C   UNL     1      46.624   5.523  13.198  0.00  0.00    +0.000 A 
ATOM      4  C   UNL     1      46.539   4.404  14.032  0.00  0.00    +0.000 A 
ATOM      5  C   UNL     1      47.249   4.362  15.229  0.00  0.00    +0.000 A 
ATOM      6  C   UNL     1      48.065   5.436  15.599  0.00  0.00    +0.000 A 
ATOM      7  C   UNL     1      48.203   6.566  14.777  0.00  0.00    +0.000 A 
ATOM      8  C   UNL     1      47.450   6.594  13.588  0.00  0.00    +0.000 A 
BRANCH   7   9
ATOM      9  C   UNL     1      49.158   7.654  15.097  0.00  0.00    +0.000 A 
ATOM     10  C   UNL     1      48.733   8.815  15.771  0.00  0.00    +0.000 A 
ATOM     11  C   UNL     1      49.636   9.804  16.167  0.00  0.00    +0.000 A 
ATOM     12  C   UNL     1      50.993   9.654  15.905  0.00  0.00    +0.000 A 
ATOM     13  C   UNL     1      51.442   8.528  15.223  0.00  0.00    +0.000 A 
ATOM     14  C   UNL     1      50.532   7.546  14.814  0.00  0.00    +0.000 A 
ENDBRANCH   7   9
ENDBRANCH   2   3
BRANCH   2  15
ATOM     15  C   UNL     1      44.743   4.485  11.840  0.00  0.00    +0.000 C 
BRANCH  15  16
ATOM     16  O   UNL     1      44.193   4.443  10.518  0.00  0.00    +0.000 OA
BRANCH  16  17
ATOM     17  C   UNL     1      44.931   3.813   9.559  0.00  0.00    +0.000 A 
ATOM     18  C   UNL     1      45.143   2.443   9.449  0.00  0.00    +0.000 A 
ATOM     19  C   UNL     1      45.895   1.946   8.383  0.00  0.00    +0.000 A 
ATOM     20  C   UNL     1      46.413   2.850   7.463  0.00  0.00    +0.000 A 
ATOM     21  N   UNL     1      46.245   4.198   7.547  0.00  0.00    +0.000 NA
ATOM     22  C   UNL     1      45.510   4.637   8.598  0.00  0.00    +0.000 A 
BRANCH  20  23
ATOM     23  C   UNL     1      47.192   2.343   6.288  0.00  0.00    +0.000 C 
ATOM     24  N   UNL     1      48.202   1.473   6.587  0.00  0.00    +0.000 N 
ATOM     25  O   UNL     1      46.954   2.692   5.138  0.00  0.00    +0.000 OA
ATOM     26  H   UNL     1      48.376   1.227   7.556  0.00  0.00    +0.000 HD
ATOM     27  H   UNL     1      48.789   1.115   5.849  0.00  0.00    +0.000 HD
ENDBRANCH  20  23
ENDBRANCH  16  17
ENDBRANCH  15  16
ENDBRANCH   2  15
TORSDOF 6
ENDMDL
MODEL 9
REMARK VINA RESULT:    -6.256      3.778      6.903
REMARK INTER + INTRA:          -9.619
REMARK INTER:                  -8.086
REMARK INTRA:                  -1.533
REMARK UNBOUND:                -1.169
REMARK  Name = 
REMARK  7 active torsions:
REMARK  status: ('A' for Active; 'I' for Inactive)
REMARK    1  A    between atoms: C_1  and  C_2
REMARK    2  A    between atoms: C_2  and  C_3
REMARK    3  A    between atoms: C_2  and  C_14
REMARK    4  A    between atoms: C_3  and  O_4
REMARK    5  A    between atoms: O_4  and  C_5
REMARK    6  A    between atoms: C_8  and  C_9
REMARK    7  A    between atoms: C_18  and  C_19
REMARK                            x       y       z     vdW  Elec       q    Type
REMARK                         _______ _______ _______ _____ _____    ______ ____
ROOT
ATOM      1  C   UNL     1      50.703   7.336  15.216  0.00  0.00    +0.000 C 
ATOM      2  C   UNL     1      49.255   7.771  14.972  0.00  0.00    +0.000 C 
ENDROOT
BRANCH   2   3
ATOM      3  C   UNL     1      49.138   8.560  13.678  0.00  0.00    +0.000 A 
ATOM      4  C   UNL     1      50.213   8.593  12.783  0.00  0.00    +0.000 A 
ATOM      5  C   UNL     1      50.113   9.302  11.588  0.00  0.00    +0.000 A 
ATOM      6  C   UNL     1      48.929   9.973  11.267  0.00  0.00    +0.000 A 
ATOM      7  C   UNL     1      47.816   9.941  12.122  0.00  0.00    +0.000 A 
ATOM      8  C   UNL     1      47.955   9.242  13.336  0.00  0.00    +0.000 A 
BRANCH   7   9
ATOM      9  C   UNL     1      46.517  10.543  11.737  0.00  0.00    +0.000 A 
ATOM     10  C   UNL     1      45.311   9.842  11.925  0.00  0.00    +0.000 A 
ATOM     11  C   UNL     1      44.072  10.430  11.661  0.00  0.00    +0.000 A 
ATOM     12  C   UNL     1      44.007  11.742  11.206  0.00  0.00    +0.000 A 
ATOM     13  C   UNL     1      45.182  12.455  10.990  0.00  0.00    +0.000 A 
ATOM     14  C   UNL     1      46.422  11.857  11.242  0.00  0.00    +0.000 A 
ENDBRANCH   7   9
ENDBRANCH   2   3
BRANCH   2  15
ATOM     15  C   UNL     1      48.311   6.554  15.003  0.00  0.00    +0.000 C 
BRANCH  15  16
ATOM     16  O   UNL     1      48.350   5.902  13.729  0.00  0.00    +0.000 OA
BRANCH  16  17
ATOM     17  C   UNL     1      47.151   5.625  13.138  0.00  0.00    +0.000 A 
ATOM     18  C   UNL     1      46.637   6.226  11.994  0.00  0.00    +0.000 A 
ATOM     19  C   UNL     1      45.406   5.803  11.488  0.00  0.00    +0.000 A 
ATOM     20  C   UNL     1      44.731   4.788  12.156  0.00  0.00    +0.000 A 
ATOM     21  N   UNL     1      45.191   4.189  13.289  0.00  0.00    +0.000 NA
ATOM     22  C   UNL     1      46.388   4.631  13.745  0.00  0.00    +0.000 A 
BRANCH  20  23
ATOM     23  C   UNL     1      43.427   4.289  11.615  0.00  0.00    +0.000 C 
ATOM     24  N   UNL     1      42.361   5.123  11.795  0.00  0.00    +0.000 N 
ATOM     25  O   UNL     1      43.315   3.201  11.062  0.00  0.00    +0.000 OA
ATOM     26  H   UNL     1      42.496   6.006  12.276  0.00  0.00    +0.000 HD
ATOM     27  H   UNL     1      41.444   4.838  11.484  0.00  0.00    +0.000 HD
ENDBRANCH  20  23
ENDBRANCH  16  17
ENDBRANCH  15  16
ENDBRANCH   2  15
TORSDOF 6
ENDMDL
