MODEL 1
REMARK VINA RESULT:    -7.756      0.000      0.000
REMARK INTER + INTRA:         -11.860
REMARK INTER:                 -10.931
REMARK INTRA:                  -0.930
REMARK UNBOUND:                -0.930
REMARK  Name = 
REMARK  7 active torsions:
REMARK  status: ('A' for Active; 'I' for Inactive)
REMARK    1  A    between atoms: C_2  and  C_4
REMARK    2  A    between atoms: C_7  and  C_8
REMARK    3  A    between atoms: C_8  and  C_9
REMARK    4  A    between atoms: C_9  and  C_10
REMARK    5  A    between atoms: C_10  and  C_11
REMARK    6  A    between atoms: C_15  and  O_16
REMARK    7  A    between atoms: O_16  and  C_17
REMARK                            x       y       z     vdW  Elec       q    Type
REMARK                         _______ _______ _______ _____ _____    ______ ____
ROOT
ATOM      1  C   UNL     1      44.030   3.489  11.768  0.00  0.00    +0.000 C 
ENDROOT
BRANCH   1   2
ATOM      2  C   UNL     1      43.624   3.793  10.325  0.00  0.00    +0.000 C 
BRANCH   2   6
ATOM      3  C   UNL     1      46.569   2.413   7.571  0.00  0.00    +0.000 A 
ATOM      4  C   UNL     1      46.304   3.780   7.637  0.00  0.00    +0.000 A 
ATOM      5  C   UNL     1      45.343   4.247   8.534  0.00  0.00    +0.000 A 
ATOM      6  C   UNL     1      44.676   3.333   9.348  0.00  0.00    +0.000 A 
ATOM      7  N   UNL     1      44.912   2.000   9.287  0.00  0.00    +0.000 NA
ATOM      8  C   UNL     1      45.842   1.568   8.396  0.00  0.00    +0.000 A 
BRANCH   3  10
ATOM      9  N   UNL     1      48.700   2.565   6.421  0.00  0.00    +0.000 N 
ATOM     10  C   UNL     1      47.565   1.833   6.648  0.00  0.00    +0.000 C 
ATOM     11  O   UNL     1      47.410   0.733   6.142  0.00  0.00    +0.000 OA
ATOM     12  H   UNL     1      49.421   2.121   5.865  0.00  0.00    +0.000 HD
ATOM     13  H   UNL     1      48.974   3.342   7.007  0.00  0.00    +0.000 HD
ENDBRANCH   3  10
ENDBRANCH   2   6
ENDBRANCH   1   2
BRANCH   1  14
ATOM     14  C   UNL     1      44.024   4.752  12.630  0.00  0.00    +0.000 C 
BRANCH  14  15
ATOM     15  C   UNL     1      45.419   5.286  12.836  0.00  0.00    +0.000 A 
ATOM     16  C   UNL     1      46.001   6.124  11.881  0.00  0.00    +0.000 A 
ATOM     17  C   UNL     1      47.290   6.631  12.082  0.00  0.00    +0.000 A 
ATOM     18  C   UNL     1      48.011   6.297  13.233  0.00  0.00    +0.000 A 
ATOM     19  C   UNL     1      47.454   5.431  14.172  0.00  0.00    +0.000 A 
ATOM     20  C   UNL     1      46.163   4.932  13.972  0.00  0.00    +0.000 A 
BRANCH  19  21
ATOM     21  O   UNL     1      48.055   5.035  15.343  0.00  0.00    +0.000 OA
BRANCH  21  22
ATOM     22  C   UNL     1      47.323   4.196  16.268  0.00  0.00    +0.000 C 
ATOM     23  C   UNL     1      47.268   4.628  17.746  0.00  0.00    +0.000 C 
ATOM     24  N   UNL     1      47.774   3.315  18.171  0.00  0.00    +0.000 NA
ATOM     25  C   UNL     1      48.094   2.960  16.782  0.00  0.00    +0.000 C 
ATOM     26  H   UNL     1      47.072   2.715  18.603  0.00  0.00    +0.000 HD
ENDBRANCH  21  22
ENDBRANCH  19  21
ENDBRANCH  14  15
ENDBRANCH   1  14
TORSDOF 7
ENDMDL
MODEL 2
REMARK VINA RESULT:    -7.027      1.783      8.419
REMARK INTER + INTRA:         -10.832
REMARK INTER:                 -10.083
REMARK INTRA:                  -0.749
REMARK UNBOUND:                -0.930
REMARK  Name = 
REMARK  7 active torsions:
REMARK  status: ('A' for Active; 'I' for Inactive)
REMARK    1  A    between atoms: C_2  and  C_4
REMARK    2  A    between atoms: C_7  and  C_8
REMARK    3  A    between atoms: C_8  and  C_9
REMARK    4  A    between atoms: C_9  and  C_10
REMARK    5  A    between atoms: C_10  and  C_11
REMARK    6  A    between atoms: C_15  and  O_16
REMARK    7  A    between atoms: O_16  and  C_17
REMARK                            x       y       z     vdW  Elec       q    Type
REMARK                         _______ _______ _______ _____ _____    ______ ____
ROOT
ATOM      1  C   UNL     1      45.626   6.130  12.605  0.00  0.00    +0.000 C 
ENDROOT
BRANCH   1   2
ATOM      2  C   UNL     1      47.139   6.069  12.822  0.00  0.00    +0.000 C 
BRANCH   2   6
ATOM      3  C   UNL     1      48.138   4.643  16.712  0.00  0.00    +0.000 A 
ATOM      4  C   UNL     1      47.171   3.958  15.976  0.00  0.00    +0.000 A 
ATOM      5  C   UNL     1      46.834   4.412  14.701  0.00  0.00    +0.000 A 
ATOM      6  C   UNL     1      47.479   5.538  14.191  0.00  0.00    +0.000 A 
ATOM      7  N   UNL     1      48.410   6.223  14.898  0.00  0.00    +0.000 NA
ATOM      8  C   UNL     1      48.711   5.770  16.142  0.00  0.00    +0.000 A 
BRANCH   3  10
ATOM      9  N   UNL     1      47.880   3.179  18.629  0.00  0.00    +0.000 N 
ATOM     10  C   UNL     1      48.550   4.234  18.069  0.00  0.00    +0.000 C 
ATOM     11  O   UNL     1      49.475   4.778  18.652  0.00  0.00    +0.000 OA
ATOM     12  H   UNL     1      48.230   2.843  19.518  0.00  0.00    +0.000 HD
ATOM     13  H   UNL     1      47.298   2.554  18.090  0.00  0.00    +0.000 HD
ENDBRANCH   3  10
ENDBRANCH   2   6
ENDBRANCH   1   2
BRANCH   1  14
ATOM     14  C   UNL     1      45.280   6.419  11.144  0.00  0.00    +0.000 C 
BRANCH  14  15
ATOM     15  C   UNL     1      45.096   5.145  10.358  0.00  0.00    +0.000 A 
ATOM     16  C   UNL     1      44.348   4.091  10.890  0.00  0.00    +0.000 A 
ATOM     17  C   UNL     1      44.166   2.915  10.152  0.00  0.00    +0.000 A 
ATOM     18  C   UNL     1      44.737   2.780   8.883  0.00  0.00    +0.000 A 
ATOM     19  C   UNL     1      45.517   3.809   8.361  0.00  0.00    +0.000 A 
ATOM     20  C   UNL     1      45.691   4.986   9.098  0.00  0.00    +0.000 A 
BRANCH  19  21
ATOM     21  O   UNL     1      46.123   3.802   7.128  0.00  0.00    +0.000 OA
BRANCH  21  22
ATOM     22  C   UNL     1      46.527   2.541   6.543  0.00  0.00    +0.000 C 
ATOM     23  C   UNL     1      47.886   1.951   6.966  0.00  0.00    +0.000 C 
ATOM     24  N   UNL     1      48.303   1.845   5.561  0.00  0.00    +0.000 NA
ATOM     25  C   UNL     1      47.147   2.643   5.131  0.00  0.00    +0.000 C 
ATOM     26  H   UNL     1      48.310   0.893   5.197  0.00  0.00    +0.000 HD
ENDBRANCH  21  22
ENDBRANCH  19  21
ENDBRANCH  14  15
ENDBRANCH   1  14
TORSDOF 7
ENDMDL
MODEL 3
REMARK VINA RESULT:    -6.606      1.579      1.849
REMARK INTER + INTRA:         -10.238
REMARK INTER:                  -9.411
REMARK INTRA:                  -0.827
REMARK UNBOUND:                -0.930
REMARK  Name = 
REMARK  7 active torsions:
REMARK  status: ('A' for Active; 'I' for Inactive)
REMARK    1  A    between atoms: C_2  and  C_4
REMARK    2  A    between atoms: C_7  and  C_8
REMARK    3  A    between atoms: C_8  and  C_9
REMARK    4  A    between atoms: C_9  and  C_10
REMARK    5  A    between atoms: C_10  and  C_11
REMARK    6  A    between atoms: C_15  and  O_16
REMARK    7  A    between atoms: O_16  and  C_17
REMARK                            x       y       z     vdW  Elec       q    Type
REMARK                         _______ _______ _______ _____ _____    ______ ____
ROOT
ATOM      1  C   UNL     1      44.176   4.460  11.436  0.00  0.00    +0.000 C 
ENDROOT
BRANCH   1   2
ATOM      2  C   UNL     1      43.792   3.237  10.602  0.00  0.00    +0.000 C 
BRANCH   2   6
ATOM      3  C   UNL     1      46.460   2.783   7.311  0.00  0.00    +0.000 A 
ATOM      4  C   UNL     1      46.098   1.650   8.040  0.00  0.00    +0.000 A 
ATOM      5  C   UNL     1      45.226   1.783   9.119  0.00  0.00    +0.000 A 
ATOM      6  C   UNL     1      44.731   3.046   9.438  0.00  0.00    +0.000 A 
ATOM      7  N   UNL     1      45.083   4.159   8.749  0.00  0.00    +0.000 NA
ATOM      8  C   UNL     1      45.945   4.007   7.711  0.00  0.00    +0.000 A 
BRANCH   3  10
ATOM      9  N   UNL     1      48.707   2.517   6.433  0.00  0.00    +0.000 N 
ATOM     10  C   UNL     1      47.382   2.734   6.159  0.00  0.00    +0.000 C 
ATOM     11  O   UNL     1      46.983   2.835   5.009  0.00  0.00    +0.000 OA
ATOM     12  H   UNL     1      49.318   2.389   5.636  0.00  0.00    +0.000 HD
ATOM     13  H   UNL     1      49.030   2.180   7.329  0.00  0.00    +0.000 HD
ENDBRANCH   3  10
ENDBRANCH   2   6
ENDBRANCH   1   2
BRANCH   1  14
ATOM     14  C   UNL     1      45.300   4.135  12.422  0.00  0.00    +0.000 C 
BRANCH  14  15
ATOM     15  C   UNL     1      46.248   5.298  12.580  0.00  0.00    +0.000 A 
ATOM     16  C   UNL     1      46.156   6.403  11.728  0.00  0.00    +0.000 A 
ATOM     17  C   UNL     1      47.027   7.487  11.887  0.00  0.00    +0.000 A 
ATOM     18  C   UNL     1      48.000   7.473  12.890  0.00  0.00    +0.000 A 
ATOM     19  C   UNL     1      48.124   6.360  13.719  0.00  0.00    +0.000 A 
ATOM     20  C   UNL     1      47.248   5.280  13.563  0.00  0.00    +0.000 A 
BRANCH  19  21
ATOM     21  O   UNL     1      49.030   6.228  14.743  0.00  0.00    +0.000 OA
BRANCH  21  22
ATOM     22  C   UNL     1      48.568   6.284  16.114  0.00  0.00    +0.000 C 
ATOM     23  C   UNL     1      49.181   7.350  17.041  0.00  0.00    +0.000 C 
ATOM     24  N   UNL     1      49.541   6.320  18.025  0.00  0.00    +0.000 NA
ATOM     25  C   UNL     1      49.216   5.255  17.067  0.00  0.00    +0.000 C 
ATOM     26  H   UNL     1      48.959   6.319  18.862  0.00  0.00    +0.000 HD
ENDBRANCH  21  22
ENDBRANCH  19  21
ENDBRANCH  14  15
ENDBRANCH   1  14
TORSDOF 7
ENDMDL
MODEL 4
REMARK VINA RESULT:    -6.397      2.804      4.106
REMARK INTER + INTRA:          -9.945
REMARK INTER:                  -9.173
REMARK INTRA:                  -0.772
REMARK UNBOUND:                -0.930
REMARK  Name = 
REMARK  7 active torsions:
REMARK  status: ('A' for Active; 'I' for Inactive)
REMARK    1  A    between atoms: C_2  and  C_4
REMARK    2  A    between atoms: C_7  and  C_8
REMARK    3  A    between atoms: C_8  and  C_9
REMARK    4  A    between atoms: C_9  and  C_10
REMARK    5  A    between atoms: C_10  and  C_11
REMARK    6  A    between atoms: C_15  and  O_16
REMARK    7  A    between atoms: O_16  and  C_17
REMARK                            x       y       z     vdW  Elec       q    Type
REMARK                         _______ _______ _______ _____ _____    ______ ____
ROOT
ATOM      1  C   UNL     1      44.317   5.281  11.244  0.00  0.00    +0.000 C 
ENDROOT
BRANCH   1   2
ATOM      2  C   UNL     1      43.658   4.467  10.130  0.00  0.00    +0.000 C 
BRANCH   2   6
ATOM      3  C   UNL     1      46.603   2.684   7.617  0.00  0.00    +0.000 A 
ATOM      4  C   UNL     1      45.848   1.861   8.452  0.00  0.00    +0.000 A 
ATOM      5  C   UNL     1      44.881   2.430   9.279  0.00  0.00    +0.000 A 
ATOM      6  C   UNL     1      44.687   3.809   9.245  0.00  0.00    +0.000 A 
ATOM      7  N   UNL     1      45.421   4.626   8.450  0.00  0.00    +0.000 NA
ATOM      8  C   UNL     1      46.367   4.050   7.664  0.00  0.00    +0.000 A 
BRANCH   3  10
ATOM      9  N   UNL     1      48.017   2.970   5.666  0.00  0.00    +0.000 N 
ATOM     10  C   UNL     1      47.650   2.167   6.714  0.00  0.00    +0.000 C 
ATOM     11  O   UNL     1      48.199   1.095   6.912  0.00  0.00    +0.000 OA
ATOM     12  H   UNL     1      48.801   2.653   5.108  0.00  0.00    +0.000 HD
ATOM     13  H   UNL     1      47.775   3.950   5.619  0.00  0.00    +0.000 HD
ENDBRANCH   3  10
ENDBRANCH   2   6
ENDBRANCH   1   2
BRANCH   1  14
ATOM     14  C   UNL     1      45.342   4.449  12.016  0.00  0.00    +0.000 C 
BRANCH  14  15
ATOM     15  C   UNL     1      46.425   5.317  12.607  0.00  0.00    +0.000 A 
ATOM     16  C   UNL     1      46.853   5.112  13.922  0.00  0.00    +0.000 A 
ATOM     17  C   UNL     1      47.869   5.908  14.463  0.00  0.00    +0.000 A 
ATOM     18  C   UNL     1      48.458   6.920  13.699  0.00  0.00    +0.000 A 
ATOM     19  C   UNL     1      48.012   7.157  12.401  0.00  0.00    +0.000 A 
ATOM     20  C   UNL     1      47.001   6.355  11.860  0.00  0.00    +0.000 A 
BRANCH  19  21
ATOM     21  O   UNL     1      48.513   8.112  11.549  0.00  0.00    +0.000 OA
BRANCH  21  22
ATOM     22  C   UNL     1      49.703   8.845  11.925  0.00  0.00    +0.000 C 
ATOM     23  C   UNL     1      49.971  10.193  11.228  0.00  0.00    +0.000 C 
ATOM     24  N   UNL     1      51.314   9.747  10.833  0.00  0.00    +0.000 NA
ATOM     25  C   UNL     1      51.007   8.370  11.244  0.00  0.00    +0.000 C 
ATOM     26  H   UNL     1      52.071  10.180  11.362  0.00  0.00    +0.000 HD
ENDBRANCH  21  22
ENDBRANCH  19  21
ENDBRANCH  14  15
ENDBRANCH   1  14
TORSDOF 7
ENDMDL
MODEL 5
REMARK VINA RESULT:    -6.383      3.573      5.128
REMARK INTER + INTRA:          -9.925
REMARK INTER:                  -9.329
REMARK INTRA:                  -0.596
REMARK UNBOUND:                -0.930
REMARK  Name = 
REMARK  7 active torsions:
REMARK  status: ('A' for Active; 'I' for Inactive)
REMARK    1  A    between atoms: C_2  and  C_4
REMARK    2  A    between atoms: C_7  and  C_8
REMARK    3  A    between atoms: C_8  and  C_9
REMARK    4  A    between atoms: C_9  and  C_10
REMARK    5  A    between atoms: C_10  and  C_11
REMARK    6  A    between atoms: C_15  and  O_16
REMARK    7  A    between atoms: O_16  and  C_17
REMARK                            x       y       z     vdW  Elec       q    Type
REMARK                         _______ _______ _______ _____ _____    ______ ____
ROOT
ATOM      1  C   UNL     1      44.195   5.362  10.749  0.00  0.00    +0.000 C 
ENDROOT
BRANCH   1   2
ATOM      2  C   UNL     1      43.824   3.947  10.303  0.00  0.00    +0.000 C 
BRANCH   2   6
ATOM      3  C   UNL     1      46.572   2.551   7.360  0.00  0.00    +0.000 A 
ATOM      4  C   UNL     1      46.036   1.633   8.263  0.00  0.00    +0.000 A 
ATOM      5  C   UNL     1      45.135   2.075   9.231  0.00  0.00    +0.000 A 
ATOM      6  C   UNL     1      44.787   3.425   9.267  0.00  0.00    +0.000 A 
ATOM      7  N   UNL     1      45.309   4.332   8.406  0.00  0.00    +0.000 NA
ATOM      8  C   UNL     1      46.195   3.880   7.481  0.00  0.00    +0.000 A 
BRANCH   3  10
ATOM      9  N   UNL     1      47.044   2.039   5.036  0.00  0.00    +0.000 N 
ATOM     10  C   UNL     1      47.535   2.171   6.308  0.00  0.00    +0.000 C 
ATOM     11  O   UNL     1      48.724   2.023   6.546  0.00  0.00    +0.000 OA
ATOM     12  H   UNL     1      47.725   1.873   4.304  0.00  0.00    +0.000 HD
ATOM     13  H   UNL     1      46.140   2.396   4.761  0.00  0.00    +0.000 HD
ENDBRANCH   3  10
ENDBRANCH   2   6
ENDBRANCH   1   2
BRANCH   1  14
ATOM     14  C   UNL     1      45.410   5.356  11.678  0.00  0.00    +0.000 C 
BRANCH  14  15
ATOM     15  C   UNL     1      45.950   6.749  11.888  0.00  0.00    +0.000 A 
ATOM     16  C   UNL     1      47.330   6.974  11.905  0.00  0.00    +0.000 A 
ATOM     17  C   UNL     1      47.829   8.269  12.085  0.00  0.00    +0.000 A 
ATOM     18  C   UNL     1      46.955   9.347  12.259  0.00  0.00    +0.000 A 
ATOM     19  C   UNL     1      45.579   9.127  12.282  0.00  0.00    +0.000 A 
ATOM     20  C   UNL     1      45.083   7.832  12.095  0.00  0.00    +0.000 A 
BRANCH  19  21
ATOM     21  O   UNL     1      44.621  10.098  12.436  0.00  0.00    +0.000 OA
BRANCH  21  22
ATOM     22  C   UNL     1      44.386  11.041  11.362  0.00  0.00    +0.000 C 
ATOM     23  C   UNL     1      43.048  11.806  11.352  0.00  0.00    +0.000 C 
ATOM     24  N   UNL     1      42.781  11.365   9.976  0.00  0.00    +0.000 NA
ATOM     25  C   UNL     1      43.901  10.416  10.035  0.00  0.00    +0.000 C 
ATOM     26  H   UNL     1      42.892  12.096   9.274  0.00  0.00    +0.000 HD
ENDBRANCH  21  22
ENDBRANCH  19  21
ENDBRANCH  14  15
ENDBRANCH   1  14
TORSDOF 7
ENDMDL
MODEL 6
REMARK VINA RESULT:    -6.375      3.096      7.617
REMARK INTER + INTRA:          -9.913
REMARK INTER:                  -9.009
REMARK INTRA:                  -0.904
REMARK UNBOUND:                -0.930
REMARK  Name = 
REMARK  7 active torsions:
REMARK  status: ('A' for Active; 'I' for Inactive)
REMARK    1  A    between atoms: C_2  and  C_4
REMARK    2  A    between atoms: C_7  and  C_8
REMARK    3  A    between atoms: C_8  and  C_9
REMARK    4  A    between atoms: C_9  and  C_10
REMARK    5  A    between atoms: C_10  and  C_11
REMARK    6  A    between atoms: C_15  and  O_16
REMARK    7  A    between atoms: O_16  and  C_17
REMARK                            x       y       z     vdW  Elec       q    Type
REMARK                         _______ _______ _______ _____ _____    ______ ____
ROOT
ATOM      1  C   UNL     1      49.565   7.301  13.079  0.00  0.00    +0.000 C 
ENDROOT
BRANCH   1   2
ATOM      2  C   UNL     1      49.418   7.789  14.521  0.00  0.00    +0.000 C 
BRANCH   2   6
ATOM      3  C   UNL     1      48.102   4.611  17.037  0.00  0.00    +0.000 A 
ATOM      4  C   UNL     1      48.996   5.549  17.555  0.00  0.00    +0.000 A 
ATOM      5  C   UNL     1      49.435   6.594  16.744  0.00  0.00    +0.000 A 
ATOM      6  C   UNL     1      48.963   6.680  15.435  0.00  0.00    +0.000 A 
ATOM      7  N   UNL     1      48.105   5.771  14.912  0.00  0.00    +0.000 NA
ATOM      8  C   UNL     1      47.703   4.753  15.717  0.00  0.00    +0.000 A 
BRANCH   3  10
ATOM      9  N   UNL     1      48.243   3.184  18.994  0.00  0.00    +0.000 N 
ATOM     10  C   UNL     1      47.592   3.471  17.823  0.00  0.00    +0.000 C 
ATOM     11  O   UNL     1      46.608   2.838  17.475  0.00  0.00    +0.000 OA
ATOM     12  H   UNL     1      47.831   2.464  19.575  0.00  0.00    +0.000 HD
ATOM     13  H   UNL     1      48.885   3.829  19.433  0.00  0.00    +0.000 HD
ENDBRANCH   3  10
ENDBRANCH   2   6
ENDBRANCH   1   2
BRANCH   1  14
ATOM     14  C   UNL     1      48.817   8.207  12.101  0.00  0.00    +0.000 C 
BRANCH  14  15
ATOM     15  C   UNL     1      47.374   7.792  11.957  0.00  0.00    +0.000 A 
ATOM     16  C   UNL     1      46.355   8.747  12.018  0.00  0.00    +0.000 A 
ATOM     17  C   UNL     1      45.019   8.361  11.868  0.00  0.00    +0.000 A 
ATOM     18  C   UNL     1      44.688   7.017  11.665  0.00  0.00    +0.000 A 
ATOM     19  C   UNL     1      45.693   6.053  11.641  0.00  0.00    +0.000 A 
ATOM     20  C   UNL     1      47.029   6.443  11.784  0.00  0.00    +0.000 A 
BRANCH  19  21
ATOM     21  O   UNL     1      45.500   4.707  11.442  0.00  0.00    +0.000 OA
BRANCH  21  22
ATOM     22  C   UNL     1      44.155   4.200  11.273  0.00  0.00    +0.000 C 
ATOM     23  C   UNL     1      43.534   3.398  12.433  0.00  0.00    +0.000 C 
ATOM     24  N   UNL     1      43.233   2.280  11.528  0.00  0.00    +0.000 NA
ATOM     25  C   UNL     1      44.046   2.887  10.466  0.00  0.00    +0.000 C 
ATOM     26  H   UNL     1      42.246   2.184  11.294  0.00  0.00    +0.000 HD
ENDBRANCH  21  22
ENDBRANCH  19  21
ENDBRANCH  14  15
ENDBRANCH   1  14
TORSDOF 7
ENDMDL
MODEL 7
REMARK VINA RESULT:    -6.095      3.933      5.620
REMARK INTER + INTRA:          -9.519
REMARK INTER:                  -8.295
REMARK INTRA:                  -1.224
REMARK UNBOUND:                -0.930
REMARK  Name = 
REMARK  7 active torsions:
REMARK  status: ('A' for Active; 'I' for Inactive)
REMARK    1  A    between atoms: C_2  and  C_4
REMARK    2  A    between atoms: C_7  and  C_8
REMARK    3  A    between atoms: C_8  and  C_9
REMARK    4  A    between atoms: C_9  and  C_10
REMARK    5  A    between atoms: C_10  and  C_11
REMARK    6  A    between atoms: C_15  and  O_16
REMARK    7  A    between atoms: O_16  and  C_17
REMARK                            x       y       z     vdW  Elec       q    Type
REMARK                         _______ _______ _______ _____ _____    ______ ____
ROOT
ATOM      1  C   UNL     1      49.529   7.616  13.368  0.00  0.00    +0.000 C 
ENDROOT
BRANCH   1   2
ATOM      2  C   UNL     1      48.716   7.402  12.091  0.00  0.00    +0.000 C 
BRANCH   2   6
ATOM      3  C   UNL     1      45.081   5.294  12.804  0.00  0.00    +0.000 A 
ATOM      4  C   UNL     1      46.222   4.921  13.515  0.00  0.00    +0.000 A 
ATOM      5  C   UNL     1      47.418   5.602  13.293  0.00  0.00    +0.000 A 
ATOM      6  C   UNL     1      47.442   6.645  12.369  0.00  0.00    +0.000 A 
ATOM      7  N   UNL     1      46.347   7.011  11.659  0.00  0.00    +0.000 NA
ATOM      8  C   UNL     1      45.197   6.325  11.883  0.00  0.00    +0.000 A 
BRANCH   3  10
ATOM      9  N   UNL     1      42.673   5.431  13.062  0.00  0.00    +0.000 N 
ATOM     10  C   UNL     1      43.777   4.625  12.973  0.00  0.00    +0.000 C 
ATOM     11  O   UNL     1      43.674   3.408  12.988  0.00  0.00    +0.000 OA
ATOM     12  H   UNL     1      41.773   4.965  13.081  0.00  0.00    +0.000 HD
ATOM     13  H   UNL     1      42.688   6.407  12.802  0.00  0.00    +0.000 HD
ENDBRANCH   3  10
ENDBRANCH   2   6
ENDBRANCH   1   2
BRANCH   1  14
ATOM     14  C   UNL     1      48.974   8.774  14.199  0.00  0.00    +0.000 C 
BRANCH  14  15
ATOM     15  C   UNL     1      48.736   8.361  15.630  0.00  0.00    +0.000 A 
ATOM     16  C   UNL     1      48.197   9.270  16.546  0.00  0.00    +0.000 A 
ATOM     17  C   UNL     1      47.963   8.880  17.869  0.00  0.00    +0.000 A 
ATOM     18  C   UNL     1      48.272   7.583  18.291  0.00  0.00    +0.000 A 
ATOM     19  C   UNL     1      48.845   6.682  17.396  0.00  0.00    +0.000 A 
ATOM     20  C   UNL     1      49.072   7.073  16.072  0.00  0.00    +0.000 A 
BRANCH  19  21
ATOM     21  O   UNL     1      49.185   5.383  17.684  0.00  0.00    +0.000 OA
BRANCH  21  22
ATOM     22  C   UNL     1      48.481   4.302  17.029  0.00  0.00    +0.000 C 
ATOM     23  C   UNL     1      46.941   4.312  17.072  0.00  0.00    +0.000 C 
ATOM     24  N   UNL     1      46.925   2.949  17.622  0.00  0.00    +0.000 NA
ATOM     25  C   UNL     1      48.376   2.996  17.849  0.00  0.00    +0.000 C 
ATOM     26  H   UNL     1      46.630   2.233  16.959  0.00  0.00    +0.000 HD
ENDBRANCH  21  22
ENDBRANCH  19  21
ENDBRANCH  14  15
ENDBRANCH   1  14
TORSDOF 7
ENDMDL
MODEL 8
REMARK VINA RESULT:    -6.002      3.165      4.992
REMARK INTER + INTRA:          -9.387
REMARK INTER:                  -8.527
REMARK INTRA:                  -0.860
REMARK UNBOUND:                -0.930
REMARK  Name = 
REMARK  7 active torsions:
REMARK  status: ('A' for Active; 'I' for Inactive)
REMARK    1  A    between atoms: C_2  and  C_4
REMARK    2  A    between atoms: C_7  and  C_8
REMARK    3  A    between atoms: C_8  and  C_9
REMARK    4  A    between atoms: C_9  and  C_10
REMARK    5  A    between atoms: C_10  and  C_11
REMARK    6  A    between atoms: C_15  and  O_16
REMARK    7  A    between atoms: O_16  and  C_17
REMARK                            x       y       z     vdW  Elec       q    Type
REMARK                         _______ _______ _______ _____ _____    ______ ____
ROOT
ATOM      1  C   UNL     1      48.998   7.347  12.572  0.00  0.00    +0.000 C 
ENDROOT
BRANCH   1   2
ATOM      2  C   UNL     1      47.604   7.735  12.077  0.00  0.00    +0.000 C 
BRANCH   2   6
ATOM      3  C   UNL     1      45.057   4.325  11.871  0.00  0.00    +0.000 A 
ATOM      4  C   UNL     1      45.092   5.200  10.786  0.00  0.00    +0.000 A 
ATOM      5  C   UNL     1      45.921   6.320  10.839  0.00  0.00    +0.000 A 
ATOM      6  C   UNL     1      46.701   6.533  11.974  0.00  0.00    +0.000 A 
ATOM      7  N   UNL     1      46.669   5.700  13.043  0.00  0.00    +0.000 NA
ATOM      8  C   UNL     1      45.843   4.624  12.974  0.00  0.00    +0.000 A 
BRANCH   3  10
ATOM      9  N   UNL     1      44.130   2.384  10.748  0.00  0.00    +0.000 N 
ATOM     10  C   UNL     1      44.205   3.120  11.902  0.00  0.00    +0.000 C 
ATOM     11  O   UNL     1      43.628   2.765  12.917  0.00  0.00    +0.000 OA
ATOM     12  H   UNL     1      43.623   1.509  10.803  0.00  0.00    +0.000 HD
ATOM     13  H   UNL     1      44.780   2.501   9.984  0.00  0.00    +0.000 HD
ENDBRANCH   3  10
ENDBRANCH   2   6
ENDBRANCH   1   2
BRANCH   1  14
ATOM     14  C   UNL     1      49.501   8.312  13.647  0.00  0.00    +0.000 C 
BRANCH  14  15
ATOM     15  C   UNL     1      50.124   7.573  14.805  0.00  0.00    +0.000 A 
ATOM     16  C   UNL     1      51.505   7.632  15.017  0.00  0.00    +0.000 A 
ATOM     17  C   UNL     1      52.079   6.958  16.101  0.00  0.00    +0.000 A 
ATOM     18  C   UNL     1      51.281   6.213  16.975  0.00  0.00    +0.000 A 
ATOM     19  C   UNL     1      49.909   6.116  16.749  0.00  0.00    +0.000 A 
ATOM     20  C   UNL     1      49.337   6.797  15.668  0.00  0.00    +0.000 A 
BRANCH  19  21
ATOM     21  O   UNL     1      49.020   5.426  17.536  0.00  0.00    +0.000 OA
BRANCH  21  22
ATOM     22  C   UNL     1      48.500   4.156  17.074  0.00  0.00    +0.000 C 
ATOM     23  C   UNL     1      47.016   4.090  16.664  0.00  0.00    +0.000 C 
ATOM     24  N   UNL     1      46.790   2.963  17.581  0.00  0.00    +0.000 NA
ATOM     25  C   UNL     1      48.111   3.162  18.192  0.00  0.00    +0.000 C 
ATOM     26  H   UNL     1      46.677   2.063  17.117  0.00  0.00    +0.000 HD
ENDBRANCH  21  22
ENDBRANCH  19  21
ENDBRANCH  14  15
ENDBRANCH   1  14
TORSDOF 7
ENDMDL
MODEL 9
REMARK VINA RESULT:    -5.832      4.474      7.006
REMARK INTER + INTRA:          -9.149
REMARK INTER:                  -8.286
REMARK INTRA:                  -0.862
REMARK UNBOUND:                -0.930
REMARK  Name = 
REMARK  7 active torsions:
REMARK  status: ('A' for Active; 'I' for Inactive)
REMARK    1  A    between atoms: C_2  and  C_4
REMARK    2  A    between atoms: C_7  and  C_8
REMARK    3  A    between atoms: C_8  and  C_9
REMARK    4  A    between atoms: C_9  and  C_10
REMARK    5  A    between atoms: C_10  and  C_11
REMARK    6  A    between atoms: C_15  and  O_16
REMARK    7  A    between atoms: O_16  and  C_17
REMARK                            x       y       z     vdW  Elec       q    Type
REMARK                         _______ _______ _______ _____ _____    ______ ____
ROOT
ATOM      1  C   UNL     1      48.682   7.824  11.691  0.00  0.00    +0.000 C 
ENDROOT
BRANCH   1   2
ATOM      2  C   UNL     1      48.456   6.866  12.861  0.00  0.00    +0.000 C 
BRANCH   2   6
ATOM      3  C   UNL     1      45.128   4.324  12.071  0.00  0.00    +0.000 A 
ATOM      4  C   UNL     1      45.900   4.081  13.207  0.00  0.00    +0.000 A 
ATOM      5  C   UNL     1      46.992   4.905  13.479  0.00  0.00    +0.000 A 
ATOM      6  C   UNL     1      47.280   5.956  12.610  0.00  0.00    +0.000 A 
ATOM      7  N   UNL     1      46.548   6.197  11.495  0.00  0.00    +0.000 NA
ATOM      8  C   UNL     1      45.498   5.373  11.244  0.00  0.00    +0.000 A 
BRANCH   3  10
ATOM      9  N   UNL     1      43.788   2.326  12.393  0.00  0.00    +0.000 N 
ATOM     10  C   UNL     1      43.960   3.499  11.705  0.00  0.00    +0.000 C 
ATOM     11  O   UNL     1      43.155   3.860  10.861  0.00  0.00    +0.000 OA
ATOM     12  H   UNL     1      42.935   1.813  12.206  0.00  0.00    +0.000 HD
ATOM     13  H   UNL     1      44.277   2.123  13.254  0.00  0.00    +0.000 HD
ENDBRANCH   3  10
ENDBRANCH   2   6
ENDBRANCH   1   2
BRANCH   1  14
ATOM     14  C   UNL     1      49.056   9.225  12.177  0.00  0.00    +0.000 C 
BRANCH  14  15
ATOM     15  C   UNL     1      48.113  10.268  11.631  0.00  0.00    +0.000 A 
ATOM     16  C   UNL     1      48.577  11.240  10.740  0.00  0.00    +0.000 A 
ATOM     17  C   UNL     1      47.696  12.198  10.224  0.00  0.00    +0.000 A 
ATOM     18  C   UNL     1      46.349  12.198  10.599  0.00  0.00    +0.000 A 
ATOM     19  C   UNL     1      45.886  11.257  11.516  0.00  0.00    +0.000 A 
ATOM     20  C   UNL     1      46.767  10.296  12.026  0.00  0.00    +0.000 A 
BRANCH  19  21
ATOM     21  O   UNL     1      44.590  11.147  11.957  0.00  0.00    +0.000 OA
BRANCH  21  22
ATOM     22  C   UNL     1      43.546  10.799  11.016  0.00  0.00    +0.000 C 
ATOM     23  C   UNL     1      42.086  10.852  11.505  0.00  0.00    +0.000 C 
ATOM     24  N   UNL     1      41.865   9.467  11.065  0.00  0.00    +0.000 NA
ATOM     25  C   UNL     1      43.305   9.284  10.835  0.00  0.00    +0.000 C 
ATOM     26  H   UNL     1      41.295   9.380  10.225  0.00  0.00    +0.000 HD
ENDBRANCH  21  22
ENDBRANCH  19  21
ENDBRANCH  14  15
ENDBRANCH   1  14
TORSDOF 7
ENDMDL
