MODEL 1
REMARK VINA RESULT:    -8.672      0.000      0.000
REMARK INTER + INTRA:         -12.190
REMARK INTER:                 -11.714
REMARK INTRA:                  -0.476
REMARK UNBOUND:                -0.476
REMARK  Name = 
REMARK  7 active torsions:
REMARK  status: ('A' for Active; 'I' for Inactive)
REMARK    1  A    between atoms: C_1  and  S_2
REMARK    2  A    between atoms: S_2  and  C_5
REMARK    3  A    between atoms: C_10  and  C_11
REMARK    4  A    between atoms: C_11  and  C_12
REMARK    5  A    between atoms: C_15  and  C_16
REMARK    6  A    between atoms: C_16  and  N_17
REMARK    7  A    between atoms: C_18  and  C_20
REMARK                            x       y       z     vdW  Elec       q    Type
REMARK                         _______ _______ _______ _____ _____    ______ ____
ROOT
ATOM      1  C   UNL     1      46.349   6.374  11.904  0.00  0.00    +0.000 A 
ATOM      2  C   UNL     1      46.457   5.489  12.990  0.00  0.00    +0.000 A 
ATOM      3  C   UNL     1      47.380   5.719  14.023  0.00  0.00    +0.000 A 
ATOM      4  C   UNL     1      48.207   6.848  13.998  0.00  0.00    +0.000 A 
ATOM      5  C   UNL     1      48.209   7.642  12.841  0.00  0.00    +0.000 A 
ATOM      6  C   UNL     1      47.282   7.415  11.813  0.00  0.00    +0.000 A 
ENDROOT
BRANCH   1   7
ATOM      7  C   UNL     1      45.238   6.231  10.874  0.00  0.00    +0.000 C 
BRANCH   7  13
ATOM      8  C   UNL     1      44.767   3.680  10.413  0.00  0.00    +0.000 A 
ATOM      9  C   UNL     1      45.002   2.550   9.599  0.00  0.00    +0.000 A 
ATOM     10  C   UNL     1      45.655   2.668   8.377  0.00  0.00    +0.000 A 
ATOM     11  C   UNL     1      46.092   3.917   7.963  0.00  0.00    +0.000 A 
ATOM     12  C   UNL     1      45.928   5.028   8.798  0.00  0.00    +0.000 A 
ATOM     13  C   UNL     1      45.283   4.944  10.055  0.00  0.00    +0.000 A 
BRANCH   8  15
ATOM     14  C   UNL     1      42.628   4.804  11.794  0.00  0.00    +0.000 C 
ATOM     15  S   UNL     1      43.673   3.355  11.791  0.00  0.00    +0.000 S 
ATOM     16  O   UNL     1      44.421   3.380  13.032  0.00  0.00    +0.000 OA
ATOM     17  O   UNL     1      42.858   2.209  11.436  0.00  0.00    +0.000 OA
ENDBRANCH   8  15
ENDBRANCH   7  13
ENDBRANCH   1   7
BRANCH   4  18
ATOM     18  C   UNL     1      48.930   7.316  15.238  0.00  0.00    +0.000 C 
BRANCH  18  19
ATOM     19  N   UNL     1      49.993   6.472  15.714  0.00  0.00    +0.000 N 
ATOM     20  C   UNL     1      49.800   5.767  16.887  0.00  0.00    +0.000 C 
ATOM     21  O   UNL     1      48.717   5.759  17.467  0.00  0.00    +0.000 OA
ATOM     22  H   UNL     1      50.937   6.655  15.387  0.00  0.00    +0.000 HD
BRANCH  20  23
ATOM     23  C   UNL     1      50.927   4.979  17.396  0.00  0.00    +0.000 A 
ATOM     24  C   UNL     1      52.049   5.622  17.906  0.00  0.00    +0.000 A 
ATOM     25  S   UNL     1      53.249   4.553  18.477  0.00  0.00    +0.000 S 
ATOM     26  C   UNL     1      52.339   3.195  18.006  0.00  0.00    +0.000 A 
ATOM     27  N   UNL     1      52.818   1.934  18.181  0.00  0.00    +0.000 NA
ATOM     28  C   UNL     1      52.045   1.005  17.727  0.00  0.00    +0.000 A 
ATOM     29  N   UNL     1      50.833   1.221  17.121  0.00  0.00    +0.000 N 
ATOM     30  C   UNL     1      50.286   2.472  16.972  0.00  0.00    +0.000 A 
ATOM     31  O   UNL     1      49.166   2.630  16.498  0.00  0.00    +0.000 OA
ATOM     32  C   UNL     1      51.127   3.554  17.442  0.00  0.00    +0.000 A 
ATOM     33  H   UNL     1      50.269   0.449  16.799  0.00  0.00    +0.000 HD
ENDBRANCH  20  23
ENDBRANCH  18  19
ENDBRANCH   4  18
TORSDOF 6
ENDMDL
MODEL 2
REMARK VINA RESULT:    -8.198      2.114      2.442
REMARK INTER + INTRA:         -11.550
REMARK INTER:                 -10.596
REMARK INTRA:                  -0.954
REMARK UNBOUND:                -0.476
REMARK  Name = 
REMARK  7 active torsions:
REMARK  status: ('A' for Active; 'I' for Inactive)
REMARK    1  A    between atoms: C_1  and  S_2
REMARK    2  A    between atoms: S_2  and  C_5
REMARK    3  A    between atoms: C_10  and  C_11
REMARK    4  A    between atoms: C_11  and  C_12
REMARK    5  A    between atoms: C_15  and  C_16
REMARK    6  A    between atoms: C_16  and  N_17
REMARK    7  A    between atoms: C_18  and  C_20
REMARK                            x       y       z     vdW  Elec       q    Type
REMARK                         _______ _______ _______ _____ _____    ______ ____
ROOT
ATOM      1  C   UNL     1      46.712   6.450  11.733  0.00  0.00    +0.000 A 
ATOM      2  C   UNL     1      46.946   5.845  12.979  0.00  0.00    +0.000 A 
ATOM      3  C   UNL     1      48.093   6.150  13.728  0.00  0.00    +0.000 A 
ATOM      4  C   UNL     1      49.025   7.081  13.251  0.00  0.00    +0.000 A 
ATOM      5  C   UNL     1      48.870   7.562  11.943  0.00  0.00    +0.000 A 
ATOM      6  C   UNL     1      47.720   7.260  11.198  0.00  0.00    +0.000 A 
ENDROOT
BRANCH   1   7
ATOM      7  C   UNL     1      45.393   6.259  10.996  0.00  0.00    +0.000 C 
BRANCH   7  13
ATOM      8  C   UNL     1      44.721   3.760  10.502  0.00  0.00    +0.000 A 
ATOM      9  C   UNL     1      44.836   2.638   9.653  0.00  0.00    +0.000 A 
ATOM     10  C   UNL     1      45.438   2.741   8.403  0.00  0.00    +0.000 A 
ATOM     11  C   UNL     1      45.943   3.966   7.997  0.00  0.00    +0.000 A 
ATOM     12  C   UNL     1      45.898   5.064   8.863  0.00  0.00    +0.000 A 
ATOM     13  C   UNL     1      45.308   4.994  10.147  0.00  0.00    +0.000 A 
BRANCH   8  15
ATOM     14  C   UNL     1      42.566   4.879  11.863  0.00  0.00    +0.000 C 
ATOM     15  S   UNL     1      43.672   3.477  11.924  0.00  0.00    +0.000 S 
ATOM     16  O   UNL     1      44.445   3.611  13.142  0.00  0.00    +0.000 OA
ATOM     17  O   UNL     1      42.900   2.278  11.661  0.00  0.00    +0.000 OA
ENDBRANCH   8  15
ENDBRANCH   7  13
ENDBRANCH   1   7
BRANCH   4  18
ATOM     18  C   UNL     1      50.053   7.698  14.169  0.00  0.00    +0.000 C 
BRANCH  18  19
ATOM     19  N   UNL     1      49.729   7.718  15.570  0.00  0.00    +0.000 N 
ATOM     20  C   UNL     1      50.464   6.920  16.428  0.00  0.00    +0.000 C 
ATOM     21  O   UNL     1      51.443   6.287  16.043  0.00  0.00    +0.000 OA
ATOM     22  H   UNL     1      48.806   8.038  15.847  0.00  0.00    +0.000 HD
BRANCH  20  23
ATOM     23  C   UNL     1      50.062   6.895  17.838  0.00  0.00    +0.000 A 
ATOM     24  C   UNL     1      50.245   8.020  18.632  0.00  0.00    +0.000 A 
ATOM     25  S   UNL     1      49.698   7.822  20.236  0.00  0.00    +0.000 S 
ATOM     26  C   UNL     1      49.255   6.206  19.941  0.00  0.00    +0.000 A 
ATOM     27  N   UNL     1      48.738   5.428  20.930  0.00  0.00    +0.000 NA
ATOM     28  C   UNL     1      48.501   4.209  20.577  0.00  0.00    +0.000 A 
ATOM     29  N   UNL     1      48.724   3.700  19.323  0.00  0.00    +0.000 N 
ATOM     30  C   UNL     1      49.192   4.462  18.281  0.00  0.00    +0.000 A 
ATOM     31  O   UNL     1      49.308   3.999  17.150  0.00  0.00    +0.000 OA
ATOM     32  C   UNL     1      49.501   5.832  18.631  0.00  0.00    +0.000 A 
ATOM     33  H   UNL     1      48.504   2.739  19.107  0.00  0.00    +0.000 HD
ENDBRANCH  20  23
ENDBRANCH  18  19
ENDBRANCH   4  18
TORSDOF 6
ENDMDL
MODEL 3
REMARK VINA RESULT:    -8.061      3.564      8.547
REMARK INTER + INTRA:         -11.365
REMARK INTER:                  -9.748
REMARK INTRA:                  -1.617
REMARK UNBOUND:                -0.476
REMARK  Name = 
REMARK  7 active torsions:
REMARK  status: ('A' for Active; 'I' for Inactive)
REMARK    1  A    between atoms: C_1  and  S_2
REMARK    2  A    between atoms: S_2  and  C_5
REMARK    3  A    between atoms: C_10  and  C_11
REMARK    4  A    between atoms: C_11  and  C_12
REMARK    5  A    between atoms: C_15  and  C_16
REMARK    6  A    between atoms: C_16  and  N_17
REMARK    7  A    between atoms: C_18  and  C_20
REMARK                            x       y       z     vdW  Elec       q    Type
REMARK                         _______ _______ _______ _____ _____    ______ ____
ROOT
ATOM      1  C   UNL     1      49.632   7.832  15.729  0.00  0.00    +0.000 A 
ATOM      2  C   UNL     1      48.446   8.578  15.621  0.00  0.00    +0.000 A 
ATOM      3  C   UNL     1      47.819   8.766  14.379  0.00  0.00    +0.000 A 
ATOM      4  C   UNL     1      48.360   8.199  13.218  0.00  0.00    +0.000 A 
ATOM      5  C   UNL     1      49.622   7.592  13.303  0.00  0.00    +0.000 A 
ATOM      6  C   UNL     1      50.244   7.400  14.546  0.00  0.00    +0.000 A 
ENDROOT
BRANCH   1   7
ATOM      7  C   UNL     1      50.223   7.476  17.086  0.00  0.00    +0.000 C 
BRANCH   7  13
ATOM      8  C   UNL     1      48.422   5.822  18.067  0.00  0.00    +0.000 A 
ATOM      9  C   UNL     1      47.432   5.576  19.044  0.00  0.00    +0.000 A 
ATOM     10  C   UNL     1      47.277   6.422  20.138  0.00  0.00    +0.000 A 
ATOM     11  C   UNL     1      48.102   7.529  20.257  0.00  0.00    +0.000 A 
ATOM     12  C   UNL     1      49.034   7.819  19.255  0.00  0.00    +0.000 A 
ATOM     13  C   UNL     1      49.210   6.991  18.120  0.00  0.00    +0.000 A 
BRANCH   8  15
ATOM     14  C   UNL     1      47.638   3.185  17.645  0.00  0.00    +0.000 C 
ATOM     15  S   UNL     1      48.637   4.473  16.912  0.00  0.00    +0.000 S 
ATOM     16  O   UNL     1      50.008   4.006  16.949  0.00  0.00    +0.000 OA
ATOM     17  O   UNL     1      48.019   4.869  15.661  0.00  0.00    +0.000 OA
ENDBRANCH   8  15
ENDBRANCH   7  13
ENDBRANCH   1   7
BRANCH   4  18
ATOM     18  C   UNL     1      47.540   8.068  11.957  0.00  0.00    +0.000 C 
BRANCH  18  19
ATOM     19  N   UNL     1      46.911   6.794  11.733  0.00  0.00    +0.000 N 
ATOM     20  C   UNL     1      45.529   6.731  11.738  0.00  0.00    +0.000 C 
ATOM     21  O   UNL     1      44.836   7.741  11.821  0.00  0.00    +0.000 OA
ATOM     22  H   UNL     1      47.454   5.953  11.900  0.00  0.00    +0.000 HD
BRANCH  20  23
ATOM     23  C   UNL     1      44.913   5.408  11.591  0.00  0.00    +0.000 A 
ATOM     24  C   UNL     1      44.214   4.847  12.652  0.00  0.00    +0.000 A 
ATOM     25  S   UNL     1      43.541   3.320  12.296  0.00  0.00    +0.000 S 
ATOM     26  C   UNL     1      44.214   3.329  10.733  0.00  0.00    +0.000 A 
ATOM     27  N   UNL     1      44.046   2.275   9.890  0.00  0.00    +0.000 NA
ATOM     28  C   UNL     1      44.659   2.396   8.760  0.00  0.00    +0.000 A 
ATOM     29  N   UNL     1      45.415   3.479   8.392  0.00  0.00    +0.000 N 
ATOM     30  C   UNL     1      45.568   4.588   9.188  0.00  0.00    +0.000 A 
ATOM     31  O   UNL     1      46.186   5.575   8.801  0.00  0.00    +0.000 OA
ATOM     32  C   UNL     1      44.922   4.491  10.481  0.00  0.00    +0.000 A 
ATOM     33  H   UNL     1      45.859   3.519   7.487  0.00  0.00    +0.000 HD
ENDBRANCH  20  23
ENDBRANCH  18  19
ENDBRANCH   4  18
TORSDOF 6
ENDMDL
MODEL 4
REMARK VINA RESULT:    -7.951      3.239      7.967
REMARK INTER + INTRA:         -11.216
REMARK INTER:                  -9.865
REMARK INTRA:                  -1.351
REMARK UNBOUND:                -0.476
REMARK  Name = 
REMARK  7 active torsions:
REMARK  status: ('A' for Active; 'I' for Inactive)
REMARK    1  A    between atoms: C_1  and  S_2
REMARK    2  A    between atoms: S_2  and  C_5
REMARK    3  A    between atoms: C_10  and  C_11
REMARK    4  A    between atoms: C_11  and  C_12
REMARK    5  A    between atoms: C_15  and  C_16
REMARK    6  A    between atoms: C_16  and  N_17
REMARK    7  A    between atoms: C_18  and  C_20
REMARK                            x       y       z     vdW  Elec       q    Type
REMARK                         _______ _______ _______ _____ _____    ______ ____
ROOT
ATOM      1  C   UNL     1      49.347   7.209  16.330  0.00  0.00    +0.000 A 
ATOM      2  C   UNL     1      48.352   8.199  16.261  0.00  0.00    +0.000 A 
ATOM      3  C   UNL     1      47.923   8.709  15.025  0.00  0.00    +0.000 A 
ATOM      4  C   UNL     1      48.472   8.230  13.830  0.00  0.00    +0.000 A 
ATOM      5  C   UNL     1      49.571   7.361  13.908  0.00  0.00    +0.000 A 
ATOM      6  C   UNL     1      49.994   6.847  15.142  0.00  0.00    +0.000 A 
ENDROOT
BRANCH   1   7
ATOM      7  C   UNL     1      49.694   6.526  17.645  0.00  0.00    +0.000 C 
BRANCH   7  13
ATOM      8  C   UNL     1      49.115   3.961  17.490  0.00  0.00    +0.000 A 
ATOM      9  C   UNL     1      49.581   2.627  17.513  0.00  0.00    +0.000 A 
ATOM     10  C   UNL     1      50.941   2.340  17.471  0.00  0.00    +0.000 A 
ATOM     11  C   UNL     1      51.850   3.386  17.421  0.00  0.00    +0.000 A 
ATOM     12  C   UNL     1      51.398   4.709  17.472  0.00  0.00    +0.000 A 
ATOM     13  C   UNL     1      50.023   5.040  17.531  0.00  0.00    +0.000 A 
BRANCH   8  15
ATOM     14  C   UNL     1      47.215   4.493  15.528  0.00  0.00    +0.000 C 
ATOM     15  S   UNL     1      47.345   4.097  17.265  0.00  0.00    +0.000 S 
ATOM     16  O   UNL     1      46.842   5.245  17.991  0.00  0.00    +0.000 OA
ATOM     17  O   UNL     1      46.779   2.778  17.473  0.00  0.00    +0.000 OA
ENDBRANCH   8  15
ENDBRANCH   7  13
ENDBRANCH   1   7
BRANCH   4  18
ATOM     18  C   UNL     1      47.794   8.477  12.504  0.00  0.00    +0.000 C 
BRANCH  18  19
ATOM     19  N   UNL     1      47.340   7.313  11.791  0.00  0.00    +0.000 N 
ATOM     20  C   UNL     1      45.983   7.156  11.580  0.00  0.00    +0.000 C 
ATOM     21  O   UNL     1      45.175   8.029  11.888  0.00  0.00    +0.000 OA
ATOM     22  H   UNL     1      47.953   6.504  11.750  0.00  0.00    +0.000 HD
BRANCH  20  23
ATOM     23  C   UNL     1      45.538   5.922  10.925  0.00  0.00    +0.000 A 
ATOM     24  C   UNL     1      45.823   5.709   9.582  0.00  0.00    +0.000 A 
ATOM     25  S   UNL     1      45.256   4.212   8.991  0.00  0.00    +0.000 S 
ATOM     26  C   UNL     1      44.554   3.826  10.493  0.00  0.00    +0.000 A 
ATOM     27  N   UNL     1      43.864   2.668  10.668  0.00  0.00    +0.000 NA
ATOM     28  C   UNL     1      43.340   2.534  11.841  0.00  0.00    +0.000 A 
ATOM     29  N   UNL     1      43.453   3.448  12.857  0.00  0.00    +0.000 N 
ATOM     30  C   UNL     1      44.186   4.604  12.743  0.00  0.00    +0.000 A 
ATOM     31  O   UNL     1      44.334   5.365  13.694  0.00  0.00    +0.000 OA
ATOM     32  C   UNL     1      44.771   4.816  11.436  0.00  0.00    +0.000 A 
ATOM     33  H   UNL     1      43.031   3.277  13.757  0.00  0.00    +0.000 HD
ENDBRANCH  20  23
ENDBRANCH  18  19
ENDBRANCH   4  18
TORSDOF 6
ENDMDL
MODEL 5
REMARK VINA RESULT:    -7.342      3.450      8.286
REMARK INTER + INTRA:         -10.394
REMARK INTER:                  -9.254
REMARK INTRA:                  -1.140
REMARK UNBOUND:                -0.476
REMARK  Name = 
REMARK  7 active torsions:
REMARK  status: ('A' for Active; 'I' for Inactive)
REMARK    1  A    between atoms: C_1  and  S_2
REMARK    2  A    between atoms: S_2  and  C_5
REMARK    3  A    between atoms: C_10  and  C_11
REMARK    4  A    between atoms: C_11  and  C_12
REMARK    5  A    between atoms: C_15  and  C_16
REMARK    6  A    between atoms: C_16  and  N_17
REMARK    7  A    between atoms: C_18  and  C_20
REMARK                            x       y       z     vdW  Elec       q    Type
REMARK                         _______ _______ _______ _____ _____    ______ ____
ROOT
ATOM      1  C   UNL     1      49.605   7.394  15.813  0.00  0.00    +0.000 A 
ATOM      2  C   UNL     1      48.459   8.204  15.868  0.00  0.00    +0.000 A 
ATOM      3  C   UNL     1      47.901   8.750  14.701  0.00  0.00    +0.000 A 
ATOM      4  C   UNL     1      48.472   8.485  13.450  0.00  0.00    +0.000 A 
ATOM      5  C   UNL     1      49.701   7.811  13.413  0.00  0.00    +0.000 A 
ATOM      6  C   UNL     1      50.254   7.260  14.579  0.00  0.00    +0.000 A 
ENDROOT
BRANCH   1   7
ATOM      7  C   UNL     1      50.114   6.657  17.044  0.00  0.00    +0.000 C 
BRANCH   7  13
ATOM      8  C   UNL     1      48.021   5.481  18.129  0.00  0.00    +0.000 A 
ATOM      9  C   UNL     1      47.053   5.476  19.157  0.00  0.00    +0.000 A 
ATOM     10  C   UNL     1      47.161   6.330  20.250  0.00  0.00    +0.000 A 
ATOM     11  C   UNL     1      48.233   7.206  20.318  0.00  0.00    +0.000 A 
ATOM     12  C   UNL     1      49.155   7.267  19.267  0.00  0.00    +0.000 A 
ATOM     13  C   UNL     1      49.069   6.426  18.132  0.00  0.00    +0.000 A 
BRANCH   8  15
ATOM     14  C   UNL     1      49.250   3.097  17.386  0.00  0.00    +0.000 C 
ATOM     15  S   UNL     1      47.847   4.124  16.976  0.00  0.00    +0.000 S 
ATOM     16  O   UNL     1      48.060   4.595  15.623  0.00  0.00    +0.000 OA
ATOM     17  O   UNL     1      46.639   3.404  17.332  0.00  0.00    +0.000 OA
ENDBRANCH   8  15
ENDBRANCH   7  13
ENDBRANCH   1   7
BRANCH   4  18
ATOM     18  C   UNL     1      47.709   8.740  12.173  0.00  0.00    +0.000 C 
BRANCH  18  19
ATOM     19  N   UNL     1      47.251   7.578  11.459  0.00  0.00    +0.000 N 
ATOM     20  C   UNL     1      45.935   7.184  11.614  0.00  0.00    +0.000 C 
ATOM     21  O   UNL     1      45.129   7.857  12.253  0.00  0.00    +0.000 OA
ATOM     22  H   UNL     1      47.942   6.907  11.137  0.00  0.00    +0.000 HD
BRANCH  20  23
ATOM     23  C   UNL     1      45.514   5.950  10.943  0.00  0.00    +0.000 A 
ATOM     24  C   UNL     1      45.808   5.758   9.599  0.00  0.00    +0.000 A 
ATOM     25  S   UNL     1      45.268   4.258   8.989  0.00  0.00    +0.000 S 
ATOM     26  C   UNL     1      44.568   3.843  10.483  0.00  0.00    +0.000 A 
ATOM     27  N   UNL     1      43.896   2.671  10.642  0.00  0.00    +0.000 NA
ATOM     28  C   UNL     1      43.371   2.515  11.811  0.00  0.00    +0.000 A 
ATOM     29  N   UNL     1      43.464   3.419  12.838  0.00  0.00    +0.000 N 
ATOM     30  C   UNL     1      44.177   4.588  12.740  0.00  0.00    +0.000 A 
ATOM     31  O   UNL     1      44.309   5.341  13.701  0.00  0.00    +0.000 OA
ATOM     32  C   UNL     1      44.764   4.825  11.438  0.00  0.00    +0.000 A 
ATOM     33  H   UNL     1      43.041   3.230  13.735  0.00  0.00    +0.000 HD
ENDBRANCH  20  23
ENDBRANCH  18  19
ENDBRANCH   4  18
TORSDOF 6
ENDMDL
MODEL 6
REMARK VINA RESULT:    -7.330      4.436      9.677
REMARK INTER + INTRA:         -10.377
REMARK INTER:                  -9.111
REMARK INTRA:                  -1.266
REMARK UNBOUND:                -0.476
REMARK  Name = 
REMARK  7 active torsions:
REMARK  status: ('A' for Active; 'I' for Inactive)
REMARK    1  A    between atoms: C_1  and  S_2
REMARK    2  A    between atoms: S_2  and  C_5
REMARK    3  A    between atoms: C_10  and  C_11
REMARK    4  A    between atoms: C_11  and  C_12
REMARK    5  A    between atoms: C_15  and  C_16
REMARK    6  A    between atoms: C_16  and  N_17
REMARK    7  A    between atoms: C_18  and  C_20
REMARK                            x       y       z     vdW  Elec       q    Type
REMARK                         _______ _______ _______ _____ _____    ______ ____
ROOT
ATOM      1  C   UNL     1      48.976   6.503  19.657  0.00  0.00    +0.000 A 
ATOM      2  C   UNL     1      49.893   6.178  18.644  0.00  0.00    +0.000 A 
ATOM      3  C   UNL     1      49.547   5.295  17.608  0.00  0.00    +0.000 A 
ATOM      4  C   UNL     1      48.267   4.728  17.558  0.00  0.00    +0.000 A 
ATOM      5  C   UNL     1      47.411   4.929  18.650  0.00  0.00    +0.000 A 
ATOM      6  C   UNL     1      47.756   5.816  19.680  0.00  0.00    +0.000 A 
ENDROOT
BRANCH   1   7
ATOM      7  C   UNL     1      49.279   7.588  20.681  0.00  0.00    +0.000 C 
BRANCH   7  13
ATOM      8  C   UNL     1      47.918   9.729  19.970  0.00  0.00    +0.000 A 
ATOM      9  C   UNL     1      46.957  10.704  20.318  0.00  0.00    +0.000 A 
ATOM     10  C   UNL     1      46.183  10.572  21.466  0.00  0.00    +0.000 A 
ATOM     11  C   UNL     1      46.373   9.470  22.285  0.00  0.00    +0.000 A 
ATOM     12  C   UNL     1      47.374   8.539  21.985  0.00  0.00    +0.000 A 
ATOM     13  C   UNL     1      48.191   8.648  20.835  0.00  0.00    +0.000 A 
BRANCH   8  15
ATOM     14  C   UNL     1      47.891  11.512  17.833  0.00  0.00    +0.000 C 
ATOM     15  S   UNL     1      48.593   9.945  18.327  0.00  0.00    +0.000 S 
ATOM     16  O   UNL     1      48.045   8.945  17.434  0.00  0.00    +0.000 OA
ATOM     17  O   UNL     1      50.027  10.114  18.466  0.00  0.00    +0.000 OA
ENDBRANCH   8  15
ENDBRANCH   7  13
ENDBRANCH   1   7
BRANCH   4  18
ATOM     18  C   UNL     1      47.747   4.085  16.295  0.00  0.00    +0.000 C 
BRANCH  18  19
ATOM     19  N   UNL     1      46.961   4.922  15.428  0.00  0.00    +0.000 N 
ATOM     20  C   UNL     1      46.851   4.572  14.095  0.00  0.00    +0.000 C 
ATOM     21  O   UNL     1      47.312   3.519  13.663  0.00  0.00    +0.000 OA
ATOM     22  H   UNL     1      46.787   5.881  15.713  0.00  0.00    +0.000 HD
BRANCH  20  23
ATOM     23  C   UNL     1      46.113   5.484  13.215  0.00  0.00    +0.000 A 
ATOM     24  C   UNL     1      46.691   6.684  12.820  0.00  0.00    +0.000 A 
ATOM     25  S   UNL     1      45.705   7.607  11.777  0.00  0.00    +0.000 S 
ATOM     26  C   UNL     1      44.448   6.464  11.868  0.00  0.00    +0.000 A 
ATOM     27  N   UNL     1      43.270   6.663  11.218  0.00  0.00    +0.000 NA
ATOM     28  C   UNL     1      42.389   5.741  11.422  0.00  0.00    +0.000 A 
ATOM     29  N   UNL     1      42.582   4.634  12.208  0.00  0.00    +0.000 N 
ATOM     30  C   UNL     1      43.773   4.365  12.839  0.00  0.00    +0.000 A 
ATOM     31  O   UNL     1      43.942   3.328  13.472  0.00  0.00    +0.000 OA
ATOM     32  C   UNL     1      44.787   5.384  12.664  0.00  0.00    +0.000 A 
ATOM     33  H   UNL     1      41.857   3.942  12.316  0.00  0.00    +0.000 HD
ENDBRANCH  20  23
ENDBRANCH  18  19
ENDBRANCH   4  18
TORSDOF 6
ENDMDL
MODEL 7
REMARK VINA RESULT:    -7.329      2.617      3.255
REMARK INTER + INTRA:         -10.376
REMARK INTER:                  -9.485
REMARK INTRA:                  -0.892
REMARK UNBOUND:                -0.476
REMARK  Name = 
REMARK  7 active torsions:
REMARK  status: ('A' for Active; 'I' for Inactive)
REMARK    1  A    between atoms: C_1  and  S_2
REMARK    2  A    between atoms: S_2  and  C_5
REMARK    3  A    between atoms: C_10  and  C_11
REMARK    4  A    between atoms: C_11  and  C_12
REMARK    5  A    between atoms: C_15  and  C_16
REMARK    6  A    between atoms: C_16  and  N_17
REMARK    7  A    between atoms: C_18  and  C_20
REMARK                            x       y       z     vdW  Elec       q    Type
REMARK                         _______ _______ _______ _____ _____    ______ ____
ROOT
ATOM      1  C   UNL     1      46.637   7.183  11.405  0.00  0.00    +0.000 A 
ATOM      2  C   UNL     1      48.018   7.259  11.650  0.00  0.00    +0.000 A 
ATOM      3  C   UNL     1      48.521   7.979  12.746  0.00  0.00    +0.000 A 
ATOM      4  C   UNL     1      47.648   8.627  13.630  0.00  0.00    +0.000 A 
ATOM      5  C   UNL     1      46.287   8.682  13.295  0.00  0.00    +0.000 A 
ATOM      6  C   UNL     1      45.786   7.957  12.203  0.00  0.00    +0.000 A 
ENDROOT
BRANCH   1   7
ATOM      7  C   UNL     1      46.074   6.267  10.328  0.00  0.00    +0.000 C 
BRANCH   7  13
ATOM      8  C   UNL     1      44.810   3.966  10.107  0.00  0.00    +0.000 A 
ATOM      9  C   UNL     1      43.997   2.986  10.718  0.00  0.00    +0.000 A 
ATOM     10  C   UNL     1      43.741   3.015  12.085  0.00  0.00    +0.000 A 
ATOM     11  C   UNL     1      44.286   4.033  12.852  0.00  0.00    +0.000 A 
ATOM     12  C   UNL     1      45.031   5.047  12.241  0.00  0.00    +0.000 A 
ATOM     13  C   UNL     1      45.299   5.060  10.851  0.00  0.00    +0.000 A 
BRANCH   8  15
ATOM     14  C   UNL     1      45.863   1.915   8.546  0.00  0.00    +0.000 C 
ATOM     15  S   UNL     1      45.238   3.584   8.412  0.00  0.00    +0.000 S 
ATOM     16  O   UNL     1      46.350   4.409   7.986  0.00  0.00    +0.000 OA
ATOM     17  O   UNL     1      44.005   3.547   7.651  0.00  0.00    +0.000 OA
ENDBRANCH   8  15
ENDBRANCH   7  13
ENDBRANCH   1   7
BRANCH   4  18
ATOM     18  C   UNL     1      48.113   9.086  14.991  0.00  0.00    +0.000 C 
BRANCH  18  19
ATOM     19  N   UNL     1      48.124   8.093  16.031  0.00  0.00    +0.000 N 
ATOM     20  C   UNL     1      49.313   7.446  16.312  0.00  0.00    +0.000 C 
ATOM     21  O   UNL     1      50.369   7.771  15.777  0.00  0.00    +0.000 OA
ATOM     22  H   UNL     1      47.242   7.665  16.298  0.00  0.00    +0.000 HD
BRANCH  20  23
ATOM     23  C   UNL     1      49.281   6.379  17.319  0.00  0.00    +0.000 A 
ATOM     24  C   UNL     1      49.991   6.524  18.505  0.00  0.00    +0.000 A 
ATOM     25  S   UNL     1      49.819   5.202  19.570  0.00  0.00    +0.000 S 
ATOM     26  C   UNL     1      48.842   4.365  18.457  0.00  0.00    +0.000 A 
ATOM     27  N   UNL     1      48.368   3.120  18.735  0.00  0.00    +0.000 NA
ATOM     28  C   UNL     1      47.688   2.584  17.778  0.00  0.00    +0.000 A 
ATOM     29  N   UNL     1      47.429   3.183  16.571  0.00  0.00    +0.000 N 
ATOM     30  C   UNL     1      47.839   4.459  16.268  0.00  0.00    +0.000 A 
ATOM     31  O   UNL     1      47.526   4.998  15.211  0.00  0.00    +0.000 OA
ATOM     32  C   UNL     1      48.631   5.095  17.300  0.00  0.00    +0.000 A 
ATOM     33  H   UNL     1      46.878   2.715  15.868  0.00  0.00    +0.000 HD
ENDBRANCH  20  23
ENDBRANCH  18  19
ENDBRANCH   4  18
TORSDOF 6
ENDMDL
MODEL 8
REMARK VINA RESULT:    -7.222      3.218      7.991
REMARK INTER + INTRA:         -10.231
REMARK INTER:                  -8.720
REMARK INTRA:                  -1.511
REMARK UNBOUND:                -0.476
REMARK  Name = 
REMARK  7 active torsions:
REMARK  status: ('A' for Active; 'I' for Inactive)
REMARK    1  A    between atoms: C_1  and  S_2
REMARK    2  A    between atoms: S_2  and  C_5
REMARK    3  A    between atoms: C_10  and  C_11
REMARK    4  A    between atoms: C_11  and  C_12
REMARK    5  A    between atoms: C_15  and  C_16
REMARK    6  A    between atoms: C_16  and  N_17
REMARK    7  A    between atoms: C_18  and  C_20
REMARK                            x       y       z     vdW  Elec       q    Type
REMARK                         _______ _______ _______ _____ _____    ______ ____
ROOT
ATOM      1  C   UNL     1      50.514   6.929  17.415  0.00  0.00    +0.000 A 
ATOM      2  C   UNL     1      49.573   7.898  17.802  0.00  0.00    +0.000 A 
ATOM      3  C   UNL     1      48.905   8.681  16.847  0.00  0.00    +0.000 A 
ATOM      4  C   UNL     1      49.156   8.502  15.481  0.00  0.00    +0.000 A 
ATOM      5  C   UNL     1      50.206   7.650  15.107  0.00  0.00    +0.000 A 
ATOM      6  C   UNL     1      50.867   6.864  16.062  0.00  0.00    +0.000 A 
ENDROOT
BRANCH   1   7
ATOM      7  C   UNL     1      51.112   5.959  18.424  0.00  0.00    +0.000 C 
BRANCH   7  13
ATOM      8  C   UNL     1      49.891   3.702  17.824  0.00  0.00    +0.000 A 
ATOM      9  C   UNL     1      49.998   2.316  17.574  0.00  0.00    +0.000 A 
ATOM     10  C   UNL     1      51.238   1.709  17.410  0.00  0.00    +0.000 A 
ATOM     11  C   UNL     1      52.386   2.481  17.509  0.00  0.00    +0.000 A 
ATOM     12  C   UNL     1      52.290   3.839  17.829  0.00  0.00    +0.000 A 
ATOM     13  C   UNL     1      51.047   4.489  18.018  0.00  0.00    +0.000 A 
BRANCH   8  15
ATOM     14  C   UNL     1      47.262   2.814  17.614  0.00  0.00    +0.000 C 
ATOM     15  S   UNL     1      48.216   4.321  17.719  0.00  0.00    +0.000 S 
ATOM     16  O   UNL     1      48.026   5.020  16.464  0.00  0.00    +0.000 OA
ATOM     17  O   UNL     1      47.911   4.964  18.982  0.00  0.00    +0.000 OA
ENDBRANCH   8  15
ENDBRANCH   7  13
ENDBRANCH   1   7
BRANCH   4  18
ATOM     18  C   UNL     1      48.214   9.049  14.435  0.00  0.00    +0.000 C 
BRANCH  18  19
ATOM     19  N   UNL     1      47.155   8.174  14.009  0.00  0.00    +0.000 N 
ATOM     20  C   UNL     1      47.004   7.932  12.656  0.00  0.00    +0.000 C 
ATOM     21  O   UNL     1      47.808   8.355  11.829  0.00  0.00    +0.000 OA
ATOM     22  H   UNL     1      46.372   8.023  14.637  0.00  0.00    +0.000 HD
BRANCH  20  23
ATOM     23  C   UNL     1      45.868   7.104  12.239  0.00  0.00    +0.000 A 
ATOM     24  C   UNL     1      44.768   7.693  11.628  0.00  0.00    +0.000 A 
ATOM     25  S   UNL     1      43.553   6.579  11.187  0.00  0.00    +0.000 S 
ATOM     26  C   UNL     1      44.427   5.281  11.854  0.00  0.00    +0.000 A 
ATOM     27  N   UNL     1      43.925   4.017  11.843  0.00  0.00    +0.000 NA
ATOM     28  C   UNL     1      44.672   3.144  12.433  0.00  0.00    +0.000 A 
ATOM     29  N   UNL     1      45.879   3.418  13.024  0.00  0.00    +0.000 N 
ATOM     30  C   UNL     1      46.450   4.667  13.011  0.00  0.00    +0.000 A 
ATOM     31  O   UNL     1      47.566   4.866  13.478  0.00  0.00    +0.000 OA
ATOM     32  C   UNL     1      45.639   5.690  12.384  0.00  0.00    +0.000 A 
ATOM     33  H   UNL     1      46.422   2.686  13.458  0.00  0.00    +0.000 HD
ENDBRANCH  20  23
ENDBRANCH  18  19
ENDBRANCH   4  18
TORSDOF 6
ENDMDL
MODEL 9
REMARK VINA RESULT:    -7.132      4.233      9.592
REMARK INTER + INTRA:         -10.110
REMARK INTER:                  -8.507
REMARK INTRA:                  -1.602
REMARK UNBOUND:                -0.476
REMARK  Name = 
REMARK  7 active torsions:
REMARK  status: ('A' for Active; 'I' for Inactive)
REMARK    1  A    between atoms: C_1  and  S_2
REMARK    2  A    between atoms: S_2  and  C_5
REMARK    3  A    between atoms: C_10  and  C_11
REMARK    4  A    between atoms: C_11  and  C_12
REMARK    5  A    between atoms: C_15  and  C_16
REMARK    6  A    between atoms: C_16  and  N_17
REMARK    7  A    between atoms: C_18  and  C_20
REMARK                            x       y       z     vdW  Elec       q    Type
REMARK                         _______ _______ _______ _____ _____    ______ ____
ROOT
ATOM      1  C   UNL     1      48.843   6.604  19.682  0.00  0.00    +0.000 A 
ATOM      2  C   UNL     1      49.855   6.081  18.859  0.00  0.00    +0.000 A 
ATOM      3  C   UNL     1      49.557   5.159  17.843  0.00  0.00    +0.000 A 
ATOM      4  C   UNL     1      48.236   4.751  17.620  0.00  0.00    +0.000 A 
ATOM      5  C   UNL     1      47.255   5.151  18.540  0.00  0.00    +0.000 A 
ATOM      6  C   UNL     1      47.553   6.077  19.550  0.00  0.00    +0.000 A 
ENDROOT
BRANCH   1   7
ATOM      7  C   UNL     1      49.128   7.730  20.666  0.00  0.00    +0.000 C 
BRANCH   7  13
ATOM      8  C   UNL     1      47.797   9.841  19.821  0.00  0.00    +0.000 A 
ATOM      9  C   UNL     1      46.835  10.838  20.100  0.00  0.00    +0.000 A 
ATOM     10  C   UNL     1      46.039  10.770  21.239  0.00  0.00    +0.000 A 
ATOM     11  C   UNL     1      46.205   9.709  22.116  0.00  0.00    +0.000 A 
ATOM     12  C   UNL     1      47.205   8.758  21.883  0.00  0.00    +0.000 A 
ATOM     13  C   UNL     1      48.045   8.804  20.745  0.00  0.00    +0.000 A 
BRANCH   8  15
ATOM     14  C   UNL     1      47.983  11.600  17.672  0.00  0.00    +0.000 C 
ATOM     15  S   UNL     1      48.504   9.969  18.183  0.00  0.00    +0.000 S 
ATOM     16  O   UNL     1      47.857   9.029  17.291  0.00  0.00    +0.000 OA
ATOM     17  O   UNL     1      49.947   9.980  18.333  0.00  0.00    +0.000 OA
ENDBRANCH   8  15
ENDBRANCH   7  13
ENDBRANCH   1   7
BRANCH   4  18
ATOM     18  C   UNL     1      47.836   4.067  16.335  0.00  0.00    +0.000 C 
BRANCH  18  19
ATOM     19  N   UNL     1      46.922   4.784  15.487  0.00  0.00    +0.000 N 
ATOM     20  C   UNL     1      46.855   4.439  14.149  0.00  0.00    +0.000 C 
ATOM     21  O   UNL     1      47.469   3.476  13.698  0.00  0.00    +0.000 OA
ATOM     22  H   UNL     1      46.605   5.701  15.787  0.00  0.00    +0.000 HD
BRANCH  20  23
ATOM     23  C   UNL     1      45.978   5.239  13.288  0.00  0.00    +0.000 A 
ATOM     24  C   UNL     1      44.928   4.630  12.612  0.00  0.00    +0.000 A 
ATOM     25  S   UNL     1      43.996   5.713  11.679  0.00  0.00    +0.000 S 
ATOM     26  C   UNL     1      45.002   7.020  12.097  0.00  0.00    +0.000 A 
ATOM     27  N   UNL     1      44.778   8.266  11.597  0.00  0.00    +0.000 NA
ATOM     28  C   UNL     1      45.652   9.146  11.955  0.00  0.00    +0.000 A 
ATOM     29  N   UNL     1      46.723   8.897  12.775  0.00  0.00    +0.000 N 
ATOM     30  C   UNL     1      46.957   7.670  13.346  0.00  0.00    +0.000 A 
ATOM     31  O   UNL     1      47.878   7.497  14.138  0.00  0.00    +0.000 OA
ATOM     32  C   UNL     1      46.019   6.639  12.954  0.00  0.00    +0.000 A 
ATOM     33  H   UNL     1      47.364   9.634  13.028  0.00  0.00    +0.000 HD
ENDBRANCH  20  23
ENDBRANCH  18  19
ENDBRANCH   4  18
TORSDOF 6
ENDMDL
