MODEL 1
REMARK VINA RESULT:    -8.247      0.000      0.000
REMARK INTER + INTRA:         -12.646
REMARK INTER:                 -11.621
REMARK INTRA:                  -1.025
REMARK UNBOUND:                -1.025
REMARK  Name = 
REMARK  8 active torsions:
REMARK  status: ('A' for Active; 'I' for Inactive)
REMARK    1  A    between atoms: C_1  and  C_2
REMARK    2  A    between atoms: C_5  and  C_6
REMARK    3  A    between atoms: C_6  and  N_7
REMARK    4  A    between atoms: N_7  and  C_8
REMARK    5  A    between atoms: C_8  and  C_9
REMARK    6  A    between atoms: C_12  and  C_13
REMARK    7  A    between atoms: C_13  and  N_14
REMARK    8  A    between atoms: C_15  and  C_17
REMARK                            x       y       z     vdW  Elec       q    Type
REMARK                         _______ _______ _______ _____ _____    ______ ____
ROOT
ATOM      1  C   UNL     1      44.653   5.666  11.763  0.00  0.00    +0.000 A 
ATOM      2  C   UNL     1      45.661   6.381  11.118  0.00  0.00    +0.000 A 
ATOM      3  C   UNL     1      46.862   6.603  11.786  0.00  0.00    +0.000 A 
ATOM      4  C   UNL     1      47.029   6.127  13.088  0.00  0.00    +0.000 A 
ATOM      5  C   UNL     1      45.976   5.412  13.645  0.00  0.00    +0.000 A 
ATOM      6  N   UNL     1      44.801   5.172  13.017  0.00  0.00    +0.000 NA
ENDROOT
BRANCH   1   7
ATOM      7  C   UNL     1      43.343   5.381  11.052  0.00  0.00    +0.000 C 
BRANCH   7   8
ATOM      8  N   UNL     1      43.486   4.682   9.764  0.00  0.00    +0.000 NA
ATOM      9  H   UNL     1      42.562   4.606   9.339  0.00  0.00    +0.000 HD
BRANCH   8  10
ATOM     10  C   UNL     1      44.014   3.326   9.947  0.00  0.00    +0.000 C 
BRANCH  10  15
ATOM     11  C   UNL     1      48.043   1.950   6.065  0.00  0.00    +0.000 C 
ATOM     12  C   UNL     1      46.998   2.358   7.059  0.00  0.00    +0.000 A 
ATOM     13  C   UNL     1      46.570   3.678   7.146  0.00  0.00    +0.000 A 
ATOM     14  C   UNL     1      45.594   4.006   8.084  0.00  0.00    +0.000 A 
ATOM     15  C   UNL     1      45.061   3.013   8.911  0.00  0.00    +0.000 A 
ATOM     16  C   UNL     1      45.559   1.725   8.756  0.00  0.00    +0.000 A 
ATOM     17  N   UNL     1      46.509   1.379   7.857  0.00  0.00    +0.000 NA
ENDBRANCH  10  15
ENDBRANCH   8  10
ENDBRANCH   7   8
ENDBRANCH   1   7
BRANCH   4  18
ATOM     18  C   UNL     1      48.309   6.338  13.841  0.00  0.00    +0.000 C 
BRANCH  18  19
ATOM     19  N   UNL     1      48.061   6.554  15.244  0.00  0.00    +0.000 N 
ATOM     20  C   UNL     1      49.087   6.517  16.154  0.00  0.00    +0.000 C 
ATOM     21  O   UNL     1      50.253   6.349  15.808  0.00  0.00    +0.000 OA
ATOM     22  H   UNL     1      47.104   6.459  15.569  0.00  0.00    +0.000 HD
BRANCH  20  23
ATOM     23  C   UNL     1      48.730   6.752  17.559  0.00  0.00    +0.000 A 
ATOM     24  C   UNL     1      48.415   8.036  17.979  0.00  0.00    +0.000 A 
ATOM     25  S   UNL     1      47.976   8.130  19.624  0.00  0.00    +0.000 S 
ATOM     26  C   UNL     1      48.240   6.465  19.846  0.00  0.00    +0.000 A 
ATOM     27  N   UNL     1      48.065   5.886  21.064  0.00  0.00    +0.000 NA
ATOM     28  C   UNL     1      48.331   4.623  21.098  0.00  0.00    +0.000 A 
ATOM     29  N   UNL     1      48.752   3.885  20.023  0.00  0.00    +0.000 N 
ATOM     30  C   UNL     1      48.915   4.420  18.767  0.00  0.00    +0.000 A 
ATOM     31  O   UNL     1      49.255   3.724  17.815  0.00  0.00    +0.000 OA
ATOM     32  C   UNL     1      48.642   5.842  18.677  0.00  0.00    +0.000 A 
ATOM     33  H   UNL     1      48.934   2.897  20.116  0.00  0.00    +0.000 HD
ENDBRANCH  20  23
ENDBRANCH  18  19
ENDBRANCH   4  18
TORSDOF 7
ENDMDL
MODEL 2
REMARK VINA RESULT:    -7.842      1.296      1.979
REMARK INTER + INTRA:         -12.076
REMARK INTER:                 -11.089
REMARK INTRA:                  -0.987
REMARK UNBOUND:                -1.025
REMARK  Name = 
REMARK  8 active torsions:
REMARK  status: ('A' for Active; 'I' for Inactive)
REMARK    1  A    between atoms: C_1  and  C_2
REMARK    2  A    between atoms: C_5  and  C_6
REMARK    3  A    between atoms: C_6  and  N_7
REMARK    4  A    between atoms: N_7  and  C_8
REMARK    5  A    between atoms: C_8  and  C_9
REMARK    6  A    between atoms: C_12  and  C_13
REMARK    7  A    between atoms: C_13  and  N_14
REMARK    8  A    between atoms: C_15  and  C_17
REMARK                            x       y       z     vdW  Elec       q    Type
REMARK                         _______ _______ _______ _____ _____    ______ ____
ROOT
ATOM      1  C   UNL     1      44.449   5.527  11.898  0.00  0.00    +0.000 A 
ATOM      2  C   UNL     1      45.295   6.515  11.398  0.00  0.00    +0.000 A 
ATOM      3  C   UNL     1      46.498   6.768  12.053  0.00  0.00    +0.000 A 
ATOM      4  C   UNL     1      46.824   6.047  13.203  0.00  0.00    +0.000 A 
ATOM      5  C   UNL     1      45.928   5.070  13.619  0.00  0.00    +0.000 A 
ATOM      6  N   UNL     1      44.757   4.795  12.998  0.00  0.00    +0.000 NA
ENDROOT
BRANCH   1   7
ATOM      7  C   UNL     1      43.145   5.206  11.191  0.00  0.00    +0.000 C 
BRANCH   7   8
ATOM      8  N   UNL     1      43.302   4.483   9.918  0.00  0.00    +0.000 NA
ATOM      9  H   UNL     1      42.373   4.272   9.556  0.00  0.00    +0.000 HD
BRANCH   8  10
ATOM     10  C   UNL     1      44.014   3.215  10.108  0.00  0.00    +0.000 C 
BRANCH  10  15
ATOM     11  C   UNL     1      47.946   2.222   6.015  0.00  0.00    +0.000 C 
ATOM     12  C   UNL     1      46.926   2.532   7.069  0.00  0.00    +0.000 A 
ATOM     13  C   UNL     1      46.490   3.834   7.282  0.00  0.00    +0.000 A 
ATOM     14  C   UNL     1      45.537   4.069   8.270  0.00  0.00    +0.000 A 
ATOM     15  C   UNL     1      45.034   3.003   9.021  0.00  0.00    +0.000 A 
ATOM     16  C   UNL     1      45.538   1.739   8.742  0.00  0.00    +0.000 A 
ATOM     17  N   UNL     1      46.466   1.482   7.791  0.00  0.00    +0.000 NA
ENDBRANCH  10  15
ENDBRANCH   8  10
ENDBRANCH   7   8
ENDBRANCH   1   7
BRANCH   4  18
ATOM     18  C   UNL     1      48.112   6.282  13.934  0.00  0.00    +0.000 C 
BRANCH  18  19
ATOM     19  N   UNL     1      47.935   6.158  15.359  0.00  0.00    +0.000 N 
ATOM     20  C   UNL     1      49.012   6.172  16.207  0.00  0.00    +0.000 C 
ATOM     21  O   UNL     1      50.157   6.340  15.796  0.00  0.00    +0.000 OA
ATOM     22  H   UNL     1      47.047   5.789  15.688  0.00  0.00    +0.000 HD
BRANCH  20  23
ATOM     23  C   UNL     1      48.725   6.042  17.641  0.00  0.00    +0.000 A 
ATOM     24  C   UNL     1      48.932   4.824  18.272  0.00  0.00    +0.000 A 
ATOM     25  S   UNL     1      48.598   4.853  19.945  0.00  0.00    +0.000 S 
ATOM     26  C   UNL     1      48.117   6.483  19.875  0.00  0.00    +0.000 A 
ATOM     27  N   UNL     1      47.679   7.130  20.988  0.00  0.00    +0.000 NA
ATOM     28  C   UNL     1      47.315   8.353  20.787  0.00  0.00    +0.000 A 
ATOM     29  N   UNL     1      47.354   8.988  19.573  0.00  0.00    +0.000 N 
ATOM     30  C   UNL     1      47.815   8.384  18.427  0.00  0.00    +0.000 A 
ATOM     31  O   UNL     1      47.875   8.993  17.364  0.00  0.00    +0.000 OA
ATOM     32  C   UNL     1      48.225   7.003  18.597  0.00  0.00    +0.000 A 
ATOM     33  H   UNL     1      47.063   9.950  19.486  0.00  0.00    +0.000 HD
ENDBRANCH  20  23
ENDBRANCH  18  19
ENDBRANCH   4  18
TORSDOF 7
ENDMDL
MODEL 3
REMARK VINA RESULT:    -7.715      2.277      3.846
REMARK INTER + INTRA:         -11.897
REMARK INTER:                 -11.303
REMARK INTRA:                  -0.594
REMARK UNBOUND:                -1.025
REMARK  Name = 
REMARK  8 active torsions:
REMARK  status: ('A' for Active; 'I' for Inactive)
REMARK    1  A    between atoms: C_1  and  C_2
REMARK    2  A    between atoms: C_5  and  C_6
REMARK    3  A    between atoms: C_6  and  N_7
REMARK    4  A    between atoms: N_7  and  C_8
REMARK    5  A    between atoms: C_8  and  C_9
REMARK    6  A    between atoms: C_12  and  C_13
REMARK    7  A    between atoms: C_13  and  N_14
REMARK    8  A    between atoms: C_15  and  C_17
REMARK                            x       y       z     vdW  Elec       q    Type
REMARK                         _______ _______ _______ _____ _____    ______ ____
ROOT
ATOM      1  C   UNL     1      45.042   3.795   8.942  0.00  0.00    +0.000 A 
ATOM      2  C   UNL     1      44.334   2.865   9.702  0.00  0.00    +0.000 A 
ATOM      3  C   UNL     1      44.011   3.179  11.020  0.00  0.00    +0.000 A 
ATOM      4  C   UNL     1      44.416   4.400  11.561  0.00  0.00    +0.000 A 
ATOM      5  C   UNL     1      45.104   5.271  10.724  0.00  0.00    +0.000 A 
ATOM      6  N   UNL     1      45.424   4.998   9.437  0.00  0.00    +0.000 NA
ENDROOT
BRANCH   1   7
ATOM      7  C   UNL     1      45.384   3.497   7.494  0.00  0.00    +0.000 C 
BRANCH   7   8
ATOM      8  N   UNL     1      46.666   4.063   7.041  0.00  0.00    +0.000 NA
ATOM      9  H   UNL     1      46.529   4.452   6.109  0.00  0.00    +0.000 HD
BRANCH   8  10
ATOM     10  C   UNL     1      47.704   3.031   6.954  0.00  0.00    +0.000 C 
BRANCH  10  15
ATOM     11  C   UNL     1      46.415  -1.063   3.110  0.00  0.00    +0.000 C 
ATOM     12  C   UNL     1      46.745   0.038   4.073  0.00  0.00    +0.000 A 
ATOM     13  C   UNL     1      46.730   1.368   3.670  0.00  0.00    +0.000 A 
ATOM     14  C   UNL     1      47.039   2.355   4.603  0.00  0.00    +0.000 A 
ATOM     15  C   UNL     1      47.351   1.998   5.917  0.00  0.00    +0.000 A 
ATOM     16  C   UNL     1      47.349   0.642   6.222  0.00  0.00    +0.000 A 
ATOM     17  N   UNL     1      47.056  -0.337   5.336  0.00  0.00    +0.000 NA
ENDBRANCH  10  15
ENDBRANCH   8  10
ENDBRANCH   7   8
ENDBRANCH   1   7
BRANCH   4  18
ATOM     18  C   UNL     1      44.083   4.780  12.972  0.00  0.00    +0.000 C 
BRANCH  18  19
ATOM     19  N   UNL     1      45.213   5.383  13.633  0.00  0.00    +0.000 N 
ATOM     20  C   UNL     1      46.285   4.624  14.027  0.00  0.00    +0.000 C 
ATOM     21  O   UNL     1      46.348   3.420  13.792  0.00  0.00    +0.000 OA
ATOM     22  H   UNL     1      45.080   6.304  14.038  0.00  0.00    +0.000 HD
BRANCH  20  23
ATOM     23  C   UNL     1      47.387   5.333  14.689  0.00  0.00    +0.000 A 
ATOM     24  C   UNL     1      48.090   6.307  13.994  0.00  0.00    +0.000 A 
ATOM     25  S   UNL     1      49.303   7.069  14.919  0.00  0.00    +0.000 S 
ATOM     26  C   UNL     1      48.966   6.089  16.268  0.00  0.00    +0.000 A 
ATOM     27  N   UNL     1      49.681   6.214  17.418  0.00  0.00    +0.000 NA
ATOM     28  C   UNL     1      49.341   5.386  18.350  0.00  0.00    +0.000 A 
ATOM     29  N   UNL     1      48.348   4.448  18.237  0.00  0.00    +0.000 N 
ATOM     30  C   UNL     1      47.580   4.305  17.105  0.00  0.00    +0.000 A 
ATOM     31  O   UNL     1      46.672   3.483  17.049  0.00  0.00    +0.000 OA
ATOM     32  C   UNL     1      47.931   5.204  16.021  0.00  0.00    +0.000 A 
ATOM     33  H   UNL     1      48.127   3.837  19.008  0.00  0.00    +0.000 HD
ENDBRANCH  20  23
ENDBRANCH  18  19
ENDBRANCH   4  18
TORSDOF 7
ENDMDL
MODEL 4
REMARK VINA RESULT:    -7.679      4.103      5.950
REMARK INTER + INTRA:         -11.846
REMARK INTER:                 -11.028
REMARK INTRA:                  -0.818
REMARK UNBOUND:                -1.025
REMARK  Name = 
REMARK  8 active torsions:
REMARK  status: ('A' for Active; 'I' for Inactive)
REMARK    1  A    between atoms: C_1  and  C_2
REMARK    2  A    between atoms: C_5  and  C_6
REMARK    3  A    between atoms: C_6  and  N_7
REMARK    4  A    between atoms: N_7  and  C_8
REMARK    5  A    between atoms: C_8  and  C_9
REMARK    6  A    between atoms: C_12  and  C_13
REMARK    7  A    between atoms: C_13  and  N_14
REMARK    8  A    between atoms: C_15  and  C_17
REMARK                            x       y       z     vdW  Elec       q    Type
REMARK                         _______ _______ _______ _____ _____    ______ ____
ROOT
ATOM      1  C   UNL     1      44.830   4.137  12.785  0.00  0.00    +0.000 A 
ATOM      2  C   UNL     1      44.669   5.511  12.621  0.00  0.00    +0.000 A 
ATOM      3  C   UNL     1      45.715   6.359  12.974  0.00  0.00    +0.000 A 
ATOM      4  C   UNL     1      46.892   5.825  13.502  0.00  0.00    +0.000 A 
ATOM      5  C   UNL     1      46.970   4.443  13.615  0.00  0.00    +0.000 A 
ATOM      6  N   UNL     1      45.974   3.592  13.271  0.00  0.00    +0.000 NA
ENDROOT
BRANCH   1   7
ATOM      7  C   UNL     1      43.721   3.182  12.382  0.00  0.00    +0.000 C 
BRANCH   7   8
ATOM      8  N   UNL     1      43.982   2.430  11.144  0.00  0.00    +0.000 NA
ATOM      9  H   UNL     1      44.937   2.074  11.183  0.00  0.00    +0.000 HD
BRANCH   8  10
ATOM     10  C   UNL     1      43.866   3.290   9.962  0.00  0.00    +0.000 C 
BRANCH  10  15
ATOM     11  C   UNL     1      48.113   2.020   6.282  0.00  0.00    +0.000 C 
ATOM     12  C   UNL     1      47.013   2.401   7.225  0.00  0.00    +0.000 A 
ATOM     13  C   UNL     1      46.569   3.715   7.313  0.00  0.00    +0.000 A 
ATOM     14  C   UNL     1      45.539   4.017   8.202  0.00  0.00    +0.000 A 
ATOM     15  C   UNL     1      44.971   3.004   8.979  0.00  0.00    +0.000 A 
ATOM     16  C   UNL     1      45.488   1.724   8.828  0.00  0.00    +0.000 A 
ATOM     17  N   UNL     1      46.488   1.403   7.975  0.00  0.00    +0.000 NA
ENDBRANCH  10  15
ENDBRANCH   8  10
ENDBRANCH   7   8
ENDBRANCH   1   7
BRANCH   4  18
ATOM     18  C   UNL     1      48.045   6.702  13.888  0.00  0.00    +0.000 C 
BRANCH  18  19
ATOM     19  N   UNL     1      47.882   8.038  13.373  0.00  0.00    +0.000 N 
ATOM     20  C   UNL     1      48.416   8.397  12.162  0.00  0.00    +0.000 C 
ATOM     21  O   UNL     1      49.007   7.589  11.451  0.00  0.00    +0.000 OA
ATOM     22  H   UNL     1      47.612   8.763  14.032  0.00  0.00    +0.000 HD
BRANCH  20  23
ATOM     23  C   UNL     1      48.191   9.780  11.725  0.00  0.00    +0.000 A 
ATOM     24  C   UNL     1      49.252  10.521  11.224  0.00  0.00    +0.000 A 
ATOM     25  S   UNL     1      48.814  12.089  10.716  0.00  0.00    +0.000 S 
ATOM     26  C   UNL     1      47.200  11.852  11.195  0.00  0.00    +0.000 A 
ATOM     27  N   UNL     1      46.277  12.841  11.054  0.00  0.00    +0.000 NA
ATOM     28  C   UNL     1      45.099  12.538  11.488  0.00  0.00    +0.000 A 
ATOM     29  N   UNL     1      44.758  11.332  12.044  0.00  0.00    +0.000 N 
ATOM     30  C   UNL     1      45.649  10.293  12.179  0.00  0.00    +0.000 A 
ATOM     31  O   UNL     1      45.303   9.212  12.644  0.00  0.00    +0.000 OA
ATOM     32  C   UNL     1      46.993  10.588  11.719  0.00  0.00    +0.000 A 
ATOM     33  H   UNL     1      43.815  11.156  12.354  0.00  0.00    +0.000 HD
ENDBRANCH  20  23
ENDBRANCH  18  19
ENDBRANCH   4  18
TORSDOF 7
ENDMDL
MODEL 5
REMARK VINA RESULT:    -7.307      2.400      2.873
REMARK INTER + INTRA:         -11.323
REMARK INTER:                 -10.334
REMARK INTRA:                  -0.988
REMARK UNBOUND:                -1.025
REMARK  Name = 
REMARK  8 active torsions:
REMARK  status: ('A' for Active; 'I' for Inactive)
REMARK    1  A    between atoms: C_1  and  C_2
REMARK    2  A    between atoms: C_5  and  C_6
REMARK    3  A    between atoms: C_6  and  N_7
REMARK    4  A    between atoms: N_7  and  C_8
REMARK    5  A    between atoms: C_8  and  C_9
REMARK    6  A    between atoms: C_12  and  C_13
REMARK    7  A    between atoms: C_13  and  N_14
REMARK    8  A    between atoms: C_15  and  C_17
REMARK                            x       y       z     vdW  Elec       q    Type
REMARK                         _______ _______ _______ _____ _____    ______ ____
ROOT
ATOM      1  C   UNL     1      45.681   5.068  12.533  0.00  0.00    +0.000 A 
ATOM      2  C   UNL     1      45.948   5.938  11.478  0.00  0.00    +0.000 A 
ATOM      3  C   UNL     1      47.011   6.831  11.593  0.00  0.00    +0.000 A 
ATOM      4  C   UNL     1      47.773   6.853  12.762  0.00  0.00    +0.000 A 
ATOM      5  C   UNL     1      47.444   5.939  13.755  0.00  0.00    +0.000 A 
ATOM      6  N   UNL     1      46.423   5.053  13.668  0.00  0.00    +0.000 NA
ENDROOT
BRANCH   1   7
ATOM      7  C   UNL     1      44.549   4.063  12.428  0.00  0.00    +0.000 C 
BRANCH   7   8
ATOM      8  N   UNL     1      44.820   2.929  11.529  0.00  0.00    +0.000 NA
ATOM      9  H   UNL     1      45.818   2.918  11.323  0.00  0.00    +0.000 HD
BRANCH   8  10
ATOM     10  C   UNL     1      44.096   3.067  10.261  0.00  0.00    +0.000 C 
BRANCH  10  15
ATOM     11  C   UNL     1      47.625   2.702   5.721  0.00  0.00    +0.000 C 
ATOM     12  C   UNL     1      46.712   2.745   6.909  0.00  0.00    +0.000 A 
ATOM     13  C   UNL     1      46.439   1.597   7.644  0.00  0.00    +0.000 A 
ATOM     14  C   UNL     1      45.588   1.691   8.743  0.00  0.00    +0.000 A 
ATOM     15  C   UNL     1      45.032   2.925   9.090  0.00  0.00    +0.000 A 
ATOM     16  C   UNL     1      45.356   4.013   8.289  0.00  0.00    +0.000 A 
ATOM     17  N   UNL     1      46.176   3.951   7.215  0.00  0.00    +0.000 NA
ENDBRANCH  10  15
ENDBRANCH   8  10
ENDBRANCH   7   8
ENDBRANCH   1   7
BRANCH   4  18
ATOM     18  C   UNL     1      48.930   7.793  12.925  0.00  0.00    +0.000 C 
BRANCH  18  19
ATOM     19  N   UNL     1      49.958   7.218  13.755  0.00  0.00    +0.000 N 
ATOM     20  C   UNL     1      50.266   7.764  14.974  0.00  0.00    +0.000 C 
ATOM     21  O   UNL     1      49.651   8.726  15.427  0.00  0.00    +0.000 OA
ATOM     22  H   UNL     1      50.620   6.590  13.309  0.00  0.00    +0.000 HD
BRANCH  20  23
ATOM     23  C   UNL     1      51.327   7.103  15.744  0.00  0.00    +0.000 A 
ATOM     24  C   UNL     1      52.646   7.497  15.570  0.00  0.00    +0.000 A 
ATOM     25  S   UNL     1      53.748   6.667  16.573  0.00  0.00    +0.000 S 
ATOM     26  C   UNL     1      52.506   5.714  17.240  0.00  0.00    +0.000 A 
ATOM     27  N   UNL     1      52.781   4.759  18.168  0.00  0.00    +0.000 NA
ATOM     28  C   UNL     1      51.750   4.089  18.565  0.00  0.00    +0.000 A 
ATOM     29  N   UNL     1      50.469   4.291  18.121  0.00  0.00    +0.000 N 
ATOM     30  C   UNL     1      50.140   5.263  17.206  0.00  0.00    +0.000 A 
ATOM     31  O   UNL     1      48.978   5.446  16.859  0.00  0.00    +0.000 OA
ATOM     32  C   UNL     1      51.266   6.037  16.717  0.00  0.00    +0.000 A 
ATOM     33  H   UNL     1      49.707   3.737  18.480  0.00  0.00    +0.000 HD
ENDBRANCH  20  23
ENDBRANCH  18  19
ENDBRANCH   4  18
TORSDOF 7
ENDMDL
MODEL 6
REMARK VINA RESULT:    -6.953      2.214      3.410
REMARK INTER + INTRA:         -10.824
REMARK INTER:                  -9.910
REMARK INTRA:                  -0.913
REMARK UNBOUND:                -1.025
REMARK  Name = 
REMARK  8 active torsions:
REMARK  status: ('A' for Active; 'I' for Inactive)
REMARK    1  A    between atoms: C_1  and  C_2
REMARK    2  A    between atoms: C_5  and  C_6
REMARK    3  A    between atoms: C_6  and  N_7
REMARK    4  A    between atoms: N_7  and  C_8
REMARK    5  A    between atoms: C_8  and  C_9
REMARK    6  A    between atoms: C_12  and  C_13
REMARK    7  A    between atoms: C_13  and  N_14
REMARK    8  A    between atoms: C_15  and  C_17
REMARK                            x       y       z     vdW  Elec       q    Type
REMARK                         _______ _______ _______ _____ _____    ______ ____
ROOT
ATOM      1  C   UNL     1      46.455   5.420  12.949  0.00  0.00    +0.000 A 
ATOM      2  C   UNL     1      47.404   6.394  13.251  0.00  0.00    +0.000 A 
ATOM      3  C   UNL     1      48.095   6.311  14.457  0.00  0.00    +0.000 A 
ATOM      4  C   UNL     1      47.814   5.273  15.346  0.00  0.00    +0.000 A 
ATOM      5  C   UNL     1      46.864   4.338  14.955  0.00  0.00    +0.000 A 
ATOM      6  N   UNL     1      46.183   4.387  13.785  0.00  0.00    +0.000 NA
ENDROOT
BRANCH   1   7
ATOM      7  C   UNL     1      45.705   5.464  11.631  0.00  0.00    +0.000 C 
BRANCH   7   8
ATOM      8  N   UNL     1      44.698   4.403  11.464  0.00  0.00    +0.000 NA
ATOM      9  H   UNL     1      45.153   3.505  11.628  0.00  0.00    +0.000 HD
BRANCH   8  10
ATOM     10  C   UNL     1      44.151   4.394  10.104  0.00  0.00    +0.000 C 
BRANCH  10  15
ATOM     11  C   UNL     1      47.481   1.170   6.681  0.00  0.00    +0.000 C 
ATOM     12  C   UNL     1      46.630   2.051   7.545  0.00  0.00    +0.000 A 
ATOM     13  C   UNL     1      46.565   3.422   7.323  0.00  0.00    +0.000 A 
ATOM     14  C   UNL     1      45.756   4.197   8.151  0.00  0.00    +0.000 A 
ATOM     15  C   UNL     1      45.026   3.591   9.178  0.00  0.00    +0.000 A 
ATOM     16  C   UNL     1      45.165   2.217   9.327  0.00  0.00    +0.000 A 
ATOM     17  N   UNL     1      45.945   1.441   8.540  0.00  0.00    +0.000 NA
ENDBRANCH  10  15
ENDBRANCH   8  10
ENDBRANCH   7   8
ENDBRANCH   1   7
BRANCH   4  18
ATOM     18  C   UNL     1      48.540   5.142  16.652  0.00  0.00    +0.000 C 
BRANCH  18  19
ATOM     19  N   UNL     1      48.472   6.364  17.413  0.00  0.00    +0.000 N 
ATOM     20  C   UNL     1      47.582   6.502  18.447  0.00  0.00    +0.000 C 
ATOM     21  O   UNL     1      46.847   5.582  18.795  0.00  0.00    +0.000 OA
ATOM     22  H   UNL     1      48.889   7.193  17.001  0.00  0.00    +0.000 HD
BRANCH  20  23
ATOM     23  C   UNL     1      47.594   7.785  19.160  0.00  0.00    +0.000 A 
ATOM     24  C   UNL     1      47.462   7.801  20.542  0.00  0.00    +0.000 A 
ATOM     25  S   UNL     1      47.547   9.363  21.220  0.00  0.00    +0.000 S 
ATOM     26  C   UNL     1      47.712  10.080  19.687  0.00  0.00    +0.000 A 
ATOM     27  N   UNL     1      47.811  11.429  19.553  0.00  0.00    +0.000 NA
ATOM     28  C   UNL     1      47.899  11.840  18.332  0.00  0.00    +0.000 A 
ATOM     29  N   UNL     1      47.903  11.022  17.232  0.00  0.00    +0.000 N 
ATOM     30  C   UNL     1      47.835   9.651  17.319  0.00  0.00    +0.000 A 
ATOM     31  O   UNL     1      47.881   8.945  16.318  0.00  0.00    +0.000 OA
ATOM     32  C   UNL     1      47.720   9.139  18.671  0.00  0.00    +0.000 A 
ATOM     33  H   UNL     1      47.984  11.408  16.303  0.00  0.00    +0.000 HD
ENDBRANCH  20  23
ENDBRANCH  18  19
ENDBRANCH   4  18
TORSDOF 7
ENDMDL
MODEL 7
REMARK VINA RESULT:    -6.795      4.630      9.808
REMARK INTER + INTRA:         -10.600
REMARK INTER:                  -9.615
REMARK INTRA:                  -0.986
REMARK UNBOUND:                -1.025
REMARK  Name = 
REMARK  8 active torsions:
REMARK  status: ('A' for Active; 'I' for Inactive)
REMARK    1  A    between atoms: C_1  and  C_2
REMARK    2  A    between atoms: C_5  and  C_6
REMARK    3  A    between atoms: C_6  and  N_7
REMARK    4  A    between atoms: N_7  and  C_8
REMARK    5  A    between atoms: C_8  and  C_9
REMARK    6  A    between atoms: C_12  and  C_13
REMARK    7  A    between atoms: C_13  and  N_14
REMARK    8  A    between atoms: C_15  and  C_17
REMARK                            x       y       z     vdW  Elec       q    Type
REMARK                         _______ _______ _______ _____ _____    ______ ____
ROOT
ATOM      1  C   UNL     1      51.426   4.478  17.558  0.00  0.00    +0.000 A 
ATOM      2  C   UNL     1      51.033   3.141  17.582  0.00  0.00    +0.000 A 
ATOM      3  C   UNL     1      49.704   2.824  17.313  0.00  0.00    +0.000 A 
ATOM      4  C   UNL     1      48.790   3.844  17.045  0.00  0.00    +0.000 A 
ATOM      5  C   UNL     1      49.274   5.146  17.026  0.00  0.00    +0.000 A 
ATOM      6  N   UNL     1      50.561   5.484  17.275  0.00  0.00    +0.000 NA
ENDROOT
BRANCH   1   7
ATOM      7  C   UNL     1      52.872   4.856  17.817  0.00  0.00    +0.000 C 
BRANCH   7   8
ATOM      8  N   UNL     1      53.497   4.144  18.944  0.00  0.00    +0.000 NA
ATOM      9  H   UNL     1      53.627   4.807  19.707  0.00  0.00    +0.000 HD
BRANCH   8  10
ATOM     10  C   UNL     1      54.813   3.611  18.577  0.00  0.00    +0.000 C 
BRANCH  10  15
ATOM     11  C   UNL     1      54.638  -2.123  18.042  0.00  0.00    +0.000 C 
ATOM     12  C   UNL     1      54.683  -0.627  18.129  0.00  0.00    +0.000 A 
ATOM     13  C   UNL     1      54.662   0.157  16.982  0.00  0.00    +0.000 A 
ATOM     14  C   UNL     1      54.701   1.543  17.116  0.00  0.00    +0.000 A 
ATOM     15  C   UNL     1      54.755   2.118  18.388  0.00  0.00    +0.000 A 
ATOM     16  C   UNL     1      54.782   1.252  19.474  0.00  0.00    +0.000 A 
ATOM     17  N   UNL     1      54.748  -0.096  19.373  0.00  0.00    +0.000 NA
ENDBRANCH  10  15
ENDBRANCH   8  10
ENDBRANCH   7   8
ENDBRANCH   1   7
BRANCH   4  18
ATOM     18  C   UNL     1      47.351   3.546  16.743  0.00  0.00    +0.000 C 
BRANCH  18  19
ATOM     19  N   UNL     1      46.806   4.496  15.807  0.00  0.00    +0.000 N 
ATOM     20  C   UNL     1      46.839   4.254  14.457  0.00  0.00    +0.000 C 
ATOM     21  O   UNL     1      47.286   3.206  13.999  0.00  0.00    +0.000 OA
ATOM     22  H   UNL     1      46.654   5.444  16.138  0.00  0.00    +0.000 HD
BRANCH  20  23
ATOM     23  C   UNL     1      46.255   5.282  13.588  0.00  0.00    +0.000 A 
ATOM     24  C   UNL     1      46.940   6.471  13.378  0.00  0.00    +0.000 A 
ATOM     25  S   UNL     1      46.150   7.537  12.306  0.00  0.00    +0.000 S 
ATOM     26  C   UNL     1      44.840   6.469  12.123  0.00  0.00    +0.000 A 
ATOM     27  N   UNL     1      43.779   6.793  11.336  0.00  0.00    +0.000 NA
ATOM     28  C   UNL     1      42.841   5.906  11.312  0.00  0.00    +0.000 A 
ATOM     29  N   UNL     1      42.869   4.721  12.001  0.00  0.00    +0.000 N 
ATOM     30  C   UNL     1      43.932   4.337  12.785  0.00  0.00    +0.000 A 
ATOM     31  O   UNL     1      43.946   3.253  13.357  0.00  0.00    +0.000 OA
ATOM     32  C   UNL     1      45.009   5.307  12.856  0.00  0.00    +0.000 A 
ATOM     33  H   UNL     1      42.105   4.066  11.932  0.00  0.00    +0.000 HD
ENDBRANCH  20  23
ENDBRANCH  18  19
ENDBRANCH   4  18
TORSDOF 7
ENDMDL
MODEL 8
REMARK VINA RESULT:    -6.556      4.256      6.541
REMARK INTER + INTRA:         -10.264
REMARK INTER:                  -9.563
REMARK INTRA:                  -0.701
REMARK UNBOUND:                -1.025
REMARK  Name = 
REMARK  8 active torsions:
REMARK  status: ('A' for Active; 'I' for Inactive)
REMARK    1  A    between atoms: C_1  and  C_2
REMARK    2  A    between atoms: C_5  and  C_6
REMARK    3  A    between atoms: C_6  and  N_7
REMARK    4  A    between atoms: N_7  and  C_8
REMARK    5  A    between atoms: C_8  and  C_9
REMARK    6  A    between atoms: C_12  and  C_13
REMARK    7  A    between atoms: C_13  and  N_14
REMARK    8  A    between atoms: C_15  and  C_17
REMARK                            x       y       z     vdW  Elec       q    Type
REMARK                         _______ _______ _______ _____ _____    ______ ____
ROOT
ATOM      1  C   UNL     1      44.903   7.964  11.867  0.00  0.00    +0.000 A 
ATOM      2  C   UNL     1      46.088   8.072  12.592  0.00  0.00    +0.000 A 
ATOM      3  C   UNL     1      46.550   6.964  13.296  0.00  0.00    +0.000 A 
ATOM      4  C   UNL     1      45.814   5.778  13.283  0.00  0.00    +0.000 A 
ATOM      5  C   UNL     1      44.652   5.757  12.521  0.00  0.00    +0.000 A 
ATOM      6  N   UNL     1      44.183   6.815  11.818  0.00  0.00    +0.000 NA
ENDROOT
BRANCH   1   7
ATOM      7  C   UNL     1      44.386   9.144  11.064  0.00  0.00    +0.000 C 
BRANCH   7   8
ATOM      8  N   UNL     1      42.960   9.064  10.710  0.00  0.00    +0.000 NA
ATOM      9  H   UNL     1      42.838   8.295  10.051  0.00  0.00    +0.000 HD
BRANCH   8  10
ATOM     10  C   UNL     1      42.501  10.296  10.059  0.00  0.00    +0.000 C 
BRANCH  10  15
ATOM     11  C   UNL     1      37.793  12.461  12.578  0.00  0.00    +0.000 C 
ATOM     12  C   UNL     1      39.045  11.906  11.967  0.00  0.00    +0.000 A 
ATOM     13  C   UNL     1      40.217  11.804  12.706  0.00  0.00    +0.000 A 
ATOM     14  C   UNL     1      41.352  11.277  12.095  0.00  0.00    +0.000 A 
ATOM     15  C   UNL     1      41.294  10.858  10.763  0.00  0.00    +0.000 A 
ATOM     16  C   UNL     1      40.081  11.009  10.104  0.00  0.00    +0.000 A 
ATOM     17  N   UNL     1      38.964  11.520  10.672  0.00  0.00    +0.000 NA
ENDBRANCH  10  15
ENDBRANCH   8  10
ENDBRANCH   7   8
ENDBRANCH   1   7
BRANCH   4  18
ATOM     18  C   UNL     1      46.279   4.559  14.022  0.00  0.00    +0.000 C 
BRANCH  18  19
ATOM     19  N   UNL     1      47.353   4.876  14.930  0.00  0.00    +0.000 N 
ATOM     20  C   UNL     1      47.409   4.312  16.179  0.00  0.00    +0.000 C 
ATOM     21  O   UNL     1      46.583   3.484  16.553  0.00  0.00    +0.000 OA
ATOM     22  H   UNL     1      47.895   5.713  14.737  0.00  0.00    +0.000 HD
BRANCH  20  23
ATOM     23  C   UNL     1      48.544   4.698  17.027  0.00  0.00    +0.000 A 
ATOM     24  C   UNL     1      48.577   5.967  17.589  0.00  0.00    +0.000 A 
ATOM     25  S   UNL     1      49.935   6.239  18.585  0.00  0.00    +0.000 S 
ATOM     26  C   UNL     1      50.552   4.688  18.260  0.00  0.00    +0.000 A 
ATOM     27  N   UNL     1      51.733   4.280  18.797  0.00  0.00    +0.000 NA
ATOM     28  C   UNL     1      52.099   3.093  18.443  0.00  0.00    +0.000 A 
ATOM     29  N   UNL     1      51.388   2.275  17.603  0.00  0.00    +0.000 N 
ATOM     30  C   UNL     1      50.176   2.633  17.060  0.00  0.00    +0.000 A 
ATOM     31  O   UNL     1      49.545   1.863  16.344  0.00  0.00    +0.000 OA
ATOM     32  C   UNL     1      49.726   3.965  17.417  0.00  0.00    +0.000 A 
ATOM     33  H   UNL     1      51.726   1.353  17.373  0.00  0.00    +0.000 HD
ENDBRANCH  20  23
ENDBRANCH  18  19
ENDBRANCH   4  18
TORSDOF 7
ENDMDL
MODEL 9
REMARK VINA RESULT:    -6.452      3.397      9.148
REMARK INTER + INTRA:         -10.117
REMARK INTER:                  -8.888
REMARK INTRA:                  -1.229
REMARK UNBOUND:                -1.025
REMARK  Name = 
REMARK  8 active torsions:
REMARK  status: ('A' for Active; 'I' for Inactive)
REMARK    1  A    between atoms: C_1  and  C_2
REMARK    2  A    between atoms: C_5  and  C_6
REMARK    3  A    between atoms: C_6  and  N_7
REMARK    4  A    between atoms: N_7  and  C_8
REMARK    5  A    between atoms: C_8  and  C_9
REMARK    6  A    between atoms: C_12  and  C_13
REMARK    7  A    between atoms: C_13  and  N_14
REMARK    8  A    between atoms: C_15  and  C_17
REMARK                            x       y       z     vdW  Elec       q    Type
REMARK                         _______ _______ _______ _____ _____    ______ ____
ROOT
ATOM      1  C   UNL     1      49.504   8.652  15.876  0.00  0.00    +0.000 A 
ATOM      2  C   UNL     1      48.185   8.977  15.565  0.00  0.00    +0.000 A 
ATOM      3  C   UNL     1      47.717   8.735  14.276  0.00  0.00    +0.000 A 
ATOM      4  C   UNL     1      48.577   8.195  13.318  0.00  0.00    +0.000 A 
ATOM      5  C   UNL     1      49.870   7.888  13.721  0.00  0.00    +0.000 A 
ATOM      6  N   UNL     1      50.350   8.103  14.969  0.00  0.00    +0.000 NA
ENDROOT
BRANCH   1   7
ATOM      7  C   UNL     1      50.037   8.876  17.279  0.00  0.00    +0.000 C 
BRANCH   7   8
ATOM      8  N   UNL     1      51.183   8.025  17.640  0.00  0.00    +0.000 NA
ATOM      9  H   UNL     1      51.386   7.413  16.851  0.00  0.00    +0.000 HD
BRANCH   8  10
ATOM     10  C   UNL     1      50.878   7.182  18.801  0.00  0.00    +0.000 C 
BRANCH  10  15
ATOM     11  C   UNL     1      47.492   2.812  17.182  0.00  0.00    +0.000 C 
ATOM     12  C   UNL     1      48.335   3.964  17.636  0.00  0.00    +0.000 A 
ATOM     13  C   UNL     1      47.888   4.832  18.625  0.00  0.00    +0.000 A 
ATOM     14  C   UNL     1      48.711   5.885  19.016  0.00  0.00    +0.000 A 
ATOM     15  C   UNL     1      49.963   6.049  18.419  0.00  0.00    +0.000 A 
ATOM     16  C   UNL     1      50.318   5.138  17.432  0.00  0.00    +0.000 A 
ATOM     17  N   UNL     1      49.538   4.108  17.031  0.00  0.00    +0.000 NA
ENDBRANCH  10  15
ENDBRANCH   8  10
ENDBRANCH   7   8
ENDBRANCH   1   7
BRANCH   4  18
ATOM     18  C   UNL     1      48.112   7.912  11.920  0.00  0.00    +0.000 C 
BRANCH  18  19
ATOM     19  N   UNL     1      47.323   6.708  11.865  0.00  0.00    +0.000 N 
ATOM     20  C   UNL     1      45.971   6.760  11.637  0.00  0.00    +0.000 C 
ATOM     21  O   UNL     1      45.392   7.822  11.424  0.00  0.00    +0.000 OA
ATOM     22  H   UNL     1      47.728   5.866  12.265  0.00  0.00    +0.000 HD
BRANCH  20  23
ATOM     23  C   UNL     1      45.259   5.477  11.597  0.00  0.00    +0.000 A 
ATOM     24  C   UNL     1      44.642   5.001  12.746  0.00  0.00    +0.000 A 
ATOM     25  S   UNL     1      43.817   3.526  12.519  0.00  0.00    +0.000 S 
ATOM     26  C   UNL     1      44.297   3.445  10.889  0.00  0.00    +0.000 A 
ATOM     27  N   UNL     1      43.939   2.392  10.106  0.00  0.00    +0.000 NA
ATOM     28  C   UNL     1      44.398   2.443   8.900  0.00  0.00    +0.000 A 
ATOM     29  N   UNL     1      45.179   3.455   8.404  0.00  0.00    +0.000 N 
ATOM     30  C   UNL     1      45.542   4.552   9.149  0.00  0.00    +0.000 A 
ATOM     31  O   UNL     1      46.209   5.461   8.664  0.00  0.00    +0.000 OA
ATOM     32  C   UNL     1      45.062   4.537  10.518  0.00  0.00    +0.000 A 
ATOM     33  H   UNL     1      45.497   3.438   7.447  0.00  0.00    +0.000 HD
ENDBRANCH  20  23
ENDBRANCH  18  19
ENDBRANCH   4  18
TORSDOF 7
ENDMDL
