MODEL 1
REMARK VINA RESULT:    -8.260      0.000      0.000
REMARK INTER + INTRA:         -12.118
REMARK INTER:                 -11.157
REMARK INTRA:                  -0.960
REMARK UNBOUND:                -0.960
REMARK  Name = 
REMARK  7 active torsions:
REMARK  status: ('A' for Active; 'I' for Inactive)
REMARK    1  A    between atoms: C_1  and  N_2
REMARK    2  A    between atoms: N_2  and  C_3
REMARK    3  A    between atoms: C_3  and  C_4
REMARK    4  A    between atoms: C_7  and  C_8
REMARK    5  A    between atoms: C_8  and  N_9
REMARK    6  A    between atoms: C_10  and  C_12
REMARK    7  A    between atoms: C_24  and  C_26
REMARK                            x       y       z     vdW  Elec       q    Type
REMARK                         _______ _______ _______ _____ _____    ______ ____
ROOT
ATOM      1  C   UNL     1      46.429   4.580  13.416  0.00  0.00    +0.000 A 
ATOM      2  C   UNL     1      46.742   4.181  14.727  0.00  0.00    +0.000 A 
ATOM      3  C   UNL     1      47.612   4.939  15.511  0.00  0.00    +0.000 A 
ATOM      4  C   UNL     1      48.175   6.117  15.004  0.00  0.00    +0.000 A 
ATOM      5  C   UNL     1      47.871   6.507  13.692  0.00  0.00    +0.000 A 
ATOM      6  C   UNL     1      46.998   5.752  12.908  0.00  0.00    +0.000 A 
ENDROOT
BRANCH   1   7
ATOM      7  C   UNL     1      45.529   3.728  12.561  0.00  0.00    +0.000 C 
BRANCH   7   9
ATOM      8  C   UNL     1      43.362   4.986  12.981  0.00  0.00    +0.000 C 
ATOM      9  N   UNL     1      44.271   4.297  12.068  0.00  0.00    +0.000 N 
ATOM     10  C   UNL     1      43.954   4.427  10.703  0.00  0.00    +0.000 C 
ATOM     11  O   UNL     1      42.974   5.074  10.326  0.00  0.00    +0.000 OA
BRANCH  10  12
ATOM     12  C   UNL     1      44.806   3.838   9.636  0.00  0.00    +0.000 A 
ATOM     13  C   UNL     1      44.913   2.476   9.352  0.00  0.00    +0.000 A 
ATOM     14  C   UNL     1      45.785   2.037   8.357  0.00  0.00    +0.000 A 
ATOM     15  C   UNL     1      46.475   2.984   7.621  0.00  0.00    +0.000 A 
ATOM     16  N   UNL     1      46.345   4.313   7.813  0.00  0.00    +0.000 NA
ATOM     17  C   UNL     1      45.509   4.709   8.808  0.00  0.00    +0.000 A 
ENDBRANCH  10  12
ENDBRANCH   7   9
ENDBRANCH   1   7
BRANCH   4  18
ATOM     18  C   UNL     1      49.156   6.913  15.822  0.00  0.00    +0.000 C 
BRANCH  18  19
ATOM     19  N   UNL     1      50.209   6.059  16.304  0.00  0.00    +0.000 N 
ATOM     20  C   UNL     1      50.224   5.597  17.594  0.00  0.00    +0.000 C 
ATOM     21  O   UNL     1      49.326   5.854  18.390  0.00  0.00    +0.000 OA
ATOM     22  H   UNL     1      51.055   6.018  15.746  0.00  0.00    +0.000 HD
BRANCH  20  23
ATOM     23  C   UNL     1      51.348   4.723  17.952  0.00  0.00    +0.000 A 
ATOM     24  C   UNL     1      52.480   5.268  18.540  0.00  0.00    +0.000 A 
ATOM     25  S   UNL     1      53.657   4.110  18.965  0.00  0.00    +0.000 S 
ATOM     26  C   UNL     1      52.718   2.842  18.324  0.00  0.00    +0.000 A 
ATOM     27  N   UNL     1      53.171   1.561  18.347  0.00  0.00    +0.000 NA
ATOM     28  C   UNL     1      52.376   0.704  17.796  0.00  0.00    +0.000 A 
ATOM     29  N   UNL     1      51.169   1.014  17.226  0.00  0.00    +0.000 N 
ATOM     30  C   UNL     1      50.662   2.292  17.197  0.00  0.00    +0.000 A 
ATOM     31  O   UNL     1      49.562   2.528  16.708  0.00  0.00    +0.000 OA
ATOM     32  C   UNL     1      51.520   3.296  17.801  0.00  0.00    +0.000 A 
ATOM     33  H   UNL     1      50.592   0.296  16.812  0.00  0.00    +0.000 HD
ENDBRANCH  20  23
ENDBRANCH  18  19
ENDBRANCH   4  18
TORSDOF 6
ENDMDL
MODEL 2
REMARK VINA RESULT:    -7.698      2.548      3.091
REMARK INTER + INTRA:         -11.359
REMARK INTER:                 -10.653
REMARK INTRA:                  -0.706
REMARK UNBOUND:                -0.960
REMARK  Name = 
REMARK  7 active torsions:
REMARK  status: ('A' for Active; 'I' for Inactive)
REMARK    1  A    between atoms: C_1  and  N_2
REMARK    2  A    between atoms: N_2  and  C_3
REMARK    3  A    between atoms: C_3  and  C_4
REMARK    4  A    between atoms: C_7  and  C_8
REMARK    5  A    between atoms: C_8  and  N_9
REMARK    6  A    between atoms: C_10  and  C_12
REMARK    7  A    between atoms: C_24  and  C_26
REMARK                            x       y       z     vdW  Elec       q    Type
REMARK                         _______ _______ _______ _____ _____    ______ ____
ROOT
ATOM      1  C   UNL     1      45.382   6.724  11.554  0.00  0.00    +0.000 A 
ATOM      2  C   UNL     1      45.040   7.985  12.070  0.00  0.00    +0.000 A 
ATOM      3  C   UNL     1      45.912   8.665  12.922  0.00  0.00    +0.000 A 
ATOM      4  C   UNL     1      47.148   8.101  13.262  0.00  0.00    +0.000 A 
ATOM      5  C   UNL     1      47.482   6.838  12.756  0.00  0.00    +0.000 A 
ATOM      6  C   UNL     1      46.614   6.159  11.901  0.00  0.00    +0.000 A 
ENDROOT
BRANCH   1   7
ATOM      7  C   UNL     1      44.412   5.978  10.677  0.00  0.00    +0.000 C 
BRANCH   7   9
ATOM      8  C   UNL     1      42.806   4.781  12.239  0.00  0.00    +0.000 C 
ATOM      9  N   UNL     1      43.810   4.739  11.179  0.00  0.00    +0.000 N 
ATOM     10  C   UNL     1      43.966   3.486  10.557  0.00  0.00    +0.000 C 
ATOM     11  O   UNL     1      43.300   2.507  10.900  0.00  0.00    +0.000 OA
BRANCH  10  12
ATOM     12  C   UNL     1      44.903   3.281   9.421  0.00  0.00    +0.000 A 
ATOM     13  C   UNL     1      45.440   4.295   8.627  0.00  0.00    +0.000 A 
ATOM     14  C   UNL     1      46.272   3.975   7.554  0.00  0.00    +0.000 A 
ATOM     15  C   UNL     1      46.603   2.647   7.351  0.00  0.00    +0.000 A 
ATOM     16  N   UNL     1      46.166   1.643   8.139  0.00  0.00    +0.000 NA
ATOM     17  C   UNL     1      45.335   1.983   9.159  0.00  0.00    +0.000 A 
ENDBRANCH  10  12
ENDBRANCH   7   9
ENDBRANCH   1   7
BRANCH   4  18
ATOM     18  C   UNL     1      48.073   8.802  14.222  0.00  0.00    +0.000 C 
BRANCH  18  19
ATOM     19  N   UNL     1      48.310   7.975  15.375  0.00  0.00    +0.000 N 
ATOM     20  C   UNL     1      49.539   7.422  15.622  0.00  0.00    +0.000 C 
ATOM     21  O   UNL     1      50.506   7.633  14.898  0.00  0.00    +0.000 OA
ATOM     22  H   UNL     1      47.491   7.614  15.854  0.00  0.00    +0.000 HD
BRANCH  20  23
ATOM     23  C   UNL     1      49.648   6.612  16.841  0.00  0.00    +0.000 A 
ATOM     24  C   UNL     1      50.483   7.027  17.869  0.00  0.00    +0.000 A 
ATOM     25  S   UNL     1      50.434   6.018  19.241  0.00  0.00    +0.000 S 
ATOM     26  C   UNL     1      49.337   4.955  18.489  0.00  0.00    +0.000 A 
ATOM     27  N   UNL     1      48.897   3.841  19.130  0.00  0.00    +0.000 NA
ATOM     28  C   UNL     1      48.096   3.104  18.431  0.00  0.00    +0.000 A 
ATOM     29  N   UNL     1      47.698   3.384  17.151  0.00  0.00    +0.000 N 
ATOM     30  C   UNL     1      48.101   4.508  16.470  0.00  0.00    +0.000 A 
ATOM     31  O   UNL     1      47.697   4.745  15.336  0.00  0.00    +0.000 OA
ATOM     32  C   UNL     1      49.007   5.370  17.210  0.00  0.00    +0.000 A 
ATOM     33  H   UNL     1      47.068   2.768  16.659  0.00  0.00    +0.000 HD
ENDBRANCH  20  23
ENDBRANCH  18  19
ENDBRANCH   4  18
TORSDOF 6
ENDMDL
MODEL 3
REMARK VINA RESULT:    -7.555      3.450      8.689
REMARK INTER + INTRA:         -11.166
REMARK INTER:                  -9.576
REMARK INTRA:                  -1.590
REMARK UNBOUND:                -0.960
REMARK  Name = 
REMARK  7 active torsions:
REMARK  status: ('A' for Active; 'I' for Inactive)
REMARK    1  A    between atoms: C_1  and  N_2
REMARK    2  A    between atoms: N_2  and  C_3
REMARK    3  A    between atoms: C_3  and  C_4
REMARK    4  A    between atoms: C_7  and  C_8
REMARK    5  A    between atoms: C_8  and  N_9
REMARK    6  A    between atoms: C_10  and  C_12
REMARK    7  A    between atoms: C_24  and  C_26
REMARK                            x       y       z     vdW  Elec       q    Type
REMARK                         _______ _______ _______ _____ _____    ______ ____
ROOT
ATOM      1  C   UNL     1      49.046   7.647  16.096  0.00  0.00    +0.000 A 
ATOM      2  C   UNL     1      49.256   6.603  15.179  0.00  0.00    +0.000 A 
ATOM      3  C   UNL     1      48.735   6.677  13.887  0.00  0.00    +0.000 A 
ATOM      4  C   UNL     1      48.006   7.802  13.484  0.00  0.00    +0.000 A 
ATOM      5  C   UNL     1      47.787   8.837  14.403  0.00  0.00    +0.000 A 
ATOM      6  C   UNL     1      48.310   8.767  15.694  0.00  0.00    +0.000 A 
ENDROOT
BRANCH   1   7
ATOM      7  C   UNL     1      49.569   7.534  17.504  0.00  0.00    +0.000 C 
BRANCH   7   9
ATOM      8  C   UNL     1      48.168   8.557  19.360  0.00  0.00    +0.000 C 
ATOM      9  N   UNL     1      48.613   7.388  18.606  0.00  0.00    +0.000 N 
ATOM     10  C   UNL     1      47.902   6.203  18.871  0.00  0.00    +0.000 C 
ATOM     11  O   UNL     1      46.978   6.173  19.687  0.00  0.00    +0.000 OA
BRANCH  10  12
ATOM     12  C   UNL     1      48.187   4.934  18.151  0.00  0.00    +0.000 A 
ATOM     13  C   UNL     1      49.301   4.120  18.362  0.00  0.00    +0.000 A 
ATOM     14  C   UNL     1      49.486   2.976  17.588  0.00  0.00    +0.000 A 
ATOM     15  C   UNL     1      48.509   2.637  16.668  0.00  0.00    +0.000 A 
ATOM     16  N   UNL     1      47.382   3.354  16.484  0.00  0.00    +0.000 NA
ATOM     17  C   UNL     1      47.243   4.480  17.233  0.00  0.00    +0.000 A 
ENDBRANCH  10  12
ENDBRANCH   7   9
ENDBRANCH   1   7
BRANCH   4  18
ATOM     18  C   UNL     1      47.395   7.868  12.109  0.00  0.00    +0.000 C 
BRANCH  18  19
ATOM     19  N   UNL     1      46.742   6.625  11.796  0.00  0.00    +0.000 N 
ATOM     20  C   UNL     1      45.409   6.431  12.048  0.00  0.00    +0.000 C 
ATOM     21  O   UNL     1      44.698   7.314  12.515  0.00  0.00    +0.000 OA
ATOM     22  H   UNL     1      47.342   5.825  11.622  0.00  0.00    +0.000 HD
BRANCH  20  23
ATOM     23  C   UNL     1      44.866   5.121  11.667  0.00  0.00    +0.000 A 
ATOM     24  C   UNL     1      44.153   4.378  12.598  0.00  0.00    +0.000 A 
ATOM     25  S   UNL     1      43.524   2.921  11.974  0.00  0.00    +0.000 S 
ATOM     26  C   UNL     1      44.232   3.204  10.452  0.00  0.00    +0.000 A 
ATOM     27  N   UNL     1      44.093   2.305   9.442  0.00  0.00    +0.000 NA
ATOM     28  C   UNL     1      44.710   2.626   8.353  0.00  0.00    +0.000 A 
ATOM     29  N   UNL     1      45.451   3.766   8.184  0.00  0.00    +0.000 N 
ATOM     30  C   UNL     1      45.603   4.713   9.169  0.00  0.00    +0.000 A 
ATOM     31  O   UNL     1      46.246   5.739   8.972  0.00  0.00    +0.000 OA
ATOM     32  C   UNL     1      44.931   4.398  10.418  0.00  0.00    +0.000 A 
ATOM     33  H   UNL     1      45.908   3.961   7.305  0.00  0.00    +0.000 HD
ENDBRANCH  20  23
ENDBRANCH  18  19
ENDBRANCH   4  18
TORSDOF 6
ENDMDL
MODEL 4
REMARK VINA RESULT:    -7.533      3.440     10.159
REMARK INTER + INTRA:         -11.135
REMARK INTER:                  -9.735
REMARK INTRA:                  -1.401
REMARK UNBOUND:                -0.960
REMARK  Name = 
REMARK  7 active torsions:
REMARK  status: ('A' for Active; 'I' for Inactive)
REMARK    1  A    between atoms: C_1  and  N_2
REMARK    2  A    between atoms: N_2  and  C_3
REMARK    3  A    between atoms: C_3  and  C_4
REMARK    4  A    between atoms: C_7  and  C_8
REMARK    5  A    between atoms: C_8  and  N_9
REMARK    6  A    between atoms: C_10  and  C_12
REMARK    7  A    between atoms: C_24  and  C_26
REMARK                            x       y       z     vdW  Elec       q    Type
REMARK                         _______ _______ _______ _____ _____    ______ ____
ROOT
ATOM      1  C   UNL     1      51.434   3.910  17.648  0.00  0.00    +0.000 A 
ATOM      2  C   UNL     1      50.879   2.637  17.433  0.00  0.00    +0.000 A 
ATOM      3  C   UNL     1      49.520   2.492  17.153  0.00  0.00    +0.000 A 
ATOM      4  C   UNL     1      48.693   3.619  17.071  0.00  0.00    +0.000 A 
ATOM      5  C   UNL     1      49.246   4.887  17.297  0.00  0.00    +0.000 A 
ATOM      6  C   UNL     1      50.606   5.034  17.573  0.00  0.00    +0.000 A 
ENDROOT
BRANCH   1   7
ATOM      7  C   UNL     1      52.892   4.051  17.998  0.00  0.00    +0.000 C 
BRANCH   7   9
ATOM      8  C   UNL     1      54.329   2.228  19.032  0.00  0.00    +0.000 C 
ATOM      9  N   UNL     1      53.408   3.353  19.180  0.00  0.00    +0.000 N 
ATOM     10  C   UNL     1      53.254   3.826  20.496  0.00  0.00    +0.000 C 
ATOM     11  O   UNL     1      53.855   3.312  21.442  0.00  0.00    +0.000 OA
BRANCH  10  12
ATOM     12  C   UNL     1      52.399   5.000  20.817  0.00  0.00    +0.000 A 
ATOM     13  C   UNL     1      51.059   4.939  21.200  0.00  0.00    +0.000 A 
ATOM     14  C   UNL     1      50.344   6.114  21.428  0.00  0.00    +0.000 A 
ATOM     15  C   UNL     1      51.015   7.321  21.336  0.00  0.00    +0.000 A 
ATOM     16  N   UNL     1      52.327   7.421  21.042  0.00  0.00    +0.000 NA
ATOM     17  C   UNL     1      52.990   6.260  20.798  0.00  0.00    +0.000 A 
ENDBRANCH  10  12
ENDBRANCH   7   9
ENDBRANCH   1   7
BRANCH   4  18
ATOM     18  C   UNL     1      47.216   3.470  16.823  0.00  0.00    +0.000 C 
BRANCH  18  19
ATOM     19  N   UNL     1      46.776   4.432  15.848  0.00  0.00    +0.000 N 
ATOM     20  C   UNL     1      46.861   4.181  14.504  0.00  0.00    +0.000 C 
ATOM     21  O   UNL     1      47.276   3.115  14.063  0.00  0.00    +0.000 OA
ATOM     22  H   UNL     1      46.641   5.384  16.174  0.00  0.00    +0.000 HD
BRANCH  20  23
ATOM     23  C   UNL     1      46.365   5.242  13.618  0.00  0.00    +0.000 A 
ATOM     24  C   UNL     1      47.167   6.342  13.349  0.00  0.00    +0.000 A 
ATOM     25  S   UNL     1      46.477   7.440  12.243  0.00  0.00    +0.000 S 
ATOM     26  C   UNL     1      45.054   6.513  12.128  0.00  0.00    +0.000 A 
ATOM     27  N   UNL     1      44.021   6.918  11.342  0.00  0.00    +0.000 NA
ATOM     28  C   UNL     1      42.989   6.140  11.374  0.00  0.00    +0.000 A 
ATOM     29  N   UNL     1      42.900   4.995  12.120  0.00  0.00    +0.000 N 
ATOM     30  C   UNL     1      43.925   4.536  12.913  0.00  0.00    +0.000 A 
ATOM     31  O   UNL     1      43.822   3.487  13.542  0.00  0.00    +0.000 OA
ATOM     32  C   UNL     1      45.108   5.377  12.916  0.00  0.00    +0.000 A 
ATOM     33  H   UNL     1      42.064   4.428  12.100  0.00  0.00    +0.000 HD
ENDBRANCH  20  23
ENDBRANCH  18  19
ENDBRANCH   4  18
TORSDOF 6
ENDMDL
MODEL 5
REMARK VINA RESULT:    -7.468      3.149      3.781
REMARK INTER + INTRA:         -11.048
REMARK INTER:                  -9.966
REMARK INTRA:                  -1.082
REMARK UNBOUND:                -0.960
REMARK  Name = 
REMARK  7 active torsions:
REMARK  status: ('A' for Active; 'I' for Inactive)
REMARK    1  A    between atoms: C_1  and  N_2
REMARK    2  A    between atoms: N_2  and  C_3
REMARK    3  A    between atoms: C_3  and  C_4
REMARK    4  A    between atoms: C_7  and  C_8
REMARK    5  A    between atoms: C_8  and  N_9
REMARK    6  A    between atoms: C_10  and  C_12
REMARK    7  A    between atoms: C_24  and  C_26
REMARK                            x       y       z     vdW  Elec       q    Type
REMARK                         _______ _______ _______ _____ _____    ______ ____
ROOT
ATOM      1  C   UNL     1      46.440   4.629  13.249  0.00  0.00    +0.000 A 
ATOM      2  C   UNL     1      46.850   5.809  12.605  0.00  0.00    +0.000 A 
ATOM      3  C   UNL     1      47.697   6.711  13.247  0.00  0.00    +0.000 A 
ATOM      4  C   UNL     1      48.162   6.445  14.541  0.00  0.00    +0.000 A 
ATOM      5  C   UNL     1      47.743   5.273  15.187  0.00  0.00    +0.000 A 
ATOM      6  C   UNL     1      46.899   4.367  14.544  0.00  0.00    +0.000 A 
ENDROOT
BRANCH   1   7
ATOM      7  C   UNL     1      45.486   3.686  12.565  0.00  0.00    +0.000 C 
BRANCH   7   9
ATOM      8  C   UNL     1      43.269   4.861  12.964  0.00  0.00    +0.000 C 
ATOM      9  N   UNL     1      44.212   4.209  12.060  0.00  0.00    +0.000 N 
ATOM     10  C   UNL     1      43.905   4.329  10.692  0.00  0.00    +0.000 C 
ATOM     11  O   UNL     1      42.905   4.939  10.306  0.00  0.00    +0.000 OA
BRANCH  10  12
ATOM     12  C   UNL     1      44.789   3.774   9.633  0.00  0.00    +0.000 A 
ATOM     13  C   UNL     1      44.949   2.417   9.348  0.00  0.00    +0.000 A 
ATOM     14  C   UNL     1      45.848   2.013   8.361  0.00  0.00    +0.000 A 
ATOM     15  C   UNL     1      46.511   2.987   7.635  0.00  0.00    +0.000 A 
ATOM     16  N   UNL     1      46.330   4.309   7.828  0.00  0.00    +0.000 NA
ATOM     17  C   UNL     1      45.469   4.672   8.815  0.00  0.00    +0.000 A 
ENDBRANCH  10  12
ENDBRANCH   7   9
ENDBRANCH   1   7
BRANCH   4  18
ATOM     18  C   UNL     1      49.033   7.437  15.264  0.00  0.00    +0.000 C 
BRANCH  18  19
ATOM     19  N   UNL     1      48.568   7.617  16.613  0.00  0.00    +0.000 N 
ATOM     20  C   UNL     1      49.398   7.439  17.688  0.00  0.00    +0.000 C 
ATOM     21  O   UNL     1      50.585   7.157  17.557  0.00  0.00    +0.000 OA
ATOM     22  H   UNL     1      47.563   7.631  16.751  0.00  0.00    +0.000 HD
BRANCH  20  23
ATOM     23  C   UNL     1      48.800   7.667  19.009  0.00  0.00    +0.000 A 
ATOM     24  C   UNL     1      48.551   8.965  19.434  0.00  0.00    +0.000 A 
ATOM     25  S   UNL     1      47.782   9.053  20.953  0.00  0.00    +0.000 S 
ATOM     26  C   UNL     1      47.806   7.360  21.124  0.00  0.00    +0.000 A 
ATOM     27  N   UNL     1      47.309   6.766  22.241  0.00  0.00    +0.000 NA
ATOM     28  C   UNL     1      47.422   5.478  22.257  0.00  0.00    +0.000 A 
ATOM     29  N   UNL     1      47.987   4.733  21.255  0.00  0.00    +0.000 N 
ATOM     30  C   UNL     1      48.485   5.288  20.100  0.00  0.00    +0.000 A 
ATOM     31  O   UNL     1      48.953   4.587  19.209  0.00  0.00    +0.000 OA
ATOM     32  C   UNL     1      48.385   6.735  20.033  0.00  0.00    +0.000 A 
ATOM     33  H   UNL     1      48.043   3.728  21.327  0.00  0.00    +0.000 HD
ENDBRANCH  20  23
ENDBRANCH  18  19
ENDBRANCH   4  18
TORSDOF 6
ENDMDL
MODEL 6
REMARK VINA RESULT:    -7.360      3.693      8.522
REMARK INTER + INTRA:         -10.901
REMARK INTER:                  -9.422
REMARK INTRA:                  -1.479
REMARK UNBOUND:                -0.960
REMARK  Name = 
REMARK  7 active torsions:
REMARK  status: ('A' for Active; 'I' for Inactive)
REMARK    1  A    between atoms: C_1  and  N_2
REMARK    2  A    between atoms: N_2  and  C_3
REMARK    3  A    between atoms: C_3  and  C_4
REMARK    4  A    between atoms: C_7  and  C_8
REMARK    5  A    between atoms: C_8  and  N_9
REMARK    6  A    between atoms: C_10  and  C_12
REMARK    7  A    between atoms: C_24  and  C_26
REMARK                            x       y       z     vdW  Elec       q    Type
REMARK                         _______ _______ _______ _____ _____    ______ ____
ROOT
ATOM      1  C   UNL     1      49.075   7.574  16.391  0.00  0.00    +0.000 A 
ATOM      2  C   UNL     1      48.550   8.830  16.046  0.00  0.00    +0.000 A 
ATOM      3  C   UNL     1      48.136   9.094  14.741  0.00  0.00    +0.000 A 
ATOM      4  C   UNL     1      48.227   8.101  13.758  0.00  0.00    +0.000 A 
ATOM      5  C   UNL     1      48.762   6.852  14.100  0.00  0.00    +0.000 A 
ATOM      6  C   UNL     1      49.173   6.585  15.406  0.00  0.00    +0.000 A 
ENDROOT
BRANCH   1   7
ATOM      7  C   UNL     1      49.565   7.316  17.791  0.00  0.00    +0.000 C 
BRANCH   7   9
ATOM      8  C   UNL     1      48.177   8.302  19.676  0.00  0.00    +0.000 C 
ATOM      9  N   UNL     1      48.584   7.155  18.869  0.00  0.00    +0.000 N 
ATOM     10  C   UNL     1      47.816   5.991  19.058  0.00  0.00    +0.000 C 
ATOM     11  O   UNL     1      46.877   5.961  19.856  0.00  0.00    +0.000 OA
BRANCH  10  12
ATOM     12  C   UNL     1      48.058   4.751  18.275  0.00  0.00    +0.000 A 
ATOM     13  C   UNL     1      49.136   3.883  18.455  0.00  0.00    +0.000 A 
ATOM     14  C   UNL     1      49.284   2.773  17.624  0.00  0.00    +0.000 A 
ATOM     15  C   UNL     1      48.304   2.522  16.679  0.00  0.00    +0.000 A 
ATOM     16  N   UNL     1      47.209   3.293  16.522  0.00  0.00    +0.000 NA
ATOM     17  C   UNL     1      47.106   4.383  17.327  0.00  0.00    +0.000 A 
ENDBRANCH  10  12
ENDBRANCH   7   9
ENDBRANCH   1   7
BRANCH   4  18
ATOM     18  C   UNL     1      47.833   8.392  12.334  0.00  0.00    +0.000 C 
BRANCH  18  19
ATOM     19  N   UNL     1      47.267   7.218  11.725  0.00  0.00    +0.000 N 
ATOM     20  C   UNL     1      45.921   7.104  11.501  0.00  0.00    +0.000 C 
ATOM     21  O   UNL     1      45.136   8.007  11.769  0.00  0.00    +0.000 OA
ATOM     22  H   UNL     1      47.853   6.389  11.701  0.00  0.00    +0.000 HD
BRANCH  20  23
ATOM     23  C   UNL     1      45.478   5.859  10.861  0.00  0.00    +0.000 A 
ATOM     24  C   UNL     1      45.783   5.628   9.527  0.00  0.00    +0.000 A 
ATOM     25  S   UNL     1      45.266   4.106   8.960  0.00  0.00    +0.000 S 
ATOM     26  C   UNL     1      44.563   3.724  10.462  0.00  0.00    +0.000 A 
ATOM     27  N   UNL     1      43.919   2.542  10.648  0.00  0.00    +0.000 NA
ATOM     28  C   UNL     1      43.401   2.396  11.824  0.00  0.00    +0.000 A 
ATOM     29  N   UNL     1      43.473   3.325  12.828  0.00  0.00    +0.000 N 
ATOM     30  C   UNL     1      44.131   4.524  12.693  0.00  0.00    +0.000 A 
ATOM     31  O   UNL     1      44.205   5.318  13.625  0.00  0.00    +0.000 OA
ATOM     32  C   UNL     1      44.728   4.741  11.386  0.00  0.00    +0.000 A 
ATOM     33  H   UNL     1      43.049   3.149  13.727  0.00  0.00    +0.000 HD
ENDBRANCH  20  23
ENDBRANCH  18  19
ENDBRANCH   4  18
TORSDOF 6
ENDMDL
MODEL 7
REMARK VINA RESULT:    -7.277      3.946      8.442
REMARK INTER + INTRA:         -10.790
REMARK INTER:                  -9.123
REMARK INTRA:                  -1.667
REMARK UNBOUND:                -0.960
REMARK  Name = 
REMARK  7 active torsions:
REMARK  status: ('A' for Active; 'I' for Inactive)
REMARK    1  A    between atoms: C_1  and  N_2
REMARK    2  A    between atoms: N_2  and  C_3
REMARK    3  A    between atoms: C_3  and  C_4
REMARK    4  A    between atoms: C_7  and  C_8
REMARK    5  A    between atoms: C_8  and  N_9
REMARK    6  A    between atoms: C_10  and  C_12
REMARK    7  A    between atoms: C_24  and  C_26
REMARK                            x       y       z     vdW  Elec       q    Type
REMARK                         _______ _______ _______ _____ _____    ______ ____
ROOT
ATOM      1  C   UNL     1      49.787   7.153  17.302  0.00  0.00    +0.000 A 
ATOM      2  C   UNL     1      48.923   8.253  17.426  0.00  0.00    +0.000 A 
ATOM      3  C   UNL     1      48.295   8.795  16.304  0.00  0.00    +0.000 A 
ATOM      4  C   UNL     1      48.511   8.237  15.038  0.00  0.00    +0.000 A 
ATOM      5  C   UNL     1      49.382   7.147  14.913  0.00  0.00    +0.000 A 
ATOM      6  C   UNL     1      50.007   6.601  16.035  0.00  0.00    +0.000 A 
ENDROOT
BRANCH   1   7
ATOM      7  C   UNL     1      50.498   6.608  18.512  0.00  0.00    +0.000 C 
BRANCH   7   9
ATOM      8  C   UNL     1      49.787   7.141  20.892  0.00  0.00    +0.000 C 
ATOM      9  N   UNL     1      49.715   6.286  19.710  0.00  0.00    +0.000 N 
ATOM     10  C   UNL     1      48.704   5.309  19.742  0.00  0.00    +0.000 C 
ATOM     11  O   UNL     1      47.947   5.195  20.710  0.00  0.00    +0.000 OA
BRANCH  10  12
ATOM     12  C   UNL     1      48.454   4.393  18.598  0.00  0.00    +0.000 A 
ATOM     13  C   UNL     1      49.308   3.370  18.185  0.00  0.00    +0.000 A 
ATOM     14  C   UNL     1      48.990   2.605  17.063  0.00  0.00    +0.000 A 
ATOM     15  C   UNL     1      47.785   2.841  16.426  0.00  0.00    +0.000 A 
ATOM     16  N   UNL     1      46.897   3.769  16.836  0.00  0.00    +0.000 NA
ATOM     17  C   UNL     1      47.247   4.517  17.915  0.00  0.00    +0.000 A 
ENDBRANCH  10  12
ENDBRANCH   7   9
ENDBRANCH   1   7
BRANCH   4  18
ATOM     18  C   UNL     1      47.881   8.847  13.813  0.00  0.00    +0.000 C 
BRANCH  18  19
ATOM     19  N   UNL     1      46.709   8.103  13.435  0.00  0.00    +0.000 N 
ATOM     20  C   UNL     1      46.715   7.252  12.361  0.00  0.00    +0.000 C 
ATOM     21  O   UNL     1      47.723   7.052  11.693  0.00  0.00    +0.000 OA
ATOM     22  H   UNL     1      45.825   8.413  13.826  0.00  0.00    +0.000 HD
BRANCH  20  23
ATOM     23  C   UNL     1      45.457   6.544  12.094  0.00  0.00    +0.000 A 
ATOM     24  C   UNL     1      44.369   7.245  11.590  0.00  0.00    +0.000 A 
ATOM     25  S   UNL     1      43.015   6.263  11.261  0.00  0.00    +0.000 S 
ATOM     26  C   UNL     1      43.814   4.874  11.836  0.00  0.00    +0.000 A 
ATOM     27  N   UNL     1      43.187   3.668  11.853  0.00  0.00    +0.000 NA
ATOM     28  C   UNL     1      43.895   2.706  12.346  0.00  0.00    +0.000 A 
ATOM     29  N   UNL     1      45.173   2.843  12.822  0.00  0.00    +0.000 N 
ATOM     30  C   UNL     1      45.853   4.037  12.807  0.00  0.00    +0.000 A 
ATOM     31  O   UNL     1      47.009   4.116  13.210  0.00  0.00    +0.000 OA
ATOM     32  C   UNL     1      45.100   5.154  12.264  0.00  0.00    +0.000 A 
ATOM     33  H   UNL     1      45.674   2.049  13.194  0.00  0.00    +0.000 HD
ENDBRANCH  20  23
ENDBRANCH  18  19
ENDBRANCH   4  18
TORSDOF 6
ENDMDL
MODEL 8
REMARK VINA RESULT:    -7.160      3.172      4.717
REMARK INTER + INTRA:         -10.632
REMARK INTER:                  -9.728
REMARK INTRA:                  -0.904
REMARK UNBOUND:                -0.960
REMARK  Name = 
REMARK  7 active torsions:
REMARK  status: ('A' for Active; 'I' for Inactive)
REMARK    1  A    between atoms: C_1  and  N_2
REMARK    2  A    between atoms: N_2  and  C_3
REMARK    3  A    between atoms: C_3  and  C_4
REMARK    4  A    between atoms: C_7  and  C_8
REMARK    5  A    between atoms: C_8  and  N_9
REMARK    6  A    between atoms: C_10  and  C_12
REMARK    7  A    between atoms: C_24  and  C_26
REMARK                            x       y       z     vdW  Elec       q    Type
REMARK                         _______ _______ _______ _____ _____    ______ ____
ROOT
ATOM      1  C   UNL     1      46.399   4.535  13.363  0.00  0.00    +0.000 A 
ATOM      2  C   UNL     1      46.717   4.122  14.668  0.00  0.00    +0.000 A 
ATOM      3  C   UNL     1      47.558   4.890  15.472  0.00  0.00    +0.000 A 
ATOM      4  C   UNL     1      48.088   6.094  14.991  0.00  0.00    +0.000 A 
ATOM      5  C   UNL     1      47.780   6.499  13.685  0.00  0.00    +0.000 A 
ATOM      6  C   UNL     1      46.935   5.734  12.881  0.00  0.00    +0.000 A 
ENDROOT
BRANCH   1   7
ATOM      7  C   UNL     1      45.531   3.673  12.486  0.00  0.00    +0.000 C 
BRANCH   7   9
ATOM      8  C   UNL     1      43.332   4.877  12.896  0.00  0.00    +0.000 C 
ATOM      9  N   UNL     1      44.265   4.218  11.986  0.00  0.00    +0.000 N 
ATOM     10  C   UNL     1      43.958   4.352  10.619  0.00  0.00    +0.000 C 
ATOM     11  O   UNL     1      42.967   4.979  10.239  0.00  0.00    +0.000 OA
BRANCH  10  12
ATOM     12  C   UNL     1      44.833   3.791   9.556  0.00  0.00    +0.000 A 
ATOM     13  C   UNL     1      45.607   4.543   8.670  0.00  0.00    +0.000 A 
ATOM     14  C   UNL     1      46.352   3.905   7.679  0.00  0.00    +0.000 A 
ATOM     15  C   UNL     1      46.357   2.522   7.647  0.00  0.00    +0.000 A 
ATOM     16  N   UNL     1      45.683   1.756   8.530  0.00  0.00    +0.000 NA
ATOM     17  C   UNL     1      44.944   2.406   9.467  0.00  0.00    +0.000 A 
ENDBRANCH  10  12
ENDBRANCH   7   9
ENDBRANCH   1   7
BRANCH   4  18
ATOM     18  C   UNL     1      49.040   6.904  15.831  0.00  0.00    +0.000 C 
BRANCH  18  19
ATOM     19  N   UNL     1      48.507   7.079  17.156  0.00  0.00    +0.000 N 
ATOM     20  C   UNL     1      49.141   6.569  18.258  0.00  0.00    +0.000 C 
ATOM     21  O   UNL     1      50.211   5.974  18.178  0.00  0.00    +0.000 OA
ATOM     22  H   UNL     1      47.536   7.366  17.223  0.00  0.00    +0.000 HD
BRANCH  20  23
ATOM     23  C   UNL     1      48.498   6.831  19.551  0.00  0.00    +0.000 A 
ATOM     24  C   UNL     1      48.473   5.837  20.519  0.00  0.00    +0.000 A 
ATOM     25  S   UNL     1      47.760   6.328  21.987  0.00  0.00    +0.000 S 
ATOM     26  C   UNL     1      47.406   7.871  21.362  0.00  0.00    +0.000 A 
ATOM     27  N   UNL     1      46.761   8.797  22.119  0.00  0.00    +0.000 NA
ATOM     28  C   UNL     1      46.524   9.913  21.511  0.00  0.00    +0.000 A 
ATOM     29  N   UNL     1      46.875  10.184  20.214  0.00  0.00    +0.000 N 
ATOM     30  C   UNL     1      47.545   9.286  19.417  0.00  0.00    +0.000 A 
ATOM     31  O   UNL     1      47.874   9.575  18.272  0.00  0.00    +0.000 OA
ATOM     32  C   UNL     1      47.833   8.013  20.053  0.00  0.00    +0.000 A 
ATOM     33  H   UNL     1      46.662  11.078  19.797  0.00  0.00    +0.000 HD
ENDBRANCH  20  23
ENDBRANCH  18  19
ENDBRANCH   4  18
TORSDOF 6
ENDMDL
MODEL 9
REMARK VINA RESULT:    -7.042      3.416      9.432
REMARK INTER + INTRA:         -10.473
REMARK INTER:                  -9.263
REMARK INTRA:                  -1.210
REMARK UNBOUND:                -0.960
REMARK  Name = 
REMARK  7 active torsions:
REMARK  status: ('A' for Active; 'I' for Inactive)
REMARK    1  A    between atoms: C_1  and  N_2
REMARK    2  A    between atoms: N_2  and  C_3
REMARK    3  A    between atoms: C_3  and  C_4
REMARK    4  A    between atoms: C_7  and  C_8
REMARK    5  A    between atoms: C_8  and  N_9
REMARK    6  A    between atoms: C_10  and  C_12
REMARK    7  A    between atoms: C_24  and  C_26
REMARK                            x       y       z     vdW  Elec       q    Type
REMARK                         _______ _______ _______ _____ _____    ______ ____
ROOT
ATOM      1  C   UNL     1      51.544   3.406  17.775  0.00  0.00    +0.000 A 
ATOM      2  C   UNL     1      50.914   2.218  17.368  0.00  0.00    +0.000 A 
ATOM      3  C   UNL     1      49.548   2.199  17.086  0.00  0.00    +0.000 A 
ATOM      4  C   UNL     1      48.789   3.371  17.195  0.00  0.00    +0.000 A 
ATOM      5  C   UNL     1      49.416   4.552  17.613  0.00  0.00    +0.000 A 
ATOM      6  C   UNL     1      50.783   4.574  17.891  0.00  0.00    +0.000 A 
ENDROOT
BRANCH   1   7
ATOM      7  C   UNL     1      53.009   3.404  18.125  0.00  0.00    +0.000 C 
BRANCH   7   9
ATOM      8  C   UNL     1      53.632   3.994  20.516  0.00  0.00    +0.000 C 
ATOM      9  N   UNL     1      53.504   4.370  19.110  0.00  0.00    +0.000 N 
ATOM     10  C   UNL     1      54.088   5.604  18.769  0.00  0.00    +0.000 C 
ATOM     11  O   UNL     1      54.656   6.304  19.610  0.00  0.00    +0.000 OA
BRANCH  10  12
ATOM     12  C   UNL     1      54.100   6.112  17.372  0.00  0.00    +0.000 A 
ATOM     13  C   UNL     1      53.216   7.060  16.852  0.00  0.00    +0.000 A 
ATOM     14  C   UNL     1      53.293   7.423  15.508  0.00  0.00    +0.000 A 
ATOM     15  C   UNL     1      54.303   6.877  14.735  0.00  0.00    +0.000 A 
ATOM     16  N   UNL     1      55.223   6.015  15.216  0.00  0.00    +0.000 NA
ATOM     17  C   UNL     1      55.105   5.659  16.522  0.00  0.00    +0.000 A 
ENDBRANCH  10  12
ENDBRANCH   7   9
ENDBRANCH   1   7
BRANCH   4  18
ATOM     18  C   UNL     1      47.304   3.349  16.945  0.00  0.00    +0.000 C 
BRANCH  18  19
ATOM     19  N   UNL     1      46.945   4.370  15.997  0.00  0.00    +0.000 N 
ATOM     20  C   UNL     1      46.992   4.143  14.647  0.00  0.00    +0.000 C 
ATOM     21  O   UNL     1      47.303   3.053  14.178  0.00  0.00    +0.000 OA
ATOM     22  H   UNL     1      46.902   5.322  16.346  0.00  0.00    +0.000 HD
BRANCH  20  23
ATOM     23  C   UNL     1      46.586   5.265  13.791  0.00  0.00    +0.000 A 
ATOM     24  C   UNL     1      47.429   6.359  13.649  0.00  0.00    +0.000 A 
ATOM     25  S   UNL     1      46.847   7.536  12.562  0.00  0.00    +0.000 S 
ATOM     26  C   UNL     1      45.419   6.652  12.285  0.00  0.00    +0.000 A 
ATOM     27  N   UNL     1      44.458   7.126  11.449  0.00  0.00    +0.000 NA
ATOM     28  C   UNL     1      43.411   6.374  11.357  0.00  0.00    +0.000 A 
ATOM     29  N   UNL     1      43.242   5.189  12.025  0.00  0.00    +0.000 N 
ATOM     30  C   UNL     1      44.194   4.660  12.864  0.00  0.00    +0.000 A 
ATOM     31  O   UNL     1      44.022   3.580  13.419  0.00  0.00    +0.000 OA
ATOM     32  C   UNL     1      45.390   5.471  13.006  0.00  0.00    +0.000 A 
ATOM     33  H   UNL     1      42.399   4.646  11.908  0.00  0.00    +0.000 HD
ENDBRANCH  20  23
ENDBRANCH  18  19
ENDBRANCH   4  18
TORSDOF 6
ENDMDL
