MODEL 1
REMARK VINA RESULT:    -7.882      0.000      0.000
REMARK INTER + INTRA:         -13.661
REMARK INTER:                 -12.491
REMARK INTRA:                  -1.171
REMARK UNBOUND:                -1.171
REMARK  Name = 
REMARK  12 active torsions:
REMARK  status: ('A' for Active; 'I' for Inactive)
REMARK    1  A    between atoms: C_1  and  C_2
REMARK    2  A    between atoms: C_2  and  C_3
REMARK    3  A    between atoms: C_3  and  C_4
REMARK    4  A    between atoms: C_4  and  N_5
REMARK    5  A    between atoms: C_4  and  C_23
REMARK    6  A    between atoms: N_5  and  C_6
REMARK    7  A    between atoms: C_6  and  C_7
REMARK    8  A    between atoms: C_10  and  C_11
REMARK    9  A    between atoms: C_11  and  N_12
REMARK   10  A    between atoms: N_12  and  C_13
REMARK   11  A    between atoms: N_12  and  C_14
REMARK   12  A    between atoms: C_14  and  C_15
REMARK                            x       y       z     vdW  Elec       q    Type
REMARK                         _______ _______ _______ _____ _____    ______ ____
ROOT
ATOM      1  N   UNL     1      48.957   4.922  15.966  0.00  0.00    +0.000 NA
ATOM      2  H   UNL     1      48.469   4.145  15.530  0.00  0.00    +0.000 HD
ENDROOT
BRANCH   1   3
ATOM      3  C   UNL     1      48.868   4.814  17.427  0.00  0.00    +0.000 C 
BRANCH   3   4
ATOM      4  C   UNL     1      50.245   4.430  17.972  0.00  0.00    +0.000 A 
ATOM      5  C   UNL     1      51.051   5.253  18.745  0.00  0.00    +0.000 A 
ATOM      6  S   UNL     1      52.536   4.545  19.186  0.00  0.00    +0.000 S 
ATOM      7  C   UNL     1      52.139   3.096  18.396  0.00  0.00    +0.000 A 
ATOM      8  N   UNL     1      52.966   2.018  18.462  0.00  0.00    +0.000 NA
ATOM      9  C   UNL     1      52.527   0.983  17.828  0.00  0.00    +0.000 A 
ATOM     10  N   UNL     1      51.361   0.935  17.105  0.00  0.00    +0.000 N 
ATOM     11  C   UNL     1      50.525   2.020  16.958  0.00  0.00    +0.000 A 
ATOM     12  O   UNL     1      49.531   1.959  16.234  0.00  0.00    +0.000 OA
ATOM     13  C   UNL     1      50.924   3.177  17.734  0.00  0.00    +0.000 A 
ATOM     14  H   UNL     1      51.098   0.104  16.600  0.00  0.00    +0.000 HD
ENDBRANCH   3   4
BRANCH   3  15
ATOM     15  C   UNL     1      48.287   6.073  18.133  0.00  0.00    +0.000 C 
BRANCH  15  17
ATOM     16  C   UNL     1      47.872   6.293  20.601  0.00  0.00    +0.000 C 
ATOM     17  C   UNL     1      47.308   5.787  19.277  0.00  0.00    +0.000 C 
ENDBRANCH  15  17
ENDBRANCH   3  15
ENDBRANCH   1   3
BRANCH   1  18
ATOM     18  C   UNL     1      48.462   6.186  15.438  0.00  0.00    +0.000 C 
BRANCH  18  19
ATOM     19  C   UNL     1      47.559   6.002  14.251  0.00  0.00    +0.000 A 
ATOM     20  C   UNL     1      46.878   4.801  14.024  0.00  0.00    +0.000 A 
ATOM     21  C   UNL     1      46.021   4.690  12.932  0.00  0.00    +0.000 A 
ATOM     22  C   UNL     1      45.811   5.787  12.081  0.00  0.00    +0.000 A 
ATOM     23  C   UNL     1      46.497   6.982  12.307  0.00  0.00    +0.000 A 
ATOM     24  C   UNL     1      47.365   7.085  13.383  0.00  0.00    +0.000 A 
BRANCH  22  25
ATOM     25  C   UNL     1      44.817   5.702  10.949  0.00  0.00    +0.000 C 
BRANCH  25  26
ATOM     26  N   UNL     1      44.510   4.307  10.582  0.00  0.00    +0.000 NA
ATOM     27  C   UNL     1      43.303   3.822  11.261  0.00  0.00    +0.000 C 
BRANCH  26  28
ATOM     28  C   UNL     1      44.326   4.207   9.119  0.00  0.00    +0.000 C 
BRANCH  28  29
ATOM     29  C   UNL     1      45.382   3.367   8.421  0.00  0.00    +0.000 A 
ATOM     30  C   UNL     1      45.503   2.007   8.707  0.00  0.00    +0.000 A 
ATOM     31  C   UNL     1      46.469   1.263   8.036  0.00  0.00    +0.000 A 
ATOM     32  C   UNL     1      47.292   1.895   7.112  0.00  0.00    +0.000 A 
ATOM     33  C   UNL     1      47.124   3.253   6.906  0.00  0.00    +0.000 A 
ATOM     34  N   UNL     1      46.191   4.000   7.534  0.00  0.00    +0.000 NA
ENDBRANCH  28  29
ENDBRANCH  26  28
ENDBRANCH  25  26
ENDBRANCH  22  25
ENDBRANCH  18  19
ENDBRANCH   1  18
TORSDOF 10
ENDMDL
MODEL 2
REMARK VINA RESULT:    -7.254      2.281      2.931
REMARK INTER + INTRA:         -12.665
REMARK INTER:                 -10.600
REMARK INTRA:                  -2.065
REMARK UNBOUND:                -1.171
REMARK  Name = 
REMARK  12 active torsions:
REMARK  status: ('A' for Active; 'I' for Inactive)
REMARK    1  A    between atoms: C_1  and  C_2
REMARK    2  A    between atoms: C_2  and  C_3
REMARK    3  A    between atoms: C_3  and  C_4
REMARK    4  A    between atoms: C_4  and  N_5
REMARK    5  A    between atoms: C_4  and  C_23
REMARK    6  A    between atoms: N_5  and  C_6
REMARK    7  A    between atoms: C_6  and  C_7
REMARK    8  A    between atoms: C_10  and  C_11
REMARK    9  A    between atoms: C_11  and  N_12
REMARK   10  A    between atoms: N_12  and  C_13
REMARK   11  A    between atoms: N_12  and  C_14
REMARK   12  A    between atoms: C_14  and  C_15
REMARK                            x       y       z     vdW  Elec       q    Type
REMARK                         _______ _______ _______ _____ _____    ______ ____
ROOT
ATOM      1  N   UNL     1      49.960   7.319  14.696  0.00  0.00    +0.000 NA
ATOM      2  H   UNL     1      49.644   6.393  14.423  0.00  0.00    +0.000 HD
ENDROOT
BRANCH   1   3
ATOM      3  C   UNL     1      49.550   7.602  16.077  0.00  0.00    +0.000 C 
BRANCH   3   4
ATOM      4  C   UNL     1      49.774   6.342  16.917  0.00  0.00    +0.000 A 
ATOM      5  C   UNL     1      50.821   6.158  17.807  0.00  0.00    +0.000 A 
ATOM      6  S   UNL     1      50.805   4.641  18.583  0.00  0.00    +0.000 S 
ATOM      7  C   UNL     1      49.373   4.192  17.789  0.00  0.00    +0.000 A 
ATOM      8  N   UNL     1      48.760   3.012  18.075  0.00  0.00    +0.000 NA
ATOM      9  C   UNL     1      47.674   2.812  17.408  0.00  0.00    +0.000 A 
ATOM     10  N   UNL     1      47.164   3.661  16.456  0.00  0.00    +0.000 N 
ATOM     11  C   UNL     1      47.783   4.835  16.090  0.00  0.00    +0.000 A 
ATOM     12  O   UNL     1      47.337   5.527  15.174  0.00  0.00    +0.000 OA
ATOM     13  C   UNL     1      48.954   5.152  16.883  0.00  0.00    +0.000 A 
ATOM     14  H   UNL     1      46.330   3.423  15.943  0.00  0.00    +0.000 HD
ENDBRANCH   3   4
BRANCH   3  15
ATOM     15  C   UNL     1      50.223   8.855  16.707  0.00  0.00    +0.000 C 
BRANCH  15  17
ATOM     16  C   UNL     1      47.814   9.420  17.136  0.00  0.00    +0.000 C 
ATOM     17  C   UNL     1      49.258   9.868  17.333  0.00  0.00    +0.000 C 
ENDBRANCH  15  17
ENDBRANCH   3  15
ENDBRANCH   1   3
BRANCH   1  18
ATOM     18  C   UNL     1      49.501   8.311  13.732  0.00  0.00    +0.000 C 
BRANCH  18  19
ATOM     19  C   UNL     1      48.195   7.933  13.092  0.00  0.00    +0.000 A 
ATOM     20  C   UNL     1      48.112   6.911  12.138  0.00  0.00    +0.000 A 
ATOM     21  C   UNL     1      46.874   6.569  11.601  0.00  0.00    +0.000 A 
ATOM     22  C   UNL     1      45.708   7.219  12.036  0.00  0.00    +0.000 A 
ATOM     23  C   UNL     1      45.795   8.241  12.982  0.00  0.00    +0.000 A 
ATOM     24  C   UNL     1      47.031   8.594  13.503  0.00  0.00    +0.000 A 
BRANCH  22  25
ATOM     25  C   UNL     1      44.354   6.792  11.524  0.00  0.00    +0.000 C 
BRANCH  25  26
ATOM     26  N   UNL     1      44.136   5.341  11.670  0.00  0.00    +0.000 NA
ATOM     27  C   UNL     1      43.302   5.035  12.837  0.00  0.00    +0.000 C 
BRANCH  26  28
ATOM     28  C   UNL     1      43.492   4.809  10.451  0.00  0.00    +0.000 C 
BRANCH  28  29
ATOM     29  C   UNL     1      44.419   3.984   9.574  0.00  0.00    +0.000 A 
ATOM     30  C   UNL     1      44.454   2.595   9.697  0.00  0.00    +0.000 A 
ATOM     31  C   UNL     1      45.301   1.869   8.866  0.00  0.00    +0.000 A 
ATOM     32  C   UNL     1      46.094   2.545   7.946  0.00  0.00    +0.000 A 
ATOM     33  C   UNL     1      46.017   3.926   7.905  0.00  0.00    +0.000 A 
ATOM     34  N   UNL     1      45.200   4.659   8.693  0.00  0.00    +0.000 NA
ENDBRANCH  28  29
ENDBRANCH  26  28
ENDBRANCH  25  26
ENDBRANCH  22  25
ENDBRANCH  18  19
ENDBRANCH   1  18
TORSDOF 10
ENDMDL
MODEL 3
REMARK VINA RESULT:    -7.000      2.646      3.805
REMARK INTER + INTRA:         -12.262
REMARK INTER:                 -10.794
REMARK INTRA:                  -1.468
REMARK UNBOUND:                -1.171
REMARK  Name = 
REMARK  12 active torsions:
REMARK  status: ('A' for Active; 'I' for Inactive)
REMARK    1  A    between atoms: C_1  and  C_2
REMARK    2  A    between atoms: C_2  and  C_3
REMARK    3  A    between atoms: C_3  and  C_4
REMARK    4  A    between atoms: C_4  and  N_5
REMARK    5  A    between atoms: C_4  and  C_23
REMARK    6  A    between atoms: N_5  and  C_6
REMARK    7  A    between atoms: C_6  and  C_7
REMARK    8  A    between atoms: C_10  and  C_11
REMARK    9  A    between atoms: C_11  and  N_12
REMARK   10  A    between atoms: N_12  and  C_13
REMARK   11  A    between atoms: N_12  and  C_14
REMARK   12  A    between atoms: C_14  and  C_15
REMARK                            x       y       z     vdW  Elec       q    Type
REMARK                         _______ _______ _______ _____ _____    ______ ____
ROOT
ATOM      1  N   UNL     1      49.846   6.602  14.671  0.00  0.00    +0.000 NA
ATOM      2  H   UNL     1      49.068   6.147  15.140  0.00  0.00    +0.000 HD
ENDROOT
BRANCH   1   3
ATOM      3  C   UNL     1      50.559   7.472  15.614  0.00  0.00    +0.000 C 
BRANCH   3   4
ATOM      4  C   UNL     1      49.615   7.816  16.768  0.00  0.00    +0.000 A 
ATOM      5  C   UNL     1      49.409   9.091  17.272  0.00  0.00    +0.000 A 
ATOM      6  S   UNL     1      48.309   9.149  18.572  0.00  0.00    +0.000 S 
ATOM      7  C   UNL     1      48.035   7.476  18.481  0.00  0.00    +0.000 A 
ATOM      8  N   UNL     1      47.112   6.878  19.280  0.00  0.00    +0.000 NA
ATOM      9  C   UNL     1      47.000   5.606  19.089  0.00  0.00    +0.000 A 
ATOM     10  N   UNL     1      47.749   4.872  18.203  0.00  0.00    +0.000 N 
ATOM     11  C   UNL     1      48.737   5.424  17.419  0.00  0.00    +0.000 A 
ATOM     12  O   UNL     1      49.442   4.717  16.698  0.00  0.00    +0.000 OA
ATOM     13  C   UNL     1      48.832   6.866  17.526  0.00  0.00    +0.000 A 
ATOM     14  H   UNL     1      47.637   3.873  18.134  0.00  0.00    +0.000 HD
ENDBRANCH   3   4
BRANCH   3  15
ATOM     15  C   UNL     1      51.918   6.904  16.116  0.00  0.00    +0.000 C 
BRANCH  15  17
ATOM     16  C   UNL     1      53.007   9.160  15.924  0.00  0.00    +0.000 C 
ATOM     17  C   UNL     1      52.838   7.922  16.800  0.00  0.00    +0.000 C 
ENDBRANCH  15  17
ENDBRANCH   3  15
ENDBRANCH   1   3
BRANCH   1  18
ATOM     18  C   UNL     1      49.378   7.290  13.475  0.00  0.00    +0.000 C 
BRANCH  18  19
ATOM     19  C   UNL     1      48.007   6.842  13.051  0.00  0.00    +0.000 A 
ATOM     20  C   UNL     1      47.369   7.389  11.931  0.00  0.00    +0.000 A 
ATOM     21  C   UNL     1      46.115   6.915  11.553  0.00  0.00    +0.000 A 
ATOM     22  C   UNL     1      45.507   5.870  12.267  0.00  0.00    +0.000 A 
ATOM     23  C   UNL     1      46.144   5.332  13.386  0.00  0.00    +0.000 A 
ATOM     24  C   UNL     1      47.384   5.817  13.774  0.00  0.00    +0.000 A 
BRANCH  22  25
ATOM     25  C   UNL     1      44.191   5.292  11.810  0.00  0.00    +0.000 C 
BRANCH  25  26
ATOM     26  N   UNL     1      44.347   3.949  11.221  0.00  0.00    +0.000 NA
ATOM     27  C   UNL     1      43.503   2.960  11.900  0.00  0.00    +0.000 C 
BRANCH  26  28
ATOM     28  C   UNL     1      43.999   3.991   9.786  0.00  0.00    +0.000 C 
BRANCH  28  29
ATOM     29  C   UNL     1      45.073   3.420   8.874  0.00  0.00    +0.000 A 
ATOM     30  C   UNL     1      45.360   2.055   8.893  0.00  0.00    +0.000 A 
ATOM     31  C   UNL     1      46.337   1.564   8.032  0.00  0.00    +0.000 A 
ATOM     32  C   UNL     1      47.005   2.443   7.189  0.00  0.00    +0.000 A 
ATOM     33  C   UNL     1      46.678   3.786   7.251  0.00  0.00    +0.000 A 
ATOM     34  N   UNL     1      45.730   4.293   8.069  0.00  0.00    +0.000 NA
ENDBRANCH  28  29
ENDBRANCH  26  28
ENDBRANCH  25  26
ENDBRANCH  22  25
ENDBRANCH  18  19
ENDBRANCH   1  18
TORSDOF 10
ENDMDL
MODEL 4
REMARK VINA RESULT:    -6.954      1.789      2.253
REMARK INTER + INTRA:         -12.191
REMARK INTER:                 -10.879
REMARK INTRA:                  -1.311
REMARK UNBOUND:                -1.171
REMARK  Name = 
REMARK  12 active torsions:
REMARK  status: ('A' for Active; 'I' for Inactive)
REMARK    1  A    between atoms: C_1  and  C_2
REMARK    2  A    between atoms: C_2  and  C_3
REMARK    3  A    between atoms: C_3  and  C_4
REMARK    4  A    between atoms: C_4  and  N_5
REMARK    5  A    between atoms: C_4  and  C_23
REMARK    6  A    between atoms: N_5  and  C_6
REMARK    7  A    between atoms: C_6  and  C_7
REMARK    8  A    between atoms: C_10  and  C_11
REMARK    9  A    between atoms: C_11  and  N_12
REMARK   10  A    between atoms: N_12  and  C_13
REMARK   11  A    between atoms: N_12  and  C_14
REMARK   12  A    between atoms: C_14  and  C_15
REMARK                            x       y       z     vdW  Elec       q    Type
REMARK                         _______ _______ _______ _____ _____    ______ ____
ROOT
ATOM      1  N   UNL     1      48.441   6.474  15.728  0.00  0.00    +0.000 NA
ATOM      2  H   UNL     1      47.451   6.541  15.945  0.00  0.00    +0.000 HD
ENDROOT
BRANCH   1   3
ATOM      3  C   UNL     1      49.216   7.296  16.665  0.00  0.00    +0.000 C 
BRANCH   3   4
ATOM      4  C   UNL     1      50.649   6.761  16.711  0.00  0.00    +0.000 A 
ATOM      5  C   UNL     1      51.755   7.406  16.178  0.00  0.00    +0.000 A 
ATOM      6  S   UNL     1      53.214   6.548  16.375  0.00  0.00    +0.000 S 
ATOM      7  C   UNL     1      52.427   5.302  17.217  0.00  0.00    +0.000 A 
ATOM      8  N   UNL     1      53.133   4.270  17.752  0.00  0.00    +0.000 NA
ATOM      9  C   UNL     1      52.405   3.407  18.377  0.00  0.00    +0.000 A 
ATOM     10  N   UNL     1      51.037   3.457  18.485  0.00  0.00    +0.000 N 
ATOM     11  C   UNL     1      50.276   4.448  17.906  0.00  0.00    +0.000 A 
ATOM     12  O   UNL     1      49.046   4.412  17.957  0.00  0.00    +0.000 OA
ATOM     13  C   UNL     1      51.056   5.495  17.278  0.00  0.00    +0.000 A 
ATOM     14  H   UNL     1      50.528   2.726  18.955  0.00  0.00    +0.000 HD
ENDBRANCH   3   4
BRANCH   3  15
ATOM     15  C   UNL     1      49.170   8.824  16.376  0.00  0.00    +0.000 C 
BRANCH  15  17
ATOM     16  C   UNL     1      47.701   8.954  18.409  0.00  0.00    +0.000 C 
ATOM     17  C   UNL     1      48.026   9.583  17.058  0.00  0.00    +0.000 C 
ENDBRANCH  15  17
ENDBRANCH   3  15
ENDBRANCH   1   3
BRANCH   1  18
ATOM     18  C   UNL     1      48.672   6.804  14.328  0.00  0.00    +0.000 C 
BRANCH  18  19
ATOM     19  C   UNL     1      47.508   6.438  13.449  0.00  0.00    +0.000 A 
ATOM     20  C   UNL     1      47.237   7.128  12.262  0.00  0.00    +0.000 A 
ATOM     21  C   UNL     1      46.170   6.728  11.461  0.00  0.00    +0.000 A 
ATOM     22  C   UNL     1      45.391   5.616  11.819  0.00  0.00    +0.000 A 
ATOM     23  C   UNL     1      45.661   4.934  13.007  0.00  0.00    +0.000 A 
ATOM     24  C   UNL     1      46.711   5.345  13.815  0.00  0.00    +0.000 A 
BRANCH  22  25
ATOM     25  C   UNL     1      44.292   5.124  10.911  0.00  0.00    +0.000 C 
BRANCH  25  26
ATOM     26  N   UNL     1      44.533   3.746  10.442  0.00  0.00    +0.000 NA
ATOM     27  C   UNL     1      43.624   2.790  11.084  0.00  0.00    +0.000 C 
BRANCH  26  28
ATOM     28  C   UNL     1      44.362   3.682   8.976  0.00  0.00    +0.000 C 
BRANCH  28  29
ATOM     29  C   UNL     1      45.536   3.053   8.245  0.00  0.00    +0.000 A 
ATOM     30  C   UNL     1      45.815   1.695   8.398  0.00  0.00    +0.000 A 
ATOM     31  C   UNL     1      46.887   1.148   7.700  0.00  0.00    +0.000 A 
ATOM     32  C   UNL     1      47.654   1.967   6.880  0.00  0.00    +0.000 A 
ATOM     33  C   UNL     1      47.324   3.309   6.803  0.00  0.00    +0.000 A 
ATOM     34  N   UNL     1      46.286   3.869   7.462  0.00  0.00    +0.000 NA
ENDBRANCH  28  29
ENDBRANCH  26  28
ENDBRANCH  25  26
ENDBRANCH  22  25
ENDBRANCH  18  19
ENDBRANCH   1  18
TORSDOF 10
ENDMDL
MODEL 5
REMARK VINA RESULT:    -6.815      3.206      8.955
REMARK INTER + INTRA:         -11.969
REMARK INTER:                 -10.059
REMARK INTRA:                  -1.909
REMARK UNBOUND:                -1.171
REMARK  Name = 
REMARK  12 active torsions:
REMARK  status: ('A' for Active; 'I' for Inactive)
REMARK    1  A    between atoms: C_1  and  C_2
REMARK    2  A    between atoms: C_2  and  C_3
REMARK    3  A    between atoms: C_3  and  C_4
REMARK    4  A    between atoms: C_4  and  N_5
REMARK    5  A    between atoms: C_4  and  C_23
REMARK    6  A    between atoms: N_5  and  C_6
REMARK    7  A    between atoms: C_6  and  C_7
REMARK    8  A    between atoms: C_10  and  C_11
REMARK    9  A    between atoms: C_11  and  N_12
REMARK   10  A    between atoms: N_12  and  C_13
REMARK   11  A    between atoms: N_12  and  C_14
REMARK   12  A    between atoms: C_14  and  C_15
REMARK                            x       y       z     vdW  Elec       q    Type
REMARK                         _______ _______ _______ _____ _____    ______ ____
ROOT
ATOM      1  N   UNL     1      47.384   6.968  11.746  0.00  0.00    +0.000 NA
ATOM      2  H   UNL     1      47.770   6.680  10.852  0.00  0.00    +0.000 HD
ENDROOT
BRANCH   1   3
ATOM      3  C   UNL     1      45.950   7.246  11.607  0.00  0.00    +0.000 C 
BRANCH   3   4
ATOM      4  C   UNL     1      45.180   5.935  11.779  0.00  0.00    +0.000 A 
ATOM      5  C   UNL     1      44.531   5.542  12.940  0.00  0.00    +0.000 A 
ATOM      6  S   UNL     1      43.776   4.019  12.825  0.00  0.00    +0.000 S 
ATOM      7  C   UNL     1      44.254   3.847  11.205  0.00  0.00    +0.000 A 
ATOM      8  N   UNL     1      43.851   2.776  10.471  0.00  0.00    +0.000 NA
ATOM      9  C   UNL     1      44.276   2.787   9.252  0.00  0.00    +0.000 A 
ATOM     10  N   UNL     1      45.096   3.747   8.710  0.00  0.00    +0.000 N 
ATOM     11  C   UNL     1      45.578   4.815   9.433  0.00  0.00    +0.000 A 
ATOM     12  O   UNL     1      46.377   5.608   8.933  0.00  0.00    +0.000 OA
ATOM     13  C   UNL     1      45.048   4.900  10.779  0.00  0.00    +0.000 A 
ATOM     14  H   UNL     1      45.423   3.672   7.761  0.00  0.00    +0.000 HD
ENDBRANCH   3   4
BRANCH   3  15
ATOM     15  C   UNL     1      45.415   8.367  12.544  0.00  0.00    +0.000 C 
BRANCH  15  17
ATOM     16  C   UNL     1      43.771   9.419  10.962  0.00  0.00    +0.000 C 
ATOM     17  C   UNL     1      44.996   9.663  11.838  0.00  0.00    +0.000 C 
ENDBRANCH  15  17
ENDBRANCH   3  15
ENDBRANCH   1   3
BRANCH   1  18
ATOM     18  C   UNL     1      48.149   8.082  12.290  0.00  0.00    +0.000 C 
BRANCH  18  19
ATOM     19  C   UNL     1      48.983   7.686  13.476  0.00  0.00    +0.000 A 
ATOM     20  C   UNL     1      50.312   8.104  13.614  0.00  0.00    +0.000 A 
ATOM     21  C   UNL     1      51.033   7.744  14.749  0.00  0.00    +0.000 A 
ATOM     22  C   UNL     1      50.424   6.996  15.769  0.00  0.00    +0.000 A 
ATOM     23  C   UNL     1      49.101   6.576  15.626  0.00  0.00    +0.000 A 
ATOM     24  C   UNL     1      48.389   6.918  14.486  0.00  0.00    +0.000 A 
BRANCH  22  25
ATOM     25  C   UNL     1      51.172   6.680  17.041  0.00  0.00    +0.000 C 
BRANCH  25  26
ATOM     26  N   UNL     1      51.888   5.394  16.960  0.00  0.00    +0.000 NA
ATOM     27  C   UNL     1      53.339   5.575  17.081  0.00  0.00    +0.000 C 
BRANCH  26  28
ATOM     28  C   UNL     1      51.414   4.491  18.029  0.00  0.00    +0.000 C 
BRANCH  28  29
ATOM     29  C   UNL     1      50.025   3.924  17.786  0.00  0.00    +0.000 A 
ATOM     30  C   UNL     1      48.948   4.338  18.569  0.00  0.00    +0.000 A 
ATOM     31  C   UNL     1      47.687   3.812  18.308  0.00  0.00    +0.000 A 
ATOM     32  C   UNL     1      47.537   2.883  17.285  0.00  0.00    +0.000 A 
ATOM     33  C   UNL     1      48.661   2.506  16.572  0.00  0.00    +0.000 A 
ATOM     34  N   UNL     1      49.896   3.005  16.796  0.00  0.00    +0.000 NA
ENDBRANCH  28  29
ENDBRANCH  26  28
ENDBRANCH  25  26
ENDBRANCH  22  25
ENDBRANCH  18  19
ENDBRANCH   1  18
TORSDOF 10
ENDMDL
MODEL 6
REMARK VINA RESULT:    -6.647      2.582      3.626
REMARK INTER + INTRA:         -11.704
REMARK INTER:                 -10.467
REMARK INTRA:                  -1.237
REMARK UNBOUND:                -1.171
REMARK  Name = 
REMARK  12 active torsions:
REMARK  status: ('A' for Active; 'I' for Inactive)
REMARK    1  A    between atoms: C_1  and  C_2
REMARK    2  A    between atoms: C_2  and  C_3
REMARK    3  A    between atoms: C_3  and  C_4
REMARK    4  A    between atoms: C_4  and  N_5
REMARK    5  A    between atoms: C_4  and  C_23
REMARK    6  A    between atoms: N_5  and  C_6
REMARK    7  A    between atoms: C_6  and  C_7
REMARK    8  A    between atoms: C_10  and  C_11
REMARK    9  A    between atoms: C_11  and  N_12
REMARK   10  A    between atoms: N_12  and  C_13
REMARK   11  A    between atoms: N_12  and  C_14
REMARK   12  A    between atoms: C_14  and  C_15
REMARK                            x       y       z     vdW  Elec       q    Type
REMARK                         _______ _______ _______ _____ _____    ______ ____
ROOT
ATOM      1  N   UNL     1      48.246   6.510  16.160  0.00  0.00    +0.000 NA
ATOM      2  H   UNL     1      47.756   7.352  16.450  0.00  0.00    +0.000 HD
ENDROOT
BRANCH   1   3
ATOM      3  C   UNL     1      49.315   6.197  17.115  0.00  0.00    +0.000 C 
BRANCH   3   4
ATOM      4  C   UNL     1      49.039   6.951  18.418  0.00  0.00    +0.000 A 
ATOM      5  C   UNL     1      47.785   7.351  18.853  0.00  0.00    +0.000 A 
ATOM      6  S   UNL     1      47.805   8.185  20.339  0.00  0.00    +0.000 S 
ATOM      7  C   UNL     1      49.488   8.005  20.476  0.00  0.00    +0.000 A 
ATOM      8  N   UNL     1      50.145   8.432  21.587  0.00  0.00    +0.000 NA
ATOM      9  C   UNL     1      51.417   8.214  21.559  0.00  0.00    +0.000 A 
ATOM     10  N   UNL     1      52.097   7.644  20.510  0.00  0.00    +0.000 N 
ATOM     11  C   UNL     1      51.483   7.254  19.341  0.00  0.00    +0.000 A 
ATOM     12  O   UNL     1      52.141   6.824  18.394  0.00  0.00    +0.000 OA
ATOM     13  C   UNL     1      50.040   7.387  19.365  0.00  0.00    +0.000 A 
ATOM     14  H   UNL     1      53.099   7.540  20.539  0.00  0.00    +0.000 HD
ENDBRANCH   3   4
BRANCH   3  15
ATOM     15  C   UNL     1      49.543   4.677  17.354  0.00  0.00    +0.000 C 
BRANCH  15  17
ATOM     16  C   UNL     1      48.352   2.624  16.531  0.00  0.00    +0.000 C 
ATOM     17  C   UNL     1      48.266   3.833  17.456  0.00  0.00    +0.000 C 
ENDBRANCH  15  17
ENDBRANCH   3  15
ENDBRANCH   1   3
BRANCH   1  18
ATOM     18  C   UNL     1      48.708   6.647  14.785  0.00  0.00    +0.000 C 
BRANCH  18  19
ATOM     19  C   UNL     1      47.669   6.229  13.783  0.00  0.00    +0.000 A 
ATOM     20  C   UNL     1      46.921   5.056  13.943  0.00  0.00    +0.000 A 
ATOM     21  C   UNL     1      45.942   4.729  13.008  0.00  0.00    +0.000 A 
ATOM     22  C   UNL     1      45.678   5.587  11.929  0.00  0.00    +0.000 A 
ATOM     23  C   UNL     1      46.429   6.753  11.768  0.00  0.00    +0.000 A 
ATOM     24  C   UNL     1      47.417   7.068  12.689  0.00  0.00    +0.000 A 
BRANCH  22  25
ATOM     25  C   UNL     1      44.558   5.285  10.964  0.00  0.00    +0.000 C 
BRANCH  25  26
ATOM     26  N   UNL     1      44.554   3.872  10.542  0.00  0.00    +0.000 NA
ATOM     27  C   UNL     1      43.517   3.103  11.239  0.00  0.00    +0.000 C 
BRANCH  26  28
ATOM     28  C   UNL     1      44.332   3.788   9.083  0.00  0.00    +0.000 C 
BRANCH  28  29
ATOM     29  C   UNL     1      45.471   3.129   8.323  0.00  0.00    +0.000 A 
ATOM     30  C   UNL     1      45.722   1.766   8.474  0.00  0.00    +0.000 A 
ATOM     31  C   UNL     1      46.761   1.191   7.749  0.00  0.00    +0.000 A 
ATOM     32  C   UNL     1      47.525   1.990   6.906  0.00  0.00    +0.000 A 
ATOM     33  C   UNL     1      47.226   3.339   6.833  0.00  0.00    +0.000 A 
ATOM     34  N   UNL     1      46.219   3.925   7.517  0.00  0.00    +0.000 NA
ENDBRANCH  28  29
ENDBRANCH  26  28
ENDBRANCH  25  26
ENDBRANCH  22  25
ENDBRANCH  18  19
ENDBRANCH   1  18
TORSDOF 10
ENDMDL
MODEL 7
REMARK VINA RESULT:    -6.504      2.996      4.762
REMARK INTER + INTRA:         -11.477
REMARK INTER:                 -10.242
REMARK INTRA:                  -1.235
REMARK UNBOUND:                -1.171
REMARK  Name = 
REMARK  12 active torsions:
REMARK  status: ('A' for Active; 'I' for Inactive)
REMARK    1  A    between atoms: C_1  and  C_2
REMARK    2  A    between atoms: C_2  and  C_3
REMARK    3  A    between atoms: C_3  and  C_4
REMARK    4  A    between atoms: C_4  and  N_5
REMARK    5  A    between atoms: C_4  and  C_23
REMARK    6  A    between atoms: N_5  and  C_6
REMARK    7  A    between atoms: C_6  and  C_7
REMARK    8  A    between atoms: C_10  and  C_11
REMARK    9  A    between atoms: C_11  and  N_12
REMARK   10  A    between atoms: N_12  and  C_13
REMARK   11  A    between atoms: N_12  and  C_14
REMARK   12  A    between atoms: C_14  and  C_15
REMARK                            x       y       z     vdW  Elec       q    Type
REMARK                         _______ _______ _______ _____ _____    ______ ____
ROOT
ATOM      1  N   UNL     1      48.473   7.076  15.933  0.00  0.00    +0.000 NA
ATOM      2  H   UNL     1      48.805   7.589  15.121  0.00  0.00    +0.000 HD
ENDROOT
BRANCH   1   3
ATOM      3  C   UNL     1      49.464   7.150  17.012  0.00  0.00    +0.000 C 
BRANCH   3   4
ATOM      4  C   UNL     1      48.739   7.492  18.316  0.00  0.00    +0.000 A 
ATOM      5  C   UNL     1      48.581   6.626  19.387  0.00  0.00    +0.000 A 
ATOM      6  S   UNL     1      47.712   7.295  20.691  0.00  0.00    +0.000 S 
ATOM      7  C   UNL     1      47.551   8.782  19.888  0.00  0.00    +0.000 A 
ATOM      8  N   UNL     1      46.967   9.845  20.503  0.00  0.00    +0.000 NA
ATOM      9  C   UNL     1      46.929  10.913  19.778  0.00  0.00    +0.000 A 
ATOM     10  N   UNL     1      47.386  11.007  18.486  0.00  0.00    +0.000 N 
ATOM     11  C   UNL     1      47.927   9.941  17.803  0.00  0.00    +0.000 A 
ATOM     12  O   UNL     1      48.249  10.046  16.619  0.00  0.00    +0.000 OA
ATOM     13  C   UNL     1      48.082   8.746  18.609  0.00  0.00    +0.000 A 
ATOM     14  H   UNL     1      47.289  11.863  17.964  0.00  0.00    +0.000 HD
ENDBRANCH   3   4
BRANCH   3  15
ATOM     15  C   UNL     1      50.361   5.887  17.154  0.00  0.00    +0.000 C 
BRANCH  15  17
ATOM     16  C   UNL     1      52.048   7.484  16.198  0.00  0.00    +0.000 C 
ATOM     17  C   UNL     1      51.827   6.079  16.748  0.00  0.00    +0.000 C 
ENDBRANCH  15  17
ENDBRANCH   3  15
ENDBRANCH   1   3
BRANCH   1  18
ATOM     18  C   UNL     1      48.116   5.715  15.555  0.00  0.00    +0.000 C 
BRANCH  18  19
ATOM     19  C   UNL     1      47.457   5.643  14.206  0.00  0.00    +0.000 A 
ATOM     20  C   UNL     1      46.615   4.582  13.853  0.00  0.00    +0.000 A 
ATOM     21  C   UNL     1      45.996   4.579  12.606  0.00  0.00    +0.000 A 
ATOM     22  C   UNL     1      46.184   5.650  11.718  0.00  0.00    +0.000 A 
ATOM     23  C   UNL     1      47.028   6.704  12.071  0.00  0.00    +0.000 A 
ATOM     24  C   UNL     1      47.660   6.697  13.305  0.00  0.00    +0.000 A 
BRANCH  22  25
ATOM     25  C   UNL     1      45.446   5.696  10.403  0.00  0.00    +0.000 C 
BRANCH  25  26
ATOM     26  N   UNL     1      44.510   4.566  10.251  0.00  0.00    +0.000 NA
ATOM     27  C   UNL     1      43.210   4.854  10.866  0.00  0.00    +0.000 C 
BRANCH  26  28
ATOM     28  C   UNL     1      44.321   4.266   8.816  0.00  0.00    +0.000 C 
BRANCH  28  29
ATOM     29  C   UNL     1      45.396   3.369   8.226  0.00  0.00    +0.000 A 
ATOM     30  C   UNL     1      45.493   2.034   8.619  0.00  0.00    +0.000 A 
ATOM     31  C   UNL     1      46.477   1.236   8.046  0.00  0.00    +0.000 A 
ATOM     32  C   UNL     1      47.341   1.790   7.109  0.00  0.00    +0.000 A 
ATOM     33  C   UNL     1      47.194   3.129   6.794  0.00  0.00    +0.000 A 
ATOM     34  N   UNL     1      46.244   3.928   7.326  0.00  0.00    +0.000 NA
ENDBRANCH  28  29
ENDBRANCH  26  28
ENDBRANCH  25  26
ENDBRANCH  22  25
ENDBRANCH  18  19
ENDBRANCH   1  18
TORSDOF 10
ENDMDL
MODEL 8
REMARK VINA RESULT:    -6.364      2.426      3.491
REMARK INTER + INTRA:         -11.256
REMARK INTER:                 -10.238
REMARK INTRA:                  -1.017
REMARK UNBOUND:                -1.171
REMARK  Name = 
REMARK  12 active torsions:
REMARK  status: ('A' for Active; 'I' for Inactive)
REMARK    1  A    between atoms: C_1  and  C_2
REMARK    2  A    between atoms: C_2  and  C_3
REMARK    3  A    between atoms: C_3  and  C_4
REMARK    4  A    between atoms: C_4  and  N_5
REMARK    5  A    between atoms: C_4  and  C_23
REMARK    6  A    between atoms: N_5  and  C_6
REMARK    7  A    between atoms: C_6  and  C_7
REMARK    8  A    between atoms: C_10  and  C_11
REMARK    9  A    between atoms: C_11  and  N_12
REMARK   10  A    between atoms: N_12  and  C_13
REMARK   11  A    between atoms: N_12  and  C_14
REMARK   12  A    between atoms: C_14  and  C_15
REMARK                            x       y       z     vdW  Elec       q    Type
REMARK                         _______ _______ _______ _____ _____    ______ ____
ROOT
ATOM      1  N   UNL     1      48.452   7.527  15.997  0.00  0.00    +0.000 NA
ATOM      2  H   UNL     1      48.417   8.165  15.207  0.00  0.00    +0.000 HD
ENDROOT
BRANCH   1   3
ATOM      3  C   UNL     1      49.609   7.840  16.843  0.00  0.00    +0.000 C 
BRANCH   3   4
ATOM      4  C   UNL     1      49.868   6.652  17.773  0.00  0.00    +0.000 A 
ATOM      5  C   UNL     1      50.901   5.740  17.626  0.00  0.00    +0.000 A 
ATOM      6  S   UNL     1      50.915   4.519  18.815  0.00  0.00    +0.000 S 
ATOM      7  C   UNL     1      49.564   5.190  19.594  0.00  0.00    +0.000 A 
ATOM      8  N   UNL     1      49.100   4.662  20.758  0.00  0.00    +0.000 NA
ATOM      9  C   UNL     1      48.079   5.285  21.244  0.00  0.00    +0.000 A 
ATOM     10  N   UNL     1      47.457   6.360  20.657  0.00  0.00    +0.000 N 
ATOM     11  C   UNL     1      47.854   6.888  19.448  0.00  0.00    +0.000 A 
ATOM     12  O   UNL     1      47.219   7.799  18.917  0.00  0.00    +0.000 OA
ATOM     13  C   UNL     1      49.058   6.285  18.913  0.00  0.00    +0.000 A 
ATOM     14  H   UNL     1      46.638   6.774  21.072  0.00  0.00    +0.000 HD
ENDBRANCH   3   4
BRANCH   3  15
ATOM     15  C   UNL     1      50.887   8.262  16.062  0.00  0.00    +0.000 C 
BRANCH  15  17
ATOM     16  C   UNL     1      50.299  10.316  14.741  0.00  0.00    +0.000 C 
ATOM     17  C   UNL     1      50.636   8.831  14.660  0.00  0.00    +0.000 C 
ENDBRANCH  15  17
ENDBRANCH   3  15
ENDBRANCH   1   3
BRANCH   1  18
ATOM     18  C   UNL     1      48.422   6.147  15.530  0.00  0.00    +0.000 C 
BRANCH  18  19
ATOM     19  C   UNL     1      47.682   5.993  14.231  0.00  0.00    +0.000 A 
ATOM     20  C   UNL     1      46.865   4.886  13.976  0.00  0.00    +0.000 A 
ATOM     21  C   UNL     1      46.168   4.805  12.773  0.00  0.00    +0.000 A 
ATOM     22  C   UNL     1      46.253   5.845  11.833  0.00  0.00    +0.000 A 
ATOM     23  C   UNL     1      47.073   6.946  12.088  0.00  0.00    +0.000 A 
ATOM     24  C   UNL     1      47.782   7.016  13.278  0.00  0.00    +0.000 A 
BRANCH  22  25
ATOM     25  C   UNL     1      45.431   5.807  10.569  0.00  0.00    +0.000 C 
BRANCH  25  26
ATOM     26  N   UNL     1      44.389   4.764  10.614  0.00  0.00    +0.000 NA
ATOM     27  C   UNL     1      43.180   5.237  11.297  0.00  0.00    +0.000 C 
BRANCH  26  28
ATOM     28  C   UNL     1      44.046   4.343   9.240  0.00  0.00    +0.000 C 
BRANCH  28  29
ATOM     29  C   UNL     1      45.131   3.529   8.555  0.00  0.00    +0.000 A 
ATOM     30  C   UNL     1      45.282   2.173   8.844  0.00  0.00    +0.000 A 
ATOM     31  C   UNL     1      46.274   1.453   8.185  0.00  0.00    +0.000 A 
ATOM     32  C   UNL     1      47.091   2.104   7.269  0.00  0.00    +0.000 A 
ATOM     33  C   UNL     1      46.891   3.457   7.059  0.00  0.00    +0.000 A 
ATOM     34  N   UNL     1      45.933   4.182   7.675  0.00  0.00    +0.000 NA
ENDBRANCH  28  29
ENDBRANCH  26  28
ENDBRANCH  25  26
ENDBRANCH  22  25
ENDBRANCH  18  19
ENDBRANCH   1  18
TORSDOF 10
ENDMDL
MODEL 9
REMARK VINA RESULT:    -6.353      3.464      8.951
REMARK INTER + INTRA:         -11.238
REMARK INTER:                 -10.021
REMARK INTRA:                  -1.217
REMARK UNBOUND:                -1.171
REMARK  Name = 
REMARK  12 active torsions:
REMARK  status: ('A' for Active; 'I' for Inactive)
REMARK    1  A    between atoms: C_1  and  C_2
REMARK    2  A    between atoms: C_2  and  C_3
REMARK    3  A    between atoms: C_3  and  C_4
REMARK    4  A    between atoms: C_4  and  N_5
REMARK    5  A    between atoms: C_4  and  C_23
REMARK    6  A    between atoms: N_5  and  C_6
REMARK    7  A    between atoms: C_6  and  C_7
REMARK    8  A    between atoms: C_10  and  C_11
REMARK    9  A    between atoms: C_11  and  N_12
REMARK   10  A    between atoms: N_12  and  C_13
REMARK   11  A    between atoms: N_12  and  C_14
REMARK   12  A    between atoms: C_14  and  C_15
REMARK                            x       y       z     vdW  Elec       q    Type
REMARK                         _______ _______ _______ _____ _____    ______ ____
ROOT
ATOM      1  N   UNL     1      47.245   6.535  12.099  0.00  0.00    +0.000 NA
ATOM      2  H   UNL     1      47.695   5.720  11.693  0.00  0.00    +0.000 HD
ENDROOT
BRANCH   1   3
ATOM      3  C   UNL     1      46.116   6.953  11.260  0.00  0.00    +0.000 C 
BRANCH   3   4
ATOM      4  C   UNL     1      45.489   5.706  10.631  0.00  0.00    +0.000 A 
ATOM      5  C   UNL     1      45.552   5.379   9.285  0.00  0.00    +0.000 A 
ATOM      6  S   UNL     1      44.742   3.933   8.890  0.00  0.00    +0.000 S 
ATOM      7  C   UNL     1      44.313   3.669  10.511  0.00  0.00    +0.000 A 
ATOM      8  N   UNL     1      43.664   2.534  10.883  0.00  0.00    +0.000 NA
ATOM      9  C   UNL     1      43.418   2.462  12.148  0.00  0.00    +0.000 A 
ATOM     10  N   UNL     1      43.725   3.434  13.069  0.00  0.00    +0.000 N 
ATOM     11  C   UNL     1      44.325   4.626  12.728  0.00  0.00    +0.000 A 
ATOM     12  O   UNL     1      44.509   5.505  13.571  0.00  0.00    +0.000 OA
ATOM     13  C   UNL     1      44.712   4.710  11.334  0.00  0.00    +0.000 A 
ATOM     14  H   UNL     1      43.468   3.330  14.037  0.00  0.00    +0.000 HD
ENDBRANCH   3   4
BRANCH   3  15
ATOM     15  C   UNL     1      45.061   7.836  11.988  0.00  0.00    +0.000 C 
BRANCH  15  17
ATOM     16  C   UNL     1      45.628  10.274  11.781  0.00  0.00    +0.000 C 
ATOM     17  C   UNL     1      44.718   9.155  11.287  0.00  0.00    +0.000 C 
ENDBRANCH  15  17
ENDBRANCH   3  15
ENDBRANCH   1   3
BRANCH   1  18
ATOM     18  C   UNL     1      48.224   7.588  12.333  0.00  0.00    +0.000 C 
BRANCH  18  19
ATOM     19  C   UNL     1      48.980   7.398  13.618  0.00  0.00    +0.000 A 
ATOM     20  C   UNL     1      48.420   6.720  14.708  0.00  0.00    +0.000 A 
ATOM     21  C   UNL     1      49.172   6.536  15.865  0.00  0.00    +0.000 A 
ATOM     22  C   UNL     1      50.498   6.994  15.930  0.00  0.00    +0.000 A 
ATOM     23  C   UNL     1      51.051   7.674  14.844  0.00  0.00    +0.000 A 
ATOM     24  C   UNL     1      50.295   7.875  13.699  0.00  0.00    +0.000 A 
BRANCH  22  25
ATOM     25  C   UNL     1      51.347   6.718  17.146  0.00  0.00    +0.000 C 
BRANCH  25  26
ATOM     26  N   UNL     1      52.055   5.428  17.049  0.00  0.00    +0.000 NA
ATOM     27  C   UNL     1      53.510   5.604  17.121  0.00  0.00    +0.000 C 
BRANCH  26  28
ATOM     28  C   UNL     1      51.613   4.534  18.140  0.00  0.00    +0.000 C 
BRANCH  28  29
ATOM     29  C   UNL     1      50.244   3.915  17.912  0.00  0.00    +0.000 A 
ATOM     30  C   UNL     1      49.163   4.284  18.712  0.00  0.00    +0.000 A 
ATOM     31  C   UNL     1      47.920   3.710  18.466  0.00  0.00    +0.000 A 
ATOM     32  C   UNL     1      47.791   2.781  17.440  0.00  0.00    +0.000 A 
ATOM     33  C   UNL     1      48.919   2.451  16.710  0.00  0.00    +0.000 A 
ATOM     34  N   UNL     1      50.138   2.996  16.920  0.00  0.00    +0.000 NA
ENDBRANCH  28  29
ENDBRANCH  26  28
ENDBRANCH  25  26
ENDBRANCH  22  25
ENDBRANCH  18  19
ENDBRANCH   1  18
TORSDOF 10
ENDMDL
