MODEL 1
REMARK VINA RESULT:    -8.004      0.000      0.000
REMARK INTER + INTRA:         -12.090
REMARK INTER:                 -11.280
REMARK INTRA:                  -0.811
REMARK UNBOUND:                -0.811
REMARK  Name = 
REMARK  7 active torsions:
REMARK  status: ('A' for Active; 'I' for Inactive)
REMARK    1  A    between atoms: C_2  and  C_11
REMARK    2  A    between atoms: N_3  and  C_4
REMARK    3  A    between atoms: C_4  and  C_5
REMARK    4  A    between atoms: C_14  and  C_15
REMARK    5  A    between atoms: C_15  and  N_16
REMARK    6  A    between atoms: N_16  and  C_17
REMARK    7  A    between atoms: C_17  and  C_18
REMARK                            x       y       z     vdW  Elec       q    Type
REMARK                         _______ _______ _______ _____ _____    ______ ____
ROOT
ATOM      1  C   UNL     1      46.711   5.459  13.279  0.00  0.00    +0.000 A 
ATOM      2  C   UNL     1      46.089   4.205  13.315  0.00  0.00    +0.000 A 
ATOM      3  C   UNL     1      45.059   3.898  12.421  0.00  0.00    +0.000 A 
ATOM      4  C   UNL     1      44.638   4.834  11.465  0.00  0.00    +0.000 A 
ATOM      5  C   UNL     1      45.279   6.080  11.418  0.00  0.00    +0.000 A 
ATOM      6  C   UNL     1      46.313   6.390  12.312  0.00  0.00    +0.000 A 
ENDROOT
BRANCH   1   8
ATOM      7  O   UNL     1      48.845   6.230  13.915  0.00  0.00    +0.000 OA
ATOM      8  C   UNL     1      47.782   5.742  14.279  0.00  0.00    +0.000 C 
ATOM      9  N   UNL     1      47.514   5.385  15.586  0.00  0.00    +0.000 N 
ATOM     10  H   UNL     1      46.644   4.926  15.815  0.00  0.00    +0.000 HD
BRANCH   9  11
ATOM     11  C   UNL     1      48.490   5.545  16.651  0.00  0.00    +0.000 C 
BRANCH  11  12
ATOM     12  C   UNL     1      48.278   4.530  17.793  0.00  0.00    +0.000 C 
ATOM     13  C   UNL     1      49.549   4.398  18.653  0.00  0.00    +0.000 C 
ATOM     14  C   UNL     1      50.642   3.584  17.959  0.00  0.00    +0.000 C 
ATOM     15  N   UNL     1      50.161   2.259  17.572  0.00  0.00    +0.000 NA
ATOM     16  C   UNL     1      49.010   2.356  16.670  0.00  0.00    +0.000 C 
ATOM     17  C   UNL     1      47.858   3.132  17.307  0.00  0.00    +0.000 C 
ATOM     18  H   UNL     1      49.885   1.744  18.408  0.00  0.00    +0.000 HD
ENDBRANCH  11  12
ENDBRANCH   9  11
ENDBRANCH   1   8
BRANCH   4  19
ATOM     19  C   UNL     1      43.544   4.487  10.475  0.00  0.00    +0.000 C 
BRANCH  19  20
ATOM     20  N   UNL     1      43.975   3.451   9.540  0.00  0.00    +0.000 NA
ATOM     21  H   UNL     1      43.154   2.971   9.171  0.00  0.00    +0.000 HD
BRANCH  20  22
ATOM     22  C   UNL     1      44.742   4.015   8.429  0.00  0.00    +0.000 C 
BRANCH  22  23
ATOM     23  C   UNL     1      45.729   3.013   7.892  0.00  0.00    +0.000 A 
ATOM     24  C   UNL     1      46.608   3.342   6.854  0.00  0.00    +0.000 A 
ATOM     25  C   UNL     1      47.518   2.396   6.390  0.00  0.00    +0.000 A 
ATOM     26  C   UNL     1      47.515   1.142   6.975  0.00  0.00    +0.000 A 
ATOM     27  N   UNL     1      46.674   0.779   7.967  0.00  0.00    +0.000 NA
ATOM     28  C   UNL     1      45.802   1.720   8.400  0.00  0.00    +0.000 A 
ENDBRANCH  22  23
ENDBRANCH  20  22
ENDBRANCH  19  20
ENDBRANCH   4  19
TORSDOF 7
ENDMDL
MODEL 2
REMARK VINA RESULT:    -7.605      1.411      2.136
REMARK INTER + INTRA:         -11.527
REMARK INTER:                 -10.646
REMARK INTRA:                  -0.882
REMARK UNBOUND:                -0.811
REMARK  Name = 
REMARK  7 active torsions:
REMARK  status: ('A' for Active; 'I' for Inactive)
REMARK    1  A    between atoms: C_2  and  C_11
REMARK    2  A    between atoms: N_3  and  C_4
REMARK    3  A    between atoms: C_4  and  C_5
REMARK    4  A    between atoms: C_14  and  C_15
REMARK    5  A    between atoms: C_15  and  N_16
REMARK    6  A    between atoms: N_16  and  C_17
REMARK    7  A    between atoms: C_17  and  C_18
REMARK                            x       y       z     vdW  Elec       q    Type
REMARK                         _______ _______ _______ _____ _____    ______ ____
ROOT
ATOM      1  C   UNL     1      46.840   5.744  13.061  0.00  0.00    +0.000 A 
ATOM      2  C   UNL     1      46.734   6.406  11.832  0.00  0.00    +0.000 A 
ATOM      3  C   UNL     1      45.697   6.094  10.945  0.00  0.00    +0.000 A 
ATOM      4  C   UNL     1      44.740   5.123  11.276  0.00  0.00    +0.000 A 
ATOM      5  C   UNL     1      44.838   4.480  12.518  0.00  0.00    +0.000 A 
ATOM      6  C   UNL     1      45.874   4.792  13.409  0.00  0.00    +0.000 A 
ENDROOT
BRANCH   1   8
ATOM      7  O   UNL     1      49.047   6.466  13.466  0.00  0.00    +0.000 OA
ATOM      8  C   UNL     1      47.984   6.095  13.952  0.00  0.00    +0.000 C 
ATOM      9  N   UNL     1      47.783   5.934  15.309  0.00  0.00    +0.000 N 
ATOM     10  H   UNL     1      46.906   5.562  15.646  0.00  0.00    +0.000 HD
BRANCH   9  11
ATOM     11  C   UNL     1      48.830   6.177  16.285  0.00  0.00    +0.000 C 
BRANCH  11  12
ATOM     12  C   UNL     1      48.932   5.044  17.326  0.00  0.00    +0.000 C 
ATOM     13  C   UNL     1      47.546   4.703  17.904  0.00  0.00    +0.000 C 
ATOM     14  C   UNL     1      47.056   5.752  18.904  0.00  0.00    +0.000 C 
ATOM     15  N   UNL     1      48.016   5.949  19.989  0.00  0.00    +0.000 NA
ATOM     16  C   UNL     1      49.319   6.373  19.472  0.00  0.00    +0.000 C 
ATOM     17  C   UNL     1      49.892   5.356  18.486  0.00  0.00    +0.000 C 
ATOM     18  H   UNL     1      48.129   5.074  20.500  0.00  0.00    +0.000 HD
ENDBRANCH  11  12
ENDBRANCH   9  11
ENDBRANCH   1   8
BRANCH   4  19
ATOM     19  C   UNL     1      43.600   4.811  10.329  0.00  0.00    +0.000 C 
BRANCH  19  20
ATOM     20  N   UNL     1      44.090   4.317   9.044  0.00  0.00    +0.000 NA
ATOM     21  H   UNL     1      44.903   4.865   8.763  0.00  0.00    +0.000 HD
BRANCH  20  22
ATOM     22  C   UNL     1      44.465   2.905   9.118  0.00  0.00    +0.000 C 
BRANCH  22  23
ATOM     23  C   UNL     1      45.614   2.603   8.193  0.00  0.00    +0.000 A 
ATOM     24  C   UNL     1      46.111   3.570   7.312  0.00  0.00    +0.000 A 
ATOM     25  C   UNL     1      47.183   3.264   6.479  0.00  0.00    +0.000 A 
ATOM     26  C   UNL     1      47.722   1.991   6.548  0.00  0.00    +0.000 A 
ATOM     27  N   UNL     1      47.263   1.025   7.371  0.00  0.00    +0.000 NA
ATOM     28  C   UNL     1      46.221   1.352   8.171  0.00  0.00    +0.000 A 
ENDBRANCH  22  23
ENDBRANCH  20  22
ENDBRANCH  19  20
ENDBRANCH   4  19
TORSDOF 7
ENDMDL
MODEL 3
REMARK VINA RESULT:    -7.498      1.732      2.477
REMARK INTER + INTRA:         -11.377
REMARK INTER:                 -10.644
REMARK INTRA:                  -0.733
REMARK UNBOUND:                -0.811
REMARK  Name = 
REMARK  7 active torsions:
REMARK  status: ('A' for Active; 'I' for Inactive)
REMARK    1  A    between atoms: C_2  and  C_11
REMARK    2  A    between atoms: N_3  and  C_4
REMARK    3  A    between atoms: C_4  and  C_5
REMARK    4  A    between atoms: C_14  and  C_15
REMARK    5  A    between atoms: C_15  and  N_16
REMARK    6  A    between atoms: N_16  and  C_17
REMARK    7  A    between atoms: C_17  and  C_18
REMARK                            x       y       z     vdW  Elec       q    Type
REMARK                         _______ _______ _______ _____ _____    ______ ____
ROOT
ATOM      1  C   UNL     1      46.628   4.324  13.902  0.00  0.00    +0.000 A 
ATOM      2  C   UNL     1      46.917   5.619  13.455  0.00  0.00    +0.000 A 
ATOM      3  C   UNL     1      46.379   6.091  12.253  0.00  0.00    +0.000 A 
ATOM      4  C   UNL     1      45.533   5.282  11.480  0.00  0.00    +0.000 A 
ATOM      5  C   UNL     1      45.229   3.994  11.944  0.00  0.00    +0.000 A 
ATOM      6  C   UNL     1      45.765   3.519  13.149  0.00  0.00    +0.000 A 
ENDROOT
BRANCH   1   8
ATOM      7  O   UNL     1      47.887   2.812  15.200  0.00  0.00    +0.000 OA
ATOM      8  C   UNL     1      47.257   3.863  15.174  0.00  0.00    +0.000 C 
ATOM      9  N   UNL     1      47.046   4.652  16.288  0.00  0.00    +0.000 N 
ATOM     10  H   UNL     1      46.462   5.475  16.218  0.00  0.00    +0.000 HD
BRANCH   9  11
ATOM     11  C   UNL     1      47.545   4.292  17.603  0.00  0.00    +0.000 C 
BRANCH  11  12
ATOM     12  C   UNL     1      48.777   5.125  18.007  0.00  0.00    +0.000 C 
ATOM     13  C   UNL     1      49.192   4.824  19.460  0.00  0.00    +0.000 C 
ATOM     14  C   UNL     1      48.257   5.475  20.481  0.00  0.00    +0.000 C 
ATOM     15  N   UNL     1      48.161   6.919  20.278  0.00  0.00    +0.000 NA
ATOM     16  C   UNL     1      47.672   7.233  18.933  0.00  0.00    +0.000 C 
ATOM     17  C   UNL     1      48.576   6.642  17.852  0.00  0.00    +0.000 C 
ATOM     18  H   UNL     1      49.083   7.337  20.402  0.00  0.00    +0.000 HD
ENDBRANCH  11  12
ENDBRANCH   9  11
ENDBRANCH   1   8
BRANCH   4  19
ATOM     19  C   UNL     1      44.926   5.807  10.196  0.00  0.00    +0.000 C 
BRANCH  19  20
ATOM     20  N   UNL     1      45.594   5.254   9.020  0.00  0.00    +0.000 NA
ATOM     21  H   UNL     1      46.520   4.921   9.288  0.00  0.00    +0.000 HD
BRANCH  20  22
ATOM     22  C   UNL     1      44.834   4.145   8.442  0.00  0.00    +0.000 C 
BRANCH  22  23
ATOM     23  C   UNL     1      45.756   3.077   7.917  0.00  0.00    +0.000 A 
ATOM     24  C   UNL     1      46.649   3.336   6.870  0.00  0.00    +0.000 A 
ATOM     25  C   UNL     1      47.497   2.331   6.417  0.00  0.00    +0.000 A 
ATOM     26  C   UNL     1      47.421   1.088   7.021  0.00  0.00    +0.000 A 
ATOM     27  N   UNL     1      46.564   0.791   8.021  0.00  0.00    +0.000 NA
ATOM     28  C   UNL     1      45.753   1.790   8.443  0.00  0.00    +0.000 A 
ENDBRANCH  22  23
ENDBRANCH  20  22
ENDBRANCH  19  20
ENDBRANCH   4  19
TORSDOF 7
ENDMDL
MODEL 4
REMARK VINA RESULT:    -6.804      1.851      2.504
REMARK INTER + INTRA:         -10.398
REMARK INTER:                  -9.463
REMARK INTRA:                  -0.935
REMARK UNBOUND:                -0.811
REMARK  Name = 
REMARK  7 active torsions:
REMARK  status: ('A' for Active; 'I' for Inactive)
REMARK    1  A    between atoms: C_2  and  C_11
REMARK    2  A    between atoms: N_3  and  C_4
REMARK    3  A    between atoms: C_4  and  C_5
REMARK    4  A    between atoms: C_14  and  C_15
REMARK    5  A    between atoms: C_15  and  N_16
REMARK    6  A    between atoms: N_16  and  C_17
REMARK    7  A    between atoms: C_17  and  C_18
REMARK                            x       y       z     vdW  Elec       q    Type
REMARK                         _______ _______ _______ _____ _____    ______ ____
ROOT
ATOM      1  C   UNL     1      46.738   6.145  13.256  0.00  0.00    +0.000 A 
ATOM      2  C   UNL     1      46.057   6.874  12.274  0.00  0.00    +0.000 A 
ATOM      3  C   UNL     1      44.910   6.349  11.668  0.00  0.00    +0.000 A 
ATOM      4  C   UNL     1      44.416   5.090  12.040  0.00  0.00    +0.000 A 
ATOM      5  C   UNL     1      45.090   4.374  13.040  0.00  0.00    +0.000 A 
ATOM      6  C   UNL     1      46.237   4.898  13.651  0.00  0.00    +0.000 A 
ENDROOT
BRANCH   1   8
ATOM      7  O   UNL     1      49.074   6.403  13.426  0.00  0.00    +0.000 OA
ATOM      8  C   UNL     1      47.973   6.741  13.844  0.00  0.00    +0.000 C 
ATOM      9  N   UNL     1      47.793   7.632  14.883  0.00  0.00    +0.000 N 
ATOM     10  H   UNL     1      46.862   7.823  15.227  0.00  0.00    +0.000 HD
BRANCH   9  11
ATOM     11  C   UNL     1      48.908   8.240  15.589  0.00  0.00    +0.000 C 
BRANCH  11  12
ATOM     12  C   UNL     1      48.915   7.880  17.088  0.00  0.00    +0.000 C 
ATOM     13  C   UNL     1      50.262   8.250  17.736  0.00  0.00    +0.000 C 
ATOM     14  C   UNL     1      51.377   7.272  17.364  0.00  0.00    +0.000 C 
ATOM     15  N   UNL     1      51.021   5.896  17.705  0.00  0.00    +0.000 NA
ATOM     16  C   UNL     1      49.793   5.483  17.021  0.00  0.00    +0.000 C 
ATOM     17  C   UNL     1      48.619   6.397  17.368  0.00  0.00    +0.000 C 
ATOM     18  H   UNL     1      50.880   5.825  18.712  0.00  0.00    +0.000 HD
ENDBRANCH  11  12
ENDBRANCH   9  11
ENDBRANCH   1   8
BRANCH   4  19
ATOM     19  C   UNL     1      43.156   4.538  11.406  0.00  0.00    +0.000 C 
BRANCH  19  20
ATOM     20  N   UNL     1      43.391   4.109  10.029  0.00  0.00    +0.000 NA
ATOM     21  H   UNL     1      43.917   4.833   9.539  0.00  0.00    +0.000 HD
BRANCH  20  22
ATOM     22  C   UNL     1      44.141   2.853   9.978  0.00  0.00    +0.000 C 
BRANCH  22  23
ATOM     23  C   UNL     1      45.208   2.906   8.916  0.00  0.00    +0.000 A 
ATOM     24  C   UNL     1      45.869   1.749   8.491  0.00  0.00    +0.000 A 
ATOM     25  C   UNL     1      46.840   1.830   7.498  0.00  0.00    +0.000 A 
ATOM     26  C   UNL     1      47.129   3.074   6.965  0.00  0.00    +0.000 A 
ATOM     27  N   UNL     1      46.527   4.217   7.358  0.00  0.00    +0.000 NA
ATOM     28  C   UNL     1      45.584   4.107   8.323  0.00  0.00    +0.000 A 
ENDBRANCH  22  23
ENDBRANCH  20  22
ENDBRANCH  19  20
ENDBRANCH   4  19
TORSDOF 7
ENDMDL
MODEL 5
REMARK VINA RESULT:    -6.542      2.931      8.872
REMARK INTER + INTRA:         -10.030
REMARK INTER:                  -9.533
REMARK INTRA:                  -0.497
REMARK UNBOUND:                -0.811
REMARK  Name = 
REMARK  7 active torsions:
REMARK  status: ('A' for Active; 'I' for Inactive)
REMARK    1  A    between atoms: C_2  and  C_11
REMARK    2  A    between atoms: N_3  and  C_4
REMARK    3  A    between atoms: C_4  and  C_5
REMARK    4  A    between atoms: C_14  and  C_15
REMARK    5  A    between atoms: C_15  and  N_16
REMARK    6  A    between atoms: N_16  and  C_17
REMARK    7  A    between atoms: C_17  and  C_18
REMARK                            x       y       z     vdW  Elec       q    Type
REMARK                         _______ _______ _______ _____ _____    ______ ____
ROOT
ATOM      1  C   UNL     1      47.535   4.387  15.888  0.00  0.00    +0.000 A 
ATOM      2  C   UNL     1      48.163   5.592  16.222  0.00  0.00    +0.000 A 
ATOM      3  C   UNL     1      48.726   5.771  17.490  0.00  0.00    +0.000 A 
ATOM      4  C   UNL     1      48.683   4.744  18.444  0.00  0.00    +0.000 A 
ATOM      5  C   UNL     1      48.072   3.530  18.096  0.00  0.00    +0.000 A 
ATOM      6  C   UNL     1      47.508   3.348  16.826  0.00  0.00    +0.000 A 
ENDROOT
BRANCH   1   8
ATOM      7  O   UNL     1      47.011   3.211  13.913  0.00  0.00    +0.000 OA
ATOM      8  C   UNL     1      46.923   4.266  14.532  0.00  0.00    +0.000 C 
ATOM      9  N   UNL     1      46.314   5.398  14.026  0.00  0.00    +0.000 N 
ATOM     10  H   UNL     1      46.330   6.257  14.557  0.00  0.00    +0.000 HD
BRANCH   9  11
ATOM     11  C   UNL     1      45.735   5.440  12.695  0.00  0.00    +0.000 C 
BRANCH  11  12
ATOM     12  C   UNL     1      44.198   5.559  12.732  0.00  0.00    +0.000 C 
ATOM     13  C   UNL     1      43.561   4.285  13.318  0.00  0.00    +0.000 C 
ATOM     14  C   UNL     1      43.575   3.118  12.329  0.00  0.00    +0.000 C 
ATOM     15  N   UNL     1      42.919   3.472  11.072  0.00  0.00    +0.000 NA
ATOM     16  C   UNL     1      43.569   4.623  10.441  0.00  0.00    +0.000 C 
ATOM     17  C   UNL     1      43.567   5.845  11.359  0.00  0.00    +0.000 C 
ATOM     18  H   UNL     1      41.943   3.701  11.255  0.00  0.00    +0.000 HD
ENDBRANCH  11  12
ENDBRANCH   9  11
ENDBRANCH   1   8
BRANCH   4  19
ATOM     19  C   UNL     1      49.322   4.927  19.805  0.00  0.00    +0.000 C 
BRANCH  19  20
ATOM     20  N   UNL     1      50.652   4.324  19.859  0.00  0.00    +0.000 NA
ATOM     21  H   UNL     1      50.562   3.339  20.106  0.00  0.00    +0.000 HD
BRANCH  20  22
ATOM     22  C   UNL     1      51.345   4.437  18.576  0.00  0.00    +0.000 C 
BRANCH  22  23
ATOM     23  C   UNL     1      51.960   3.120  18.179  0.00  0.00    +0.000 A 
ATOM     24  C   UNL     1      53.271   2.791  18.542  0.00  0.00    +0.000 A 
ATOM     25  C   UNL     1      53.804   1.560  18.172  0.00  0.00    +0.000 A 
ATOM     26  C   UNL     1      53.010   0.696  17.438  0.00  0.00    +0.000 A 
ATOM     27  N   UNL     1      51.747   0.981  17.054  0.00  0.00    +0.000 NA
ATOM     28  C   UNL     1      51.254   2.183  17.431  0.00  0.00    +0.000 A 
ENDBRANCH  22  23
ENDBRANCH  20  22
ENDBRANCH  19  20
ENDBRANCH   4  19
TORSDOF 7
ENDMDL
MODEL 6
REMARK VINA RESULT:    -6.534      2.812      9.161
REMARK INTER + INTRA:         -10.018
REMARK INTER:                  -8.955
REMARK INTRA:                  -1.064
REMARK UNBOUND:                -0.811
REMARK  Name = 
REMARK  7 active torsions:
REMARK  status: ('A' for Active; 'I' for Inactive)
REMARK    1  A    between atoms: C_2  and  C_11
REMARK    2  A    between atoms: N_3  and  C_4
REMARK    3  A    between atoms: C_4  and  C_5
REMARK    4  A    between atoms: C_14  and  C_15
REMARK    5  A    between atoms: C_15  and  N_16
REMARK    6  A    between atoms: N_16  and  C_17
REMARK    7  A    between atoms: C_17  and  C_18
REMARK                            x       y       z     vdW  Elec       q    Type
REMARK                         _______ _______ _______ _____ _____    ______ ____
ROOT
ATOM      1  C   UNL     1      47.762   4.599  16.094  0.00  0.00    +0.000 A 
ATOM      2  C   UNL     1      48.612   5.709  16.184  0.00  0.00    +0.000 A 
ATOM      3  C   UNL     1      49.244   6.023  17.392  0.00  0.00    +0.000 A 
ATOM      4  C   UNL     1      49.048   5.227  18.530  0.00  0.00    +0.000 A 
ATOM      5  C   UNL     1      48.213   4.105  18.429  0.00  0.00    +0.000 A 
ATOM      6  C   UNL     1      47.581   3.787  17.219  0.00  0.00    +0.000 A 
ENDROOT
BRANCH   1   8
ATOM      7  O   UNL     1      47.275   3.267  14.212  0.00  0.00    +0.000 OA
ATOM      8  C   UNL     1      47.091   4.332  14.789  0.00  0.00    +0.000 C 
ATOM      9  N   UNL     1      46.312   5.351  14.276  0.00  0.00    +0.000 N 
ATOM     10  H   UNL     1      46.250   6.232  14.766  0.00  0.00    +0.000 HD
BRANCH   9  11
ATOM     11  C   UNL     1      45.652   5.252  12.986  0.00  0.00    +0.000 C 
BRANCH  11  12
ATOM     12  C   UNL     1      44.379   4.384  13.048  0.00  0.00    +0.000 C 
ATOM     13  C   UNL     1      44.419   3.273  11.982  0.00  0.00    +0.000 C 
ATOM     14  C   UNL     1      44.143   3.804  10.574  0.00  0.00    +0.000 C 
ATOM     15  N   UNL     1      42.867   4.515  10.508  0.00  0.00    +0.000 NA
ATOM     16  C   UNL     1      42.840   5.641  11.444  0.00  0.00    +0.000 C 
ATOM     17  C   UNL     1      43.077   5.185  12.883  0.00  0.00    +0.000 C 
ATOM     18  H   UNL     1      42.112   3.871  10.742  0.00  0.00    +0.000 HD
ENDBRANCH  11  12
ENDBRANCH   9  11
ENDBRANCH   1   8
BRANCH   4  19
ATOM     19  C   UNL     1      49.759   5.550  19.828  0.00  0.00    +0.000 C 
BRANCH  19  20
ATOM     20  N   UNL     1      50.767   4.544  20.153  0.00  0.00    +0.000 NA
ATOM     21  H   UNL     1      50.351   3.616  20.074  0.00  0.00    +0.000 HD
BRANCH  20  22
ATOM     22  C   UNL     1      51.920   4.631  19.256  0.00  0.00    +0.000 C 
BRANCH  22  23
ATOM     23  C   UNL     1      52.281   3.274  18.711  0.00  0.00    +0.000 A 
ATOM     24  C   UNL     1      51.450   2.610  17.802  0.00  0.00    +0.000 A 
ATOM     25  C   UNL     1      51.819   1.363  17.307  0.00  0.00    +0.000 A 
ATOM     26  C   UNL     1      53.011   0.811  17.747  0.00  0.00    +0.000 A 
ATOM     27  N   UNL     1      53.833   1.409  18.635  0.00  0.00    +0.000 NA
ATOM     28  C   UNL     1      53.449   2.623  19.096  0.00  0.00    +0.000 A 
ENDBRANCH  22  23
ENDBRANCH  20  22
ENDBRANCH  19  20
ENDBRANCH   4  19
TORSDOF 7
ENDMDL
MODEL 7
REMARK VINA RESULT:    -6.529      3.427      5.233
REMARK INTER + INTRA:         -10.012
REMARK INTER:                  -8.956
REMARK INTRA:                  -1.056
REMARK UNBOUND:                -0.811
REMARK  Name = 
REMARK  7 active torsions:
REMARK  status: ('A' for Active; 'I' for Inactive)
REMARK    1  A    between atoms: C_2  and  C_11
REMARK    2  A    between atoms: N_3  and  C_4
REMARK    3  A    between atoms: C_4  and  C_5
REMARK    4  A    between atoms: C_14  and  C_15
REMARK    5  A    between atoms: C_15  and  N_16
REMARK    6  A    between atoms: N_16  and  C_17
REMARK    7  A    between atoms: C_17  and  C_18
REMARK                            x       y       z     vdW  Elec       q    Type
REMARK                         _______ _______ _______ _____ _____    ______ ____
ROOT
ATOM      1  C   UNL     1      46.939   6.545  13.252  0.00  0.00    +0.000 A 
ATOM      2  C   UNL     1      45.775   7.131  12.739  0.00  0.00    +0.000 A 
ATOM      3  C   UNL     1      44.631   6.358  12.515  0.00  0.00    +0.000 A 
ATOM      4  C   UNL     1      44.624   4.987  12.811  0.00  0.00    +0.000 A 
ATOM      5  C   UNL     1      45.785   4.410  13.346  0.00  0.00    +0.000 A 
ATOM      6  C   UNL     1      46.932   5.183  13.573  0.00  0.00    +0.000 A 
ENDROOT
BRANCH   1   8
ATOM      7  O   UNL     1      48.180   8.207  14.372  0.00  0.00    +0.000 OA
ATOM      8  C   UNL     1      48.139   7.413  13.440  0.00  0.00    +0.000 C 
ATOM      9  N   UNL     1      49.141   7.292  12.497  0.00  0.00    +0.000 N 
ATOM     10  H   UNL     1      49.021   6.665  11.714  0.00  0.00    +0.000 HD
BRANCH   9  11
ATOM     11  C   UNL     1      50.335   8.118  12.521  0.00  0.00    +0.000 C 
BRANCH  11  12
ATOM     12  C   UNL     1      50.366   9.132  11.360  0.00  0.00    +0.000 C 
ATOM     13  C   UNL     1      51.652   9.978  11.404  0.00  0.00    +0.000 C 
ATOM     14  C   UNL     1      51.613  11.043  12.502  0.00  0.00    +0.000 C 
ATOM     15  N   UNL     1      50.446  11.912  12.366  0.00  0.00    +0.000 NA
ATOM     16  C   UNL     1      49.202  11.142  12.421  0.00  0.00    +0.000 C 
ATOM     17  C   UNL     1      49.151  10.074  11.329  0.00  0.00    +0.000 C 
ATOM     18  H   UNL     1      50.495  12.402  11.472  0.00  0.00    +0.000 HD
ENDBRANCH  11  12
ENDBRANCH   9  11
ENDBRANCH   1   8
BRANCH   4  19
ATOM     19  C   UNL     1      43.374   4.159  12.598  0.00  0.00    +0.000 C 
BRANCH  19  20
ATOM     20  N   UNL     1      43.146   3.884  11.181  0.00  0.00    +0.000 NA
ATOM     21  H   UNL     1      43.458   4.684  10.631  0.00  0.00    +0.000 HD
BRANCH  20  22
ATOM     22  C   UNL     1      43.869   2.689  10.743  0.00  0.00    +0.000 C 
BRANCH  22  23
ATOM     23  C   UNL     1      44.772   3.003   9.580  0.00  0.00    +0.000 A 
ATOM     24  C   UNL     1      45.418   1.988   8.866  0.00  0.00    +0.000 A 
ATOM     25  C   UNL     1      46.236   2.310   7.787  0.00  0.00    +0.000 A 
ATOM     26  C   UNL     1      46.390   3.647   7.460  0.00  0.00    +0.000 A 
ATOM     27  N   UNL     1      45.798   4.657   8.131  0.00  0.00    +0.000 NA
ATOM     28  C   UNL     1      45.007   4.313   9.174  0.00  0.00    +0.000 A 
ENDBRANCH  22  23
ENDBRANCH  20  22
ENDBRANCH  19  20
ENDBRANCH   4  19
TORSDOF 7
ENDMDL
MODEL 8
REMARK VINA RESULT:    -6.484      1.523      2.400
REMARK INTER + INTRA:          -9.948
REMARK INTER:                  -9.831
REMARK INTRA:                  -0.118
REMARK UNBOUND:                -0.811
REMARK  Name = 
REMARK  7 active torsions:
REMARK  status: ('A' for Active; 'I' for Inactive)
REMARK    1  A    between atoms: C_2  and  C_11
REMARK    2  A    between atoms: N_3  and  C_4
REMARK    3  A    between atoms: C_4  and  C_5
REMARK    4  A    between atoms: C_14  and  C_15
REMARK    5  A    between atoms: C_15  and  N_16
REMARK    6  A    between atoms: N_16  and  C_17
REMARK    7  A    between atoms: C_17  and  C_18
REMARK                            x       y       z     vdW  Elec       q    Type
REMARK                         _______ _______ _______ _____ _____    ______ ____
ROOT
ATOM      1  C   UNL     1      48.076   6.585  14.265  0.00  0.00    +0.000 A 
ATOM      2  C   UNL     1      47.340   5.400  14.146  0.00  0.00    +0.000 A 
ATOM      3  C   UNL     1      46.507   5.190  13.042  0.00  0.00    +0.000 A 
ATOM      4  C   UNL     1      46.403   6.155  12.029  0.00  0.00    +0.000 A 
ATOM      5  C   UNL     1      47.161   7.330  12.142  0.00  0.00    +0.000 A 
ATOM      6  C   UNL     1      47.998   7.542  13.246  0.00  0.00    +0.000 A 
ENDROOT
BRANCH   1   8
ATOM      7  O   UNL     1      49.355   7.879  15.764  0.00  0.00    +0.000 OA
ATOM      8  C   UNL     1      48.923   6.767  15.480  0.00  0.00    +0.000 C 
ATOM      9  N   UNL     1      49.210   5.629  16.208  0.00  0.00    +0.000 N 
ATOM     10  H   UNL     1      48.879   4.730  15.888  0.00  0.00    +0.000 HD
BRANCH   9  11
ATOM     11  C   UNL     1      50.073   5.651  17.376  0.00  0.00    +0.000 C 
BRANCH  11  12
ATOM     12  C   UNL     1      49.452   4.904  18.574  0.00  0.00    +0.000 C 
ATOM     13  C   UNL     1      48.433   3.852  18.097  0.00  0.00    +0.000 C 
ATOM     14  C   UNL     1      47.115   4.480  17.640  0.00  0.00    +0.000 C 
ATOM     15  N   UNL     1      46.524   5.309  18.689  0.00  0.00    +0.000 NA
ATOM     16  C   UNL     1      47.435   6.383  19.092  0.00  0.00    +0.000 C 
ATOM     17  C   UNL     1      48.769   5.831  19.593  0.00  0.00    +0.000 C 
ATOM     18  H   UNL     1      46.316   4.727  19.500  0.00  0.00    +0.000 HD
ENDBRANCH  11  12
ENDBRANCH   9  11
ENDBRANCH   1   8
BRANCH   4  19
ATOM     19  C   UNL     1      45.527   5.912  10.818  0.00  0.00    +0.000 C 
BRANCH  19  20
ATOM     20  N   UNL     1      44.743   4.686  10.960  0.00  0.00    +0.000 NA
ATOM     21  H   UNL     1      44.008   4.837  11.652  0.00  0.00    +0.000 HD
BRANCH  20  22
ATOM     22  C   UNL     1      44.134   4.288   9.691  0.00  0.00    +0.000 C 
BRANCH  22  23
ATOM     23  C   UNL     1      45.077   3.435   8.885  0.00  0.00    +0.000 A 
ATOM     24  C   UNL     1      45.877   3.986   7.878  0.00  0.00    +0.000 A 
ATOM     25  C   UNL     1      46.749   3.172   7.161  0.00  0.00    +0.000 A 
ATOM     26  C   UNL     1      46.787   1.823   7.469  0.00  0.00    +0.000 A 
ATOM     27  N   UNL     1      46.022   1.248   8.421  0.00  0.00    +0.000 NA
ATOM     28  C   UNL     1      45.186   2.065   9.104  0.00  0.00    +0.000 A 
ENDBRANCH  22  23
ENDBRANCH  20  22
ENDBRANCH  19  20
ENDBRANCH   4  19
TORSDOF 7
ENDMDL
MODEL 9
REMARK VINA RESULT:    -6.294      4.037      5.404
REMARK INTER + INTRA:          -9.681
REMARK INTER:                  -8.790
REMARK INTRA:                  -0.891
REMARK UNBOUND:                -0.811
REMARK  Name = 
REMARK  7 active torsions:
REMARK  status: ('A' for Active; 'I' for Inactive)
REMARK    1  A    between atoms: C_2  and  C_11
REMARK    2  A    between atoms: N_3  and  C_4
REMARK    3  A    between atoms: C_4  and  C_5
REMARK    4  A    between atoms: C_14  and  C_15
REMARK    5  A    between atoms: C_15  and  N_16
REMARK    6  A    between atoms: N_16  and  C_17
REMARK    7  A    between atoms: C_17  and  C_18
REMARK                            x       y       z     vdW  Elec       q    Type
REMARK                         _______ _______ _______ _____ _____    ______ ____
ROOT
ATOM      1  C   UNL     1      47.435   7.185  12.375  0.00  0.00    +0.000 A 
ATOM      2  C   UNL     1      47.607   5.911  12.930  0.00  0.00    +0.000 A 
ATOM      3  C   UNL     1      46.509   5.065  13.117  0.00  0.00    +0.000 A 
ATOM      4  C   UNL     1      45.220   5.471  12.742  0.00  0.00    +0.000 A 
ATOM      5  C   UNL     1      45.057   6.739  12.166  0.00  0.00    +0.000 A 
ATOM      6  C   UNL     1      46.155   7.588  11.976  0.00  0.00    +0.000 A 
ENDROOT
BRANCH   1   8
ATOM      7  O   UNL     1      48.507   9.231  11.903  0.00  0.00    +0.000 OA
ATOM      8  C   UNL     1      48.638   8.056  12.229  0.00  0.00    +0.000 C 
ATOM      9  N   UNL     1      49.864   7.455  12.436  0.00  0.00    +0.000 N 
ATOM     10  H   UNL     1      49.912   6.467  12.639  0.00  0.00    +0.000 HD
BRANCH   9  11
ATOM     11  C   UNL     1      51.118   8.168  12.266  0.00  0.00    +0.000 C 
BRANCH  11  12
ATOM     12  C   UNL     1      51.440   8.436  10.782  0.00  0.00    +0.000 C 
ATOM     13  C   UNL     1      52.183   7.240  10.157  0.00  0.00    +0.000 C 
ATOM     14  C   UNL     1      53.647   7.168  10.594  0.00  0.00    +0.000 C 
ATOM     15  N   UNL     1      54.358   8.410  10.297  0.00  0.00    +0.000 NA
ATOM     16  C   UNL     1      53.729   9.553  10.963  0.00  0.00    +0.000 C 
ATOM     17  C   UNL     1      52.267   9.712  10.550  0.00  0.00    +0.000 C 
ATOM     18  H   UNL     1      54.352   8.568   9.289  0.00  0.00    +0.000 HD
ENDBRANCH  11  12
ENDBRANCH   9  11
ENDBRANCH   1   8
BRANCH   4  19
ATOM     19  C   UNL     1      44.038   4.540  12.916  0.00  0.00    +0.000 C 
BRANCH  19  20
ATOM     20  N   UNL     1      43.357   4.294  11.646  0.00  0.00    +0.000 NA
ATOM     21  H   UNL     1      43.612   5.026  10.983  0.00  0.00    +0.000 HD
BRANCH  20  22
ATOM     22  C   UNL     1      43.721   2.992  11.086  0.00  0.00    +0.000 C 
BRANCH  22  23
ATOM     23  C   UNL     1      44.570   3.155   9.852  0.00  0.00    +0.000 A 
ATOM     24  C   UNL     1      45.167   2.053   9.229  0.00  0.00    +0.000 A 
ATOM     25  C   UNL     1      45.934   2.237   8.082  0.00  0.00    +0.000 A 
ATOM     26  C   UNL     1      46.088   3.524   7.597  0.00  0.00    +0.000 A 
ATOM     27  N   UNL     1      45.544   4.615   8.176  0.00  0.00    +0.000 NA
ATOM     28  C   UNL     1      44.800   4.405   9.288  0.00  0.00    +0.000 A 
ENDBRANCH  22  23
ENDBRANCH  20  22
ENDBRANCH  19  20
ENDBRANCH   4  19
TORSDOF 7
ENDMDL
