MODEL 1
REMARK VINA RESULT:    -7.915      0.000      0.000
REMARK INTER + INTRA:         -12.277
REMARK INTER:                 -11.154
REMARK INTRA:                  -1.123
REMARK UNBOUND:                -1.123
REMARK  Name = 
REMARK  7 active torsions:
REMARK  status: ('A' for Active; 'I' for Inactive)
REMARK    1  A    between atoms: C_2  and  C_20
REMARK    2  A    between atoms: N_3  and  C_4
REMARK    3  A    between atoms: C_4  and  C_5
REMARK    4  A    between atoms: C_8  and  C_9
REMARK    5  A    between atoms: C_9  and  C_10
REMARK    6  A    between atoms: C_10  and  C_11
REMARK    7  A    between atoms: C_11  and  C_12
REMARK                            x       y       z     vdW  Elec       q    Type
REMARK                         _______ _______ _______ _____ _____    ______ ____
ROOT
ATOM      1  C   UNL     1      47.041   7.727  13.196  0.00  0.00    +0.000 C 
ENDROOT
BRANCH   1   2
ATOM      2  C   UNL     1      46.112   6.755  12.526  0.00  0.00    +0.000 A 
ATOM      3  C   UNL     1      45.033   7.191  11.753  0.00  0.00    +0.000 A 
ATOM      4  C   UNL     1      44.177   6.262  11.159  0.00  0.00    +0.000 A 
ATOM      5  C   UNL     1      44.428   4.904  11.332  0.00  0.00    +0.000 A 
ATOM      6  N   UNL     1      45.486   4.458  12.052  0.00  0.00    +0.000 NA
ATOM      7  C   UNL     1      46.291   5.381  12.631  0.00  0.00    +0.000 A 
BRANCH   5   8
ATOM      8  C   UNL     1      43.535   3.856  10.703  0.00  0.00    +0.000 C 
BRANCH   8   9
ATOM      9  C   UNL     1      44.326   2.949   9.751  0.00  0.00    +0.000 C 
BRANCH   9  10
ATOM     10  C   UNL     1      44.834   3.686   8.509  0.00  0.00    +0.000 C 
BRANCH  10  11
ATOM     11  C   UNL     1      45.895   2.881   7.792  0.00  0.00    +0.000 A 
ATOM     12  C   UNL     1      46.579   3.424   6.702  0.00  0.00    +0.000 A 
ATOM     13  C   UNL     1      47.521   2.645   6.047  0.00  0.00    +0.000 A 
ATOM     14  N   UNL     1      47.826   1.376   6.398  0.00  0.00    +0.000 NA
ATOM     15  C   UNL     1      47.147   0.867   7.448  0.00  0.00    +0.000 A 
ATOM     16  C   UNL     1      46.187   1.567   8.166  0.00  0.00    +0.000 A 
ENDBRANCH  10  11
ENDBRANCH   9  10
ENDBRANCH   8   9
ENDBRANCH   5   8
ENDBRANCH   1   2
BRANCH   1  19
ATOM     17  O   UNL     1      49.625   6.886  13.854  0.00  0.00    +0.000 OA
ATOM     18  C   UNL     1      48.778   6.936  14.742  0.00  0.00    +0.000 C 
ATOM     19  N   UNL     1      47.465   7.258  14.492  0.00  0.00    +0.000 N 
ATOM     20  H   UNL     1      46.859   7.473  15.276  0.00  0.00    +0.000 HD
BRANCH  18  21
ATOM     21  C   UNL     1      49.097   6.604  16.131  0.00  0.00    +0.000 A 
ATOM     22  C   UNL     1      49.766   7.509  16.947  0.00  0.00    +0.000 A 
ATOM     23  S   UNL     1      50.075   6.911  18.515  0.00  0.00    +0.000 S 
ATOM     24  C   UNL     1      49.279   5.444  18.177  0.00  0.00    +0.000 A 
ATOM     25  N   UNL     1      49.163   4.466  19.117  0.00  0.00    +0.000 NA
ATOM     26  C   UNL     1      48.501   3.429  18.728  0.00  0.00    +0.000 A 
ATOM     27  N   UNL     1      47.943   3.277  17.487  0.00  0.00    +0.000 N 
ATOM     28  C   UNL     1      48.071   4.217  16.495  0.00  0.00    +0.000 A 
ATOM     29  O   UNL     1      47.622   4.019  15.371  0.00  0.00    +0.000 OA
ATOM     30  C   UNL     1      48.796   5.408  16.883  0.00  0.00    +0.000 A 
ATOM     31  H   UNL     1      47.446   2.437  17.235  0.00  0.00    +0.000 HD
ENDBRANCH  18  21
ENDBRANCH   1  19
TORSDOF 7
ENDMDL
MODEL 2
REMARK VINA RESULT:    -7.620      1.926      2.511
REMARK INTER + INTRA:         -11.861
REMARK INTER:                 -10.875
REMARK INTRA:                  -0.986
REMARK UNBOUND:                -1.123
REMARK  Name = 
REMARK  7 active torsions:
REMARK  status: ('A' for Active; 'I' for Inactive)
REMARK    1  A    between atoms: C_2  and  C_20
REMARK    2  A    between atoms: N_3  and  C_4
REMARK    3  A    between atoms: C_4  and  C_5
REMARK    4  A    between atoms: C_8  and  C_9
REMARK    5  A    between atoms: C_9  and  C_10
REMARK    6  A    between atoms: C_10  and  C_11
REMARK    7  A    between atoms: C_11  and  C_12
REMARK                            x       y       z     vdW  Elec       q    Type
REMARK                         _______ _______ _______ _____ _____    ______ ____
ROOT
ATOM      1  C   UNL     1      47.867   6.940  13.766  0.00  0.00    +0.000 C 
ENDROOT
BRANCH   1   2
ATOM      2  C   UNL     1      46.848   6.222  12.928  0.00  0.00    +0.000 A 
ATOM      3  C   UNL     1      46.376   4.956  13.279  0.00  0.00    +0.000 A 
ATOM      4  C   UNL     1      45.443   4.307  12.468  0.00  0.00    +0.000 A 
ATOM      5  C   UNL     1      44.980   4.949  11.323  0.00  0.00    +0.000 A 
ATOM      6  N   UNL     1      45.401   6.189  10.978  0.00  0.00    +0.000 NA
ATOM      7  C   UNL     1      46.319   6.790  11.774  0.00  0.00    +0.000 A 
BRANCH   5   8
ATOM      8  C   UNL     1      43.963   4.292  10.414  0.00  0.00    +0.000 C 
BRANCH   8   9
ATOM      9  C   UNL     1      44.624   3.261   9.491  0.00  0.00    +0.000 C 
BRANCH   9  10
ATOM     10  C   UNL     1      45.111   3.865   8.171  0.00  0.00    +0.000 C 
BRANCH  10  11
ATOM     11  C   UNL     1      46.069   2.933   7.465  0.00  0.00    +0.000 A 
ATOM     12  C   UNL     1      46.632   3.292   6.238  0.00  0.00    +0.000 A 
ATOM     13  C   UNL     1      47.479   2.398   5.600  0.00  0.00    +0.000 A 
ATOM     14  N   UNL     1      47.802   1.183   6.095  0.00  0.00    +0.000 NA
ATOM     15  C   UNL     1      47.241   0.850   7.276  0.00  0.00    +0.000 A 
ATOM     16  C   UNL     1      46.381   1.675   7.989  0.00  0.00    +0.000 A 
ENDBRANCH  10  11
ENDBRANCH   9  10
ENDBRANCH   8   9
ENDBRANCH   5   8
ENDBRANCH   1   2
BRANCH   1  19
ATOM     17  O   UNL     1      50.090   6.544  15.415  0.00  0.00    +0.000 OA
ATOM     18  C   UNL     1      48.968   6.423  15.900  0.00  0.00    +0.000 C 
ATOM     19  N   UNL     1      47.823   6.518  15.144  0.00  0.00    +0.000 N 
ATOM     20  H   UNL     1      46.932   6.604  15.619  0.00  0.00    +0.000 HD
BRANCH  18  21
ATOM     21  C   UNL     1      48.769   6.114  17.317  0.00  0.00    +0.000 A 
ATOM     22  C   UNL     1      49.071   4.855  17.822  0.00  0.00    +0.000 A 
ATOM     23  S   UNL     1      48.729   4.691  19.486  0.00  0.00    +0.000 S 
ATOM     24  C   UNL     1      48.217   6.311  19.602  0.00  0.00    +0.000 A 
ATOM     25  N   UNL     1      47.796   6.841  20.783  0.00  0.00    +0.000 NA
ATOM     26  C   UNL     1      47.477   8.090  20.724  0.00  0.00    +0.000 A 
ATOM     27  N   UNL     1      47.538   8.860  19.593  0.00  0.00    +0.000 N 
ATOM     28  C   UNL     1      47.913   8.358  18.372  0.00  0.00    +0.000 A 
ATOM     29  O   UNL     1      47.887   9.056  17.364  0.00  0.00    +0.000 OA
ATOM     30  C   UNL     1      48.295   6.962  18.385  0.00  0.00    +0.000 A 
ATOM     31  H   UNL     1      47.262   9.829  19.604  0.00  0.00    +0.000 HD
ENDBRANCH  18  21
ENDBRANCH   1  19
TORSDOF 7
ENDMDL
MODEL 3
REMARK VINA RESULT:    -7.428      1.741      3.232
REMARK INTER + INTRA:         -11.590
REMARK INTER:                 -10.423
REMARK INTRA:                  -1.167
REMARK UNBOUND:                -1.123
REMARK  Name = 
REMARK  7 active torsions:
REMARK  status: ('A' for Active; 'I' for Inactive)
REMARK    1  A    between atoms: C_2  and  C_20
REMARK    2  A    between atoms: N_3  and  C_4
REMARK    3  A    between atoms: C_4  and  C_5
REMARK    4  A    between atoms: C_8  and  C_9
REMARK    5  A    between atoms: C_9  and  C_10
REMARK    6  A    between atoms: C_10  and  C_11
REMARK    7  A    between atoms: C_11  and  C_12
REMARK                            x       y       z     vdW  Elec       q    Type
REMARK                         _______ _______ _______ _____ _____    ______ ____
ROOT
ATOM      1  C   UNL     1      46.947   4.142  14.643  0.00  0.00    +0.000 C 
ENDROOT
BRANCH   1   2
ATOM      2  C   UNL     1      46.215   4.285  13.339  0.00  0.00    +0.000 A 
ATOM      3  C   UNL     1      46.122   5.515  12.686  0.00  0.00    +0.000 A 
ATOM      4  C   UNL     1      45.419   5.619  11.484  0.00  0.00    +0.000 A 
ATOM      5  C   UNL     1      44.834   4.477  10.943  0.00  0.00    +0.000 A 
ATOM      6  N   UNL     1      44.937   3.267  11.543  0.00  0.00    +0.000 NA
ATOM      7  C   UNL     1      45.612   3.198  12.717  0.00  0.00    +0.000 A 
BRANCH   5   8
ATOM      8  C   UNL     1      44.067   4.533   9.639  0.00  0.00    +0.000 C 
BRANCH   8   9
ATOM      9  C   UNL     1      44.645   3.553   8.611  0.00  0.00    +0.000 C 
BRANCH   9  10
ATOM     10  C   UNL     1      45.957   4.042   7.991  0.00  0.00    +0.000 C 
BRANCH  10  11
ATOM     11  C   UNL     1      46.590   2.968   7.136  0.00  0.00    +0.000 A 
ATOM     12  C   UNL     1      46.949   3.236   5.813  0.00  0.00    +0.000 A 
ATOM     13  C   UNL     1      47.496   2.218   5.046  0.00  0.00    +0.000 A 
ATOM     14  N   UNL     1      47.707   0.963   5.501  0.00  0.00    +0.000 NA
ATOM     15  C   UNL     1      47.345   0.721   6.778  0.00  0.00    +0.000 A 
ATOM     16  C   UNL     1      46.791   1.673   7.623  0.00  0.00    +0.000 A 
ENDBRANCH  10  11
ENDBRANCH   9  10
ENDBRANCH   8   9
ENDBRANCH   5   8
ENDBRANCH   1   2
BRANCH   1  19
ATOM     17  O   UNL     1      48.870   4.513  16.638  0.00  0.00    +0.000 OA
ATOM     18  C   UNL     1      48.399   5.502  16.085  0.00  0.00    +0.000 C 
ATOM     19  N   UNL     1      47.391   5.416  15.153  0.00  0.00    +0.000 N 
ATOM     20  H   UNL     1      47.176   6.232  14.592  0.00  0.00    +0.000 HD
BRANCH  18  21
ATOM     21  C   UNL     1      48.842   6.857  16.417  0.00  0.00    +0.000 A 
ATOM     22  C   UNL     1      48.775   7.330  17.722  0.00  0.00    +0.000 A 
ATOM     23  S   UNL     1      49.302   8.945  17.887  0.00  0.00    +0.000 S 
ATOM     24  C   UNL     1      49.689   9.051  16.232  0.00  0.00    +0.000 A 
ATOM     25  N   UNL     1      50.214  10.187  15.696  0.00  0.00    +0.000 NA
ATOM     26  C   UNL     1      50.493  10.103  14.439  0.00  0.00    +0.000 A 
ATOM     27  N   UNL     1      50.294   8.991  13.666  0.00  0.00    +0.000 N 
ATOM     28  C   UNL     1      49.728   7.840  14.152  0.00  0.00    +0.000 A 
ATOM     29  O   UNL     1      49.497   6.886  13.416  0.00  0.00    +0.000 OA
ATOM     30  C   UNL     1      49.408   7.874  15.563  0.00  0.00    +0.000 A 
ATOM     31  H   UNL     1      50.520   8.990  12.683  0.00  0.00    +0.000 HD
ENDBRANCH  18  21
ENDBRANCH   1  19
TORSDOF 7
ENDMDL
MODEL 4
REMARK VINA RESULT:    -7.297      3.433      8.107
REMARK INTER + INTRA:         -11.406
REMARK INTER:                 -10.105
REMARK INTRA:                  -1.301
REMARK UNBOUND:                -1.123
REMARK  Name = 
REMARK  7 active torsions:
REMARK  status: ('A' for Active; 'I' for Inactive)
REMARK    1  A    between atoms: C_2  and  C_20
REMARK    2  A    between atoms: N_3  and  C_4
REMARK    3  A    between atoms: C_4  and  C_5
REMARK    4  A    between atoms: C_8  and  C_9
REMARK    5  A    between atoms: C_9  and  C_10
REMARK    6  A    between atoms: C_10  and  C_11
REMARK    7  A    between atoms: C_11  and  C_12
REMARK                            x       y       z     vdW  Elec       q    Type
REMARK                         _______ _______ _______ _____ _____    ______ ____
ROOT
ATOM      1  C   UNL     1      48.360   7.929  12.200  0.00  0.00    +0.000 C 
ENDROOT
BRANCH   1   2
ATOM      2  C   UNL     1      49.015   7.612  13.515  0.00  0.00    +0.000 A 
ATOM      3  C   UNL     1      50.325   8.008  13.791  0.00  0.00    +0.000 A 
ATOM      4  C   UNL     1      50.912   7.682  15.016  0.00  0.00    +0.000 A 
ATOM      5  C   UNL     1      50.165   6.977  15.956  0.00  0.00    +0.000 A 
ATOM      6  N   UNL     1      48.883   6.609  15.722  0.00  0.00    +0.000 NA
ATOM      7  C   UNL     1      48.343   6.925  14.519  0.00  0.00    +0.000 A 
BRANCH   5   8
ATOM      8  C   UNL     1      50.751   6.604  17.301  0.00  0.00    +0.000 C 
BRANCH   8   9
ATOM      9  C   UNL     1      49.649   6.293  18.322  0.00  0.00    +0.000 C 
BRANCH   9  10
ATOM     10  C   UNL     1      49.852   4.950  19.030  0.00  0.00    +0.000 C 
BRANCH  10  11
ATOM     11  C   UNL     1      49.690   3.796  18.067  0.00  0.00    +0.000 A 
ATOM     12  C   UNL     1      50.772   2.961  17.774  0.00  0.00    +0.000 A 
ATOM     13  C   UNL     1      50.598   1.933  16.860  0.00  0.00    +0.000 A 
ATOM     14  N   UNL     1      49.433   1.681  16.223  0.00  0.00    +0.000 NA
ATOM     15  C   UNL     1      48.403   2.504  16.511  0.00  0.00    +0.000 A 
ATOM     16  C   UNL     1      48.480   3.559  17.410  0.00  0.00    +0.000 A 
ENDBRANCH  10  11
ENDBRANCH   9  10
ENDBRANCH   8   9
ENDBRANCH   5   8
ENDBRANCH   1   2
BRANCH   1  19
ATOM     17  O   UNL     1      45.594   7.881  11.799  0.00  0.00    +0.000 OA
ATOM     18  C   UNL     1      46.255   6.906  11.456  0.00  0.00    +0.000 C 
ATOM     19  N   UNL     1      47.606   6.810  11.691  0.00  0.00    +0.000 N 
ATOM     20  H   UNL     1      48.133   6.082  11.221  0.00  0.00    +0.000 HD
BRANCH  18  21
ATOM     21  C   UNL     1      45.639   5.743  10.815  0.00  0.00    +0.000 A 
ATOM     22  C   UNL     1      45.797   5.512   9.453  0.00  0.00    +0.000 A 
ATOM     23  S   UNL     1      44.967   4.127   8.899  0.00  0.00    +0.000 S 
ATOM     24  C   UNL     1      44.413   3.758  10.466  0.00  0.00    +0.000 A 
ATOM     25  N   UNL     1      43.642   2.662  10.708  0.00  0.00    +0.000 NA
ATOM     26  C   UNL     1      43.333   2.491  11.950  0.00  0.00    +0.000 A 
ATOM     27  N   UNL     1      43.721   3.314  12.973  0.00  0.00    +0.000 N 
ATOM     28  C   UNL     1      44.460   4.452  12.771  0.00  0.00    +0.000 A 
ATOM     29  O   UNL     1      44.729   5.207  13.700  0.00  0.00    +0.000 OA
ATOM     30  C   UNL     1      44.846   4.686  11.395  0.00  0.00    +0.000 A 
ATOM     31  H   UNL     1      43.437   3.137  13.924  0.00  0.00    +0.000 HD
ENDBRANCH  18  21
ENDBRANCH   1  19
TORSDOF 7
ENDMDL
MODEL 5
REMARK VINA RESULT:    -7.263      2.098      2.838
REMARK INTER + INTRA:         -11.359
REMARK INTER:                 -10.459
REMARK INTRA:                  -0.899
REMARK UNBOUND:                -1.123
REMARK  Name = 
REMARK  7 active torsions:
REMARK  status: ('A' for Active; 'I' for Inactive)
REMARK    1  A    between atoms: C_2  and  C_20
REMARK    2  A    between atoms: N_3  and  C_4
REMARK    3  A    between atoms: C_4  and  C_5
REMARK    4  A    between atoms: C_8  and  C_9
REMARK    5  A    between atoms: C_9  and  C_10
REMARK    6  A    between atoms: C_10  and  C_11
REMARK    7  A    between atoms: C_11  and  C_12
REMARK                            x       y       z     vdW  Elec       q    Type
REMARK                         _______ _______ _______ _____ _____    ______ ____
ROOT
ATOM      1  C   UNL     1      47.256   4.064  14.828  0.00  0.00    +0.000 C 
ENDROOT
BRANCH   1   2
ATOM      2  C   UNL     1      46.441   4.249  13.580  0.00  0.00    +0.000 A 
ATOM      3  C   UNL     1      46.275   5.506  12.997  0.00  0.00    +0.000 A 
ATOM      4  C   UNL     1      45.495   5.648  11.847  0.00  0.00    +0.000 A 
ATOM      5  C   UNL     1      44.907   4.517  11.286  0.00  0.00    +0.000 A 
ATOM      6  N   UNL     1      45.079   3.283  11.818  0.00  0.00    +0.000 NA
ATOM      7  C   UNL     1      45.828   3.177  12.942  0.00  0.00    +0.000 A 
BRANCH   5   8
ATOM      8  C   UNL     1      44.058   4.614  10.036  0.00  0.00    +0.000 C 
BRANCH   8   9
ATOM      9  C   UNL     1      44.514   3.606   8.974  0.00  0.00    +0.000 C 
BRANCH   9  10
ATOM     10  C   UNL     1      45.625   4.150   8.072  0.00  0.00    +0.000 C 
BRANCH  10  11
ATOM     11  C   UNL     1      46.311   3.033   7.317  0.00  0.00    +0.000 A 
ATOM     12  C   UNL     1      46.505   1.787   7.919  0.00  0.00    +0.000 A 
ATOM     13  C   UNL     1      47.169   0.797   7.211  0.00  0.00    +0.000 A 
ATOM     14  N   UNL     1      47.648   0.959   5.958  0.00  0.00    +0.000 NA
ATOM     15  C   UNL     1      47.459   2.172   5.398  0.00  0.00    +0.000 A 
ATOM     16  C   UNL     1      46.809   3.226   6.026  0.00  0.00    +0.000 A 
ENDBRANCH  10  11
ENDBRANCH   9  10
ENDBRANCH   8   9
ENDBRANCH   5   8
ENDBRANCH   1   2
BRANCH   1  19
ATOM     17  O   UNL     1      49.308   4.585  16.655  0.00  0.00    +0.000 OA
ATOM     18  C   UNL     1      48.543   5.497  16.352  0.00  0.00    +0.000 C 
ATOM     19  N   UNL     1      47.459   5.308  15.528  0.00  0.00    +0.000 N 
ATOM     20  H   UNL     1      46.980   6.122  15.159  0.00  0.00    +0.000 HD
BRANCH  18  21
ATOM     21  C   UNL     1      48.700   6.848  16.894  0.00  0.00    +0.000 A 
ATOM     22  C   UNL     1      49.187   7.882  16.102  0.00  0.00    +0.000 A 
ATOM     23  S   UNL     1      49.331   9.364  16.935  0.00  0.00    +0.000 S 
ATOM     24  C   UNL     1      48.699   8.691  18.366  0.00  0.00    +0.000 A 
ATOM     25  N   UNL     1      48.534   9.439  19.491  0.00  0.00    +0.000 NA
ATOM     26  C   UNL     1      48.008   8.802  20.482  0.00  0.00    +0.000 A 
ATOM     27  N   UNL     1      47.631   7.486  20.455  0.00  0.00    +0.000 N 
ATOM     28  C   UNL     1      47.818   6.683  19.358  0.00  0.00    +0.000 A 
ATOM     29  O   UNL     1      47.536   5.489  19.391  0.00  0.00    +0.000 OA
ATOM     30  C   UNL     1      48.394   7.352  18.211  0.00  0.00    +0.000 A 
ATOM     31  H   UNL     1      47.236   7.038  21.267  0.00  0.00    +0.000 HD
ENDBRANCH  18  21
ENDBRANCH   1  19
TORSDOF 7
ENDMDL
MODEL 6
REMARK VINA RESULT:    -7.044      2.946      8.315
REMARK INTER + INTRA:         -11.049
REMARK INTER:                  -9.385
REMARK INTRA:                  -1.664
REMARK UNBOUND:                -1.123
REMARK  Name = 
REMARK  7 active torsions:
REMARK  status: ('A' for Active; 'I' for Inactive)
REMARK    1  A    between atoms: C_2  and  C_20
REMARK    2  A    between atoms: N_3  and  C_4
REMARK    3  A    between atoms: C_4  and  C_5
REMARK    4  A    between atoms: C_8  and  C_9
REMARK    5  A    between atoms: C_9  and  C_10
REMARK    6  A    between atoms: C_10  and  C_11
REMARK    7  A    between atoms: C_11  and  C_12
REMARK                            x       y       z     vdW  Elec       q    Type
REMARK                         _______ _______ _______ _____ _____    ______ ____
ROOT
ATOM      1  C   UNL     1      47.704   7.712  11.876  0.00  0.00    +0.000 C 
ENDROOT
BRANCH   1   2
ATOM      2  C   UNL     1      48.295   7.894  13.245  0.00  0.00    +0.000 A 
ATOM      3  C   UNL     1      49.481   7.260  13.619  0.00  0.00    +0.000 A 
ATOM      4  C   UNL     1      49.994   7.436  14.906  0.00  0.00    +0.000 A 
ATOM      5  C   UNL     1      49.317   8.265  15.795  0.00  0.00    +0.000 A 
ATOM      6  N   UNL     1      48.181   8.914  15.445  0.00  0.00    +0.000 NA
ATOM      7  C   UNL     1      47.697   8.713  14.195  0.00  0.00    +0.000 A 
BRANCH   5   8
ATOM      8  C   UNL     1      49.834   8.495  17.200  0.00  0.00    +0.000 C 
BRANCH   8   9
ATOM      9  C   UNL     1      49.922   7.179  17.983  0.00  0.00    +0.000 C 
BRANCH   9  10
ATOM     10  C   UNL     1      48.578   6.451  18.082  0.00  0.00    +0.000 C 
BRANCH  10  11
ATOM     11  C   UNL     1      48.667   5.059  17.499  0.00  0.00    +0.000 A 
ATOM     12  C   UNL     1      47.710   4.611  16.585  0.00  0.00    +0.000 A 
ATOM     13  C   UNL     1      47.803   3.317  16.097  0.00  0.00    +0.000 A 
ATOM     14  N   UNL     1      48.772   2.445  16.452  0.00  0.00    +0.000 NA
ATOM     15  C   UNL     1      49.682   2.893  17.343  0.00  0.00    +0.000 A 
ATOM     16  C   UNL     1      49.673   4.170  17.888  0.00  0.00    +0.000 A 
ENDBRANCH  10  11
ENDBRANCH   9  10
ENDBRANCH   8   9
ENDBRANCH   5   8
ENDBRANCH   1   2
BRANCH   1  19
ATOM     17  O   UNL     1      44.922   7.489  12.036  0.00  0.00    +0.000 OA
ATOM     18  C   UNL     1      45.580   6.482  11.788  0.00  0.00    +0.000 C 
ATOM     19  N   UNL     1      46.955   6.484  11.773  0.00  0.00    +0.000 N 
ATOM     20  H   UNL     1      47.439   5.686  11.377  0.00  0.00    +0.000 HD
BRANCH  18  21
ATOM     21  C   UNL     1      44.945   5.186  11.542  0.00  0.00    +0.000 A 
ATOM     22  C   UNL     1      44.170   4.574  12.521  0.00  0.00    +0.000 A 
ATOM     23  S   UNL     1      43.555   3.054  12.046  0.00  0.00    +0.000 S 
ATOM     24  C   UNL     1      44.256   3.185  10.500  0.00  0.00    +0.000 A 
ATOM     25  N   UNL     1      44.101   2.209   9.564  0.00  0.00    +0.000 NA
ATOM     26  C   UNL     1      44.656   2.467   8.428  0.00  0.00    +0.000 A 
ATOM     27  N   UNL     1      45.353   3.609   8.139  0.00  0.00    +0.000 N 
ATOM     28  C   UNL     1      45.572   4.599   9.064  0.00  0.00    +0.000 A 
ATOM     29  O   UNL     1      46.263   5.577   8.795  0.00  0.00    +0.000 OA
ATOM     30  C   UNL     1      44.959   4.367  10.354  0.00  0.00    +0.000 A 
ATOM     31  H   UNL     1      45.777   3.750   7.235  0.00  0.00    +0.000 HD
ENDBRANCH  18  21
ENDBRANCH   1  19
TORSDOF 7
ENDMDL
MODEL 7
REMARK VINA RESULT:    -7.018      2.480      4.512
REMARK INTER + INTRA:         -11.013
REMARK INTER:                  -9.813
REMARK INTRA:                  -1.200
REMARK UNBOUND:                -1.123
REMARK  Name = 
REMARK  7 active torsions:
REMARK  status: ('A' for Active; 'I' for Inactive)
REMARK    1  A    between atoms: C_2  and  C_20
REMARK    2  A    between atoms: N_3  and  C_4
REMARK    3  A    between atoms: C_4  and  C_5
REMARK    4  A    between atoms: C_8  and  C_9
REMARK    5  A    between atoms: C_9  and  C_10
REMARK    6  A    between atoms: C_10  and  C_11
REMARK    7  A    between atoms: C_11  and  C_12
REMARK                            x       y       z     vdW  Elec       q    Type
REMARK                         _______ _______ _______ _____ _____    ______ ____
ROOT
ATOM      1  C   UNL     1      47.628   5.623  14.568  0.00  0.00    +0.000 C 
ENDROOT
BRANCH   1   2
ATOM      2  C   UNL     1      46.596   5.248  13.542  0.00  0.00    +0.000 A 
ATOM      3  C   UNL     1      46.261   3.915  13.298  0.00  0.00    +0.000 A 
ATOM      4  C   UNL     1      45.312   3.598  12.324  0.00  0.00    +0.000 A 
ATOM      5  C   UNL     1      44.695   4.629  11.621  0.00  0.00    +0.000 A 
ATOM      6  N   UNL     1      44.983   5.931  11.861  0.00  0.00    +0.000 NA
ATOM      7  C   UNL     1      45.919   6.209  12.801  0.00  0.00    +0.000 A 
BRANCH   5   8
ATOM      8  C   UNL     1      43.654   4.341  10.560  0.00  0.00    +0.000 C 
BRANCH   8   9
ATOM      9  C   UNL     1      44.308   4.058   9.201  0.00  0.00    +0.000 C 
BRANCH   9  10
ATOM     10  C   UNL     1      44.536   2.565   8.948  0.00  0.00    +0.000 C 
BRANCH  10  11
ATOM     11  C   UNL     1      45.782   2.335   8.123  0.00  0.00    +0.000 A 
ATOM     12  C   UNL     1      46.310   1.050   7.981  0.00  0.00    +0.000 A 
ATOM     13  C   UNL     1      47.474   0.880   7.246  0.00  0.00    +0.000 A 
ATOM     14  N   UNL     1      48.141   1.892   6.648  0.00  0.00    +0.000 NA
ATOM     15  C   UNL     1      47.620   3.127   6.804  0.00  0.00    +0.000 A 
ATOM     16  C   UNL     1      46.462   3.397   7.522  0.00  0.00    +0.000 A 
ENDBRANCH  10  11
ENDBRANCH   9  10
ENDBRANCH   8   9
ENDBRANCH   5   8
ENDBRANCH   1   2
BRANCH   1  19
ATOM     17  O   UNL     1      50.085   6.897  14.963  0.00  0.00    +0.000 OA
ATOM     18  C   UNL     1      49.092   7.587  14.751  0.00  0.00    +0.000 C 
ATOM     19  N   UNL     1      47.832   7.049  14.628  0.00  0.00    +0.000 N 
ATOM     20  H   UNL     1      47.087   7.633  14.265  0.00  0.00    +0.000 HD
BRANCH  18  21
ATOM     21  C   UNL     1      49.170   9.046  14.666  0.00  0.00    +0.000 A 
ATOM     22  C   UNL     1      49.526   9.808  15.773  0.00  0.00    +0.000 A 
ATOM     23  S   UNL     1      49.518  11.487  15.472  0.00  0.00    +0.000 S 
ATOM     24  C   UNL     1      49.092  11.254  13.840  0.00  0.00    +0.000 A 
ATOM     25  N   UNL     1      48.934  12.305  12.989  0.00  0.00    +0.000 NA
ATOM     26  C   UNL     1      48.651  11.971  11.776  0.00  0.00    +0.000 A 
ATOM     27  N   UNL     1      48.509  10.684  11.332  0.00  0.00    +0.000 N 
ATOM     28  C   UNL     1      48.617   9.596  12.161  0.00  0.00    +0.000 A 
ATOM     29  O   UNL     1      48.412   8.460  11.747  0.00  0.00    +0.000 OA
ATOM     30  C   UNL     1      48.947   9.914  13.534  0.00  0.00    +0.000 A 
ATOM     31  H   UNL     1      48.274  10.484  10.372  0.00  0.00    +0.000 HD
ENDBRANCH  18  21
ENDBRANCH   1  19
TORSDOF 7
ENDMDL
MODEL 8
REMARK VINA RESULT:    -6.835      3.028      4.233
REMARK INTER + INTRA:         -10.755
REMARK INTER:                  -9.753
REMARK INTRA:                  -1.003
REMARK UNBOUND:                -1.123
REMARK  Name = 
REMARK  7 active torsions:
REMARK  status: ('A' for Active; 'I' for Inactive)
REMARK    1  A    between atoms: C_2  and  C_20
REMARK    2  A    between atoms: N_3  and  C_4
REMARK    3  A    between atoms: C_4  and  C_5
REMARK    4  A    between atoms: C_8  and  C_9
REMARK    5  A    between atoms: C_9  and  C_10
REMARK    6  A    between atoms: C_10  and  C_11
REMARK    7  A    between atoms: C_11  and  C_12
REMARK                            x       y       z     vdW  Elec       q    Type
REMARK                         _______ _______ _______ _____ _____    ______ ____
ROOT
ATOM      1  C   UNL     1      48.736   5.676  17.804  0.00  0.00    +0.000 C 
ENDROOT
BRANCH   1   2
ATOM      2  C   UNL     1      48.098   5.357  16.482  0.00  0.00    +0.000 A 
ATOM      3  C   UNL     1      48.286   6.173  15.365  0.00  0.00    +0.000 A 
ATOM      4  C   UNL     1      47.663   5.859  14.155  0.00  0.00    +0.000 A 
ATOM      5  C   UNL     1      46.874   4.715  14.079  0.00  0.00    +0.000 A 
ATOM      6  N   UNL     1      46.701   3.892  15.141  0.00  0.00    +0.000 NA
ATOM      7  C   UNL     1      47.304   4.230  16.308  0.00  0.00    +0.000 A 
BRANCH   5   8
ATOM      8  C   UNL     1      46.182   4.325  12.790  0.00  0.00    +0.000 C 
BRANCH   8   9
ATOM      9  C   UNL     1      45.681   5.561  12.031  0.00  0.00    +0.000 C 
BRANCH   9  10
ATOM     10  C   UNL     1      44.483   5.260  11.126  0.00  0.00    +0.000 C 
BRANCH  10  11
ATOM     11  C   UNL     1      44.842   4.245  10.065  0.00  0.00    +0.000 A 
ATOM     12  C   UNL     1      45.523   4.638   8.910  0.00  0.00    +0.000 A 
ATOM     13  C   UNL     1      45.805   3.687   7.941  0.00  0.00    +0.000 A 
ATOM     14  N   UNL     1      45.460   2.385   8.041  0.00  0.00    +0.000 NA
ATOM     15  C   UNL     1      44.795   2.026   9.159  0.00  0.00    +0.000 A 
ATOM     16  C   UNL     1      44.466   2.904  10.183  0.00  0.00    +0.000 A 
ENDBRANCH  10  11
ENDBRANCH   9  10
ENDBRANCH   8   9
ENDBRANCH   5   8
ENDBRANCH   1   2
BRANCH   1  19
ATOM     17  O   UNL     1      51.369   6.071  16.951  0.00  0.00    +0.000 OA
ATOM     18  C   UNL     1      51.126   5.121  17.689  0.00  0.00    +0.000 C 
ATOM     19  N   UNL     1      49.849   4.804  18.088  0.00  0.00    +0.000 N 
ATOM     20  H   UNL     1      49.725   4.138  18.843  0.00  0.00    +0.000 HD
BRANCH  18  21
ATOM     21  C   UNL     1      52.179   4.218  18.157  0.00  0.00    +0.000 A 
ATOM     22  C   UNL     1      53.256   4.700  18.893  0.00  0.00    +0.000 A 
ATOM     23  S   UNL     1      54.389   3.492  19.305  0.00  0.00    +0.000 S 
ATOM     24  C   UNL     1      53.456   2.277  18.563  0.00  0.00    +0.000 A 
ATOM     25  N   UNL     1      53.853   0.975  18.565  0.00  0.00    +0.000 NA
ATOM     26  C   UNL     1      53.024   0.164  17.999  0.00  0.00    +0.000 A 
ATOM     27  N   UNL     1      51.835   0.532  17.430  0.00  0.00    +0.000 N 
ATOM     28  C   UNL     1      51.415   1.837  17.366  0.00  0.00    +0.000 A 
ATOM     29  O   UNL     1      50.378   2.142  16.785  0.00  0.00    +0.000 OA
ATOM     30  C   UNL     1      52.303   2.789  17.999  0.00  0.00    +0.000 A 
ATOM     31  H   UNL     1      51.233  -0.146  16.989  0.00  0.00    +0.000 HD
ENDBRANCH  18  21
ENDBRANCH   1  19
TORSDOF 7
ENDMDL
MODEL 9
REMARK VINA RESULT:    -6.701      3.992      4.715
REMARK INTER + INTRA:         -10.566
REMARK INTER:                  -9.527
REMARK INTRA:                  -1.039
REMARK UNBOUND:                -1.123
REMARK  Name = 
REMARK  7 active torsions:
REMARK  status: ('A' for Active; 'I' for Inactive)
REMARK    1  A    between atoms: C_2  and  C_20
REMARK    2  A    between atoms: N_3  and  C_4
REMARK    3  A    between atoms: C_4  and  C_5
REMARK    4  A    between atoms: C_8  and  C_9
REMARK    5  A    between atoms: C_9  and  C_10
REMARK    6  A    between atoms: C_10  and  C_11
REMARK    7  A    between atoms: C_11  and  C_12
REMARK                            x       y       z     vdW  Elec       q    Type
REMARK                         _______ _______ _______ _____ _____    ______ ____
ROOT
ATOM      1  C   UNL     1      45.120   8.485  12.675  0.00  0.00    +0.000 C 
ENDROOT
BRANCH   1   2
ATOM      2  C   UNL     1      44.789   7.143  12.088  0.00  0.00    +0.000 A 
ATOM      3  C   UNL     1      43.535   6.877  11.536  0.00  0.00    +0.000 A 
ATOM      4  C   UNL     1      43.252   5.612  11.015  0.00  0.00    +0.000 A 
ATOM      5  C   UNL     1      44.244   4.636  11.037  0.00  0.00    +0.000 A 
ATOM      6  N   UNL     1      45.478   4.880  11.539  0.00  0.00    +0.000 NA
ATOM      7  C   UNL     1      45.720   6.111  12.053  0.00  0.00    +0.000 A 
BRANCH   5   8
ATOM      8  C   UNL     1      43.992   3.251  10.478  0.00  0.00    +0.000 C 
BRANCH   8   9
ATOM      9  C   UNL     1      45.187   2.758   9.653  0.00  0.00    +0.000 C 
BRANCH   9  10
ATOM     10  C   UNL     1      45.292   3.441   8.286  0.00  0.00    +0.000 C 
BRANCH  10  11
ATOM     11  C   UNL     1      46.234   2.690   7.372  0.00  0.00    +0.000 A 
ATOM     12  C   UNL     1      46.639   3.250   6.158  0.00  0.00    +0.000 A 
ATOM     13  C   UNL     1      47.474   2.519   5.327  0.00  0.00    +0.000 A 
ATOM     14  N   UNL     1      47.930   1.281   5.619  0.00  0.00    +0.000 NA
ATOM     15  C   UNL     1      47.520   0.753   6.791  0.00  0.00    +0.000 A 
ATOM     16  C   UNL     1      46.684   1.405   7.687  0.00  0.00    +0.000 A 
ENDBRANCH  10  11
ENDBRANCH   9  10
ENDBRANCH   8   9
ENDBRANCH   5   8
ENDBRANCH   1   2
BRANCH   1  19
ATOM     17  O   UNL     1      47.483   9.123  14.025  0.00  0.00    +0.000 OA
ATOM     18  C   UNL     1      47.444   9.269  12.807  0.00  0.00    +0.000 C 
ATOM     19  N   UNL     1      46.299   9.059  12.075  0.00  0.00    +0.000 N 
ATOM     20  H   UNL     1      46.370   9.004  11.065  0.00  0.00    +0.000 HD
BRANCH  18  21
ATOM     21  C   UNL     1      48.607   9.731  12.047  0.00  0.00    +0.000 A 
ATOM     22  C   UNL     1      48.719  11.059  11.651  0.00  0.00    +0.000 A 
ATOM     23  S   UNL     1      50.128  11.379  10.744  0.00  0.00    +0.000 S 
ATOM     24  C   UNL     1      50.664   9.770  10.893  0.00  0.00    +0.000 A 
ATOM     25  N   UNL     1      51.841   9.359  10.346  0.00  0.00    +0.000 NA
ATOM     26  C   UNL     1      52.132   8.123  10.576  0.00  0.00    +0.000 A 
ATOM     27  N   UNL     1      51.357   7.258  11.301  0.00  0.00    +0.000 N 
ATOM     28  C   UNL     1      50.144   7.616  11.833  0.00  0.00    +0.000 A 
ATOM     29  O   UNL     1      49.440   6.797  12.415  0.00  0.00    +0.000 OA
ATOM     30  C   UNL     1      49.773   8.998  11.615  0.00  0.00    +0.000 A 
ATOM     31  H   UNL     1      51.631   6.297  11.436  0.00  0.00    +0.000 HD
ENDBRANCH  18  21
ENDBRANCH   1  19
TORSDOF 7
ENDMDL
