MODEL 1
REMARK VINA RESULT:    -9.411      0.000      0.000
REMARK INTER + INTRA:         -13.756
REMARK INTER:                 -12.987
REMARK INTRA:                  -0.768
REMARK UNBOUND:                -0.768
REMARK  Name = 
REMARK  7 active torsions:
REMARK  status: ('A' for Active; 'I' for Inactive)
REMARK    1  A    between atoms: C_2  and  C_25
REMARK    2  A    between atoms: N_3  and  C_4
REMARK    3  A    between atoms: C_4  and  C_5
REMARK    4  A    between atoms: C_9  and  C_10
REMARK    5  A    between atoms: C_10  and  N_11
REMARK    6  A    between atoms: C_12  and  C_14
REMARK    7  A    between atoms: C_29  and  O_30
REMARK                            x       y       z     vdW  Elec       q    Type
REMARK                         _______ _______ _______ _____ _____    ______ ____
ROOT
ATOM      1  C   UNL     1      44.823   5.105  11.264  0.00  0.00    +0.000 A 
ATOM      2  C   UNL     1      45.152   6.456  11.439  0.00  0.00    +0.000 A 
ATOM      3  C   UNL     1      45.998   6.847  12.477  0.00  0.00    +0.000 A 
ATOM      4  C   UNL     1      46.492   5.900  13.375  0.00  0.00    +0.000 A 
ATOM      5  C   UNL     1      46.132   4.550  13.256  0.00  0.00    +0.000 A 
ATOM      6  C   UNL     1      45.323   4.158  12.176  0.00  0.00    +0.000 A 
ENDROOT
BRANCH   1   7
ATOM      7  C   UNL     1      43.891   4.692  10.155  0.00  0.00    +0.000 C 
BRANCH   7  10
ATOM      8  O   UNL     1      45.997   5.239   8.399  0.00  0.00    +0.000 OA
ATOM      9  C   UNL     1      45.558   4.098   8.458  0.00  0.00    +0.000 C 
ATOM     10  N   UNL     1      44.516   3.726   9.278  0.00  0.00    +0.000 N 
ATOM     11  H   UNL     1      44.320   2.747   9.437  0.00  0.00    +0.000 HD
BRANCH   9  12
ATOM     12  C   UNL     1      46.176   3.011   7.650  0.00  0.00    +0.000 A 
ATOM     13  C   UNL     1      46.670   3.320   6.378  0.00  0.00    +0.000 A 
ATOM     14  C   UNL     1      47.272   2.328   5.599  0.00  0.00    +0.000 A 
ATOM     15  C   UNL     1      47.376   1.025   6.087  0.00  0.00    +0.000 A 
ATOM     16  C   UNL     1      46.868   0.725   7.348  0.00  0.00    +0.000 A 
ATOM     17  C   UNL     1      46.259   1.700   8.130  0.00  0.00    +0.000 A 
BRANCH  16  18
ATOM     18  O   UNL     1      46.953  -0.535   7.866  0.00  0.00    +0.000 OA
ATOM     19  H   UNL     1      46.894  -1.176   7.138  0.00  0.00    +0.000 HD
ENDBRANCH  16  18
ENDBRANCH   9  12
ENDBRANCH   7  10
ENDBRANCH   1   7
BRANCH   5  20
ATOM     20  C   UNL     1      46.582   3.551  14.292  0.00  0.00    +0.000 C 
BRANCH  20  21
ATOM     21  N   UNL     1      47.573   4.087  15.187  0.00  0.00    +0.000 N 
ATOM     22  C   UNL     1      47.481   3.869  16.541  0.00  0.00    +0.000 C 
ATOM     23  O   UNL     1      46.602   3.163  17.029  0.00  0.00    +0.000 OA
ATOM     24  H   UNL     1      48.131   4.864  14.846  0.00  0.00    +0.000 HD
BRANCH  22  25
ATOM     25  C   UNL     1      48.525   4.474  17.377  0.00  0.00    +0.000 A 
ATOM     26  C   UNL     1      48.319   5.726  17.942  0.00  0.00    +0.000 A 
ATOM     27  S   UNL     1      49.613   6.260  18.916  0.00  0.00    +0.000 S 
ATOM     28  C   UNL     1      50.518   4.861  18.575  0.00  0.00    +0.000 A 
ATOM     29  N   UNL     1      51.769   4.694  19.084  0.00  0.00    +0.000 NA
ATOM     30  C   UNL     1      52.352   3.602  18.722  0.00  0.00    +0.000 A 
ATOM     31  N   UNL     1      51.795   2.656  17.900  0.00  0.00    +0.000 N 
ATOM     32  C   UNL     1      50.527   2.768  17.381  0.00  0.00    +0.000 A 
ATOM     33  O   UNL     1      50.044   1.887  16.679  0.00  0.00    +0.000 OA
ATOM     34  C   UNL     1      49.833   3.987  17.750  0.00  0.00    +0.000 A 
ATOM     35  H   UNL     1      52.300   1.816  17.659  0.00  0.00    +0.000 HD
ENDBRANCH  22  25
ENDBRANCH  20  21
ENDBRANCH   5  20
TORSDOF 7
ENDMDL
MODEL 2
REMARK VINA RESULT:    -9.351      1.050      1.258
REMARK INTER + INTRA:         -13.672
REMARK INTER:                 -12.758
REMARK INTRA:                  -0.915
REMARK UNBOUND:                -0.768
REMARK  Name = 
REMARK  7 active torsions:
REMARK  status: ('A' for Active; 'I' for Inactive)
REMARK    1  A    between atoms: C_2  and  C_25
REMARK    2  A    between atoms: N_3  and  C_4
REMARK    3  A    between atoms: C_4  and  C_5
REMARK    4  A    between atoms: C_9  and  C_10
REMARK    5  A    between atoms: C_10  and  N_11
REMARK    6  A    between atoms: C_12  and  C_14
REMARK    7  A    between atoms: C_29  and  O_30
REMARK                            x       y       z     vdW  Elec       q    Type
REMARK                         _______ _______ _______ _____ _____    ______ ____
ROOT
ATOM      1  C   UNL     1      45.133   5.138  11.483  0.00  0.00    +0.000 A 
ATOM      2  C   UNL     1      45.563   6.471  11.471  0.00  0.00    +0.000 A 
ATOM      3  C   UNL     1      46.481   6.925  12.418  0.00  0.00    +0.000 A 
ATOM      4  C   UNL     1      46.948   6.064  13.412  0.00  0.00    +0.000 A 
ATOM      5  C   UNL     1      46.489   4.741  13.481  0.00  0.00    +0.000 A 
ATOM      6  C   UNL     1      45.606   4.278  12.491  0.00  0.00    +0.000 A 
ENDROOT
BRANCH   1   7
ATOM      7  C   UNL     1      44.124   4.660  10.471  0.00  0.00    +0.000 C 
BRANCH   7  10
ATOM      8  O   UNL     1      45.870   5.256   8.370  0.00  0.00    +0.000 OA
ATOM      9  C   UNL     1      45.567   4.088   8.572  0.00  0.00    +0.000 C 
ATOM     10  N   UNL     1      44.706   3.688   9.571  0.00  0.00    +0.000 N 
ATOM     11  H   UNL     1      44.640   2.711   9.822  0.00  0.00    +0.000 HD
BRANCH   9  12
ATOM     12  C   UNL     1      46.164   3.002   7.749  0.00  0.00    +0.000 A 
ATOM     13  C   UNL     1      46.679   3.323   6.488  0.00  0.00    +0.000 A 
ATOM     14  C   UNL     1      47.262   2.331   5.695  0.00  0.00    +0.000 A 
ATOM     15  C   UNL     1      47.329   1.017   6.158  0.00  0.00    +0.000 A 
ATOM     16  C   UNL     1      46.801   0.705   7.408  0.00  0.00    +0.000 A 
ATOM     17  C   UNL     1      46.209   1.680   8.204  0.00  0.00    +0.000 A 
BRANCH  16  18
ATOM     18  O   UNL     1      46.848  -0.566   7.901  0.00  0.00    +0.000 OA
ATOM     19  H   UNL     1      46.849  -1.191   7.156  0.00  0.00    +0.000 HD
ENDBRANCH  16  18
ENDBRANCH   9  12
ENDBRANCH   7  10
ENDBRANCH   1   7
BRANCH   5  20
ATOM     20  C   UNL     1      46.915   3.849  14.620  0.00  0.00    +0.000 C 
BRANCH  20  21
ATOM     21  N   UNL     1      47.443   4.587  15.736  0.00  0.00    +0.000 N 
ATOM     22  C   UNL     1      47.200   4.175  17.024  0.00  0.00    +0.000 C 
ATOM     23  O   UNL     1      46.589   3.139  17.271  0.00  0.00    +0.000 OA
ATOM     24  H   UNL     1      47.710   5.553  15.567  0.00  0.00    +0.000 HD
BRANCH  22  25
ATOM     25  C   UNL     1      47.760   5.004  18.099  0.00  0.00    +0.000 A 
ATOM     26  C   UNL     1      46.912   5.732  18.923  0.00  0.00    +0.000 A 
ATOM     27  S   UNL     1      47.725   6.605  20.142  0.00  0.00    +0.000 S 
ATOM     28  C   UNL     1      49.243   6.085  19.577  0.00  0.00    +0.000 A 
ATOM     29  N   UNL     1      50.392   6.504  20.172  0.00  0.00    +0.000 NA
ATOM     30  C   UNL     1      51.471   6.056  19.625  0.00  0.00    +0.000 A 
ATOM     31  N   UNL     1      51.505   5.220  18.538  0.00  0.00    +0.000 N 
ATOM     32  C   UNL     1      50.372   4.751  17.919  0.00  0.00    +0.000 A 
ATOM     33  O   UNL     1      50.436   3.975  16.972  0.00  0.00    +0.000 OA
ATOM     34  C   UNL     1      49.130   5.237  18.491  0.00  0.00    +0.000 A 
ATOM     35  H   UNL     1      52.384   4.897  18.160  0.00  0.00    +0.000 HD
ENDBRANCH  22  25
ENDBRANCH  20  21
ENDBRANCH   5  20
TORSDOF 7
ENDMDL
MODEL 3
REMARK VINA RESULT:    -8.864      2.175      3.050
REMARK INTER + INTRA:         -13.000
REMARK INTER:                 -11.813
REMARK INTRA:                  -1.188
REMARK UNBOUND:                -0.768
REMARK  Name = 
REMARK  7 active torsions:
REMARK  status: ('A' for Active; 'I' for Inactive)
REMARK    1  A    between atoms: C_2  and  C_25
REMARK    2  A    between atoms: N_3  and  C_4
REMARK    3  A    between atoms: C_4  and  C_5
REMARK    4  A    between atoms: C_9  and  C_10
REMARK    5  A    between atoms: C_10  and  N_11
REMARK    6  A    between atoms: C_12  and  C_14
REMARK    7  A    between atoms: C_29  and  O_30
REMARK                            x       y       z     vdW  Elec       q    Type
REMARK                         _______ _______ _______ _____ _____    ______ ____
ROOT
ATOM      1  C   UNL     1      45.301   7.091  11.468  0.00  0.00    +0.000 A 
ATOM      2  C   UNL     1      44.738   8.345  11.738  0.00  0.00    +0.000 A 
ATOM      3  C   UNL     1      45.526   9.378  12.246  0.00  0.00    +0.000 A 
ATOM      4  C   UNL     1      46.875   9.158  12.528  0.00  0.00    +0.000 A 
ATOM      5  C   UNL     1      47.449   7.896  12.321  0.00  0.00    +0.000 A 
ATOM      6  C   UNL     1      46.661   6.878  11.760  0.00  0.00    +0.000 A 
ENDROOT
BRANCH   1   7
ATOM      7  C   UNL     1      44.440   5.973  10.941  0.00  0.00    +0.000 C 
BRANCH   7  10
ATOM      8  O   UNL     1      43.714   3.388  10.161  0.00  0.00    +0.000 OA
ATOM      9  C   UNL     1      44.714   3.894   9.670  0.00  0.00    +0.000 C 
ATOM     10  N   UNL     1      45.166   5.154   9.995  0.00  0.00    +0.000 N 
ATOM     11  H   UNL     1      45.873   5.602   9.427  0.00  0.00    +0.000 HD
BRANCH   9  12
ATOM     12  C   UNL     1      45.494   3.166   8.634  0.00  0.00    +0.000 A 
ATOM     13  C   UNL     1      45.990   3.884   7.539  0.00  0.00    +0.000 A 
ATOM     14  C   UNL     1      46.740   3.234   6.555  0.00  0.00    +0.000 A 
ATOM     15  C   UNL     1      46.993   1.867   6.660  0.00  0.00    +0.000 A 
ATOM     16  C   UNL     1      46.484   1.158   7.745  0.00  0.00    +0.000 A 
ATOM     17  C   UNL     1      45.728   1.789   8.726  0.00  0.00    +0.000 A 
BRANCH  16  18
ATOM     18  O   UNL     1      46.711  -0.179   7.889  0.00  0.00    +0.000 OA
ATOM     19  H   UNL     1      46.617  -0.607   7.021  0.00  0.00    +0.000 HD
ENDBRANCH  16  18
ENDBRANCH   9  12
ENDBRANCH   7  10
ENDBRANCH   1   7
BRANCH   5  20
ATOM     20  C   UNL     1      48.878   7.636  12.730  0.00  0.00    +0.000 C 
BRANCH  20  21
ATOM     21  N   UNL     1      48.978   6.797  13.894  0.00  0.00    +0.000 N 
ATOM     22  C   UNL     1      49.049   7.351  15.150  0.00  0.00    +0.000 C 
ATOM     23  O   UNL     1      48.963   8.562  15.333  0.00  0.00    +0.000 OA
ATOM     24  H   UNL     1      49.309   5.847  13.751  0.00  0.00    +0.000 HD
BRANCH  22  25
ATOM     25  C   UNL     1      49.173   6.416  16.276  0.00  0.00    +0.000 A 
ATOM     26  C   UNL     1      50.119   6.650  17.266  0.00  0.00    +0.000 A 
ATOM     27  S   UNL     1      50.099   5.492  18.518  0.00  0.00    +0.000 S 
ATOM     28  C   UNL     1      48.863   4.608  17.754  0.00  0.00    +0.000 A 
ATOM     29  N   UNL     1      48.388   3.454  18.298  0.00  0.00    +0.000 NA
ATOM     30  C   UNL     1      47.473   2.872  17.600  0.00  0.00    +0.000 A 
ATOM     31  N   UNL     1      46.983   3.342  16.408  0.00  0.00    +0.000 N 
ATOM     32  C   UNL     1      47.413   4.513  15.832  0.00  0.00    +0.000 A 
ATOM     33  O   UNL     1      46.929   4.924  14.784  0.00  0.00    +0.000 OA
ATOM     34  C   UNL     1      48.453   5.201  16.573  0.00  0.00    +0.000 A 
ATOM     35  H   UNL     1      46.260   2.842  15.912  0.00  0.00    +0.000 HD
ENDBRANCH  22  25
ENDBRANCH  20  21
ENDBRANCH   5  20
TORSDOF 7
ENDMDL
MODEL 4
REMARK VINA RESULT:    -8.849      1.859      2.445
REMARK INTER + INTRA:         -12.980
REMARK INTER:                 -12.019
REMARK INTRA:                  -0.962
REMARK UNBOUND:                -0.768
REMARK  Name = 
REMARK  7 active torsions:
REMARK  status: ('A' for Active; 'I' for Inactive)
REMARK    1  A    between atoms: C_2  and  C_25
REMARK    2  A    between atoms: N_3  and  C_4
REMARK    3  A    between atoms: C_4  and  C_5
REMARK    4  A    between atoms: C_9  and  C_10
REMARK    5  A    between atoms: C_10  and  N_11
REMARK    6  A    between atoms: C_12  and  C_14
REMARK    7  A    between atoms: C_29  and  O_30
REMARK                            x       y       z     vdW  Elec       q    Type
REMARK                         _______ _______ _______ _____ _____    ______ ____
ROOT
ATOM      1  C   UNL     1      44.754   4.837  11.287  0.00  0.00    +0.000 A 
ATOM      2  C   UNL     1      44.914   3.741  12.143  0.00  0.00    +0.000 A 
ATOM      3  C   UNL     1      45.665   3.862  13.312  0.00  0.00    +0.000 A 
ATOM      4  C   UNL     1      46.297   5.068  13.618  0.00  0.00    +0.000 A 
ATOM      5  C   UNL     1      46.200   6.163  12.749  0.00  0.00    +0.000 A 
ATOM      6  C   UNL     1      45.398   6.048  11.602  0.00  0.00    +0.000 A 
ENDROOT
BRANCH   1   7
ATOM      7  C   UNL     1      43.960   4.694  10.014  0.00  0.00    +0.000 C 
BRANCH   7  10
ATOM      8  O   UNL     1      46.130   5.137   8.307  0.00  0.00    +0.000 OA
ATOM      9  C   UNL     1      45.625   4.023   8.344  0.00  0.00    +0.000 C 
ATOM     10  N   UNL     1      44.547   3.703   9.139  0.00  0.00    +0.000 N 
ATOM     11  H   UNL     1      44.292   2.735   9.283  0.00  0.00    +0.000 HD
BRANCH   9  12
ATOM     12  C   UNL     1      46.196   2.911   7.537  0.00  0.00    +0.000 A 
ATOM     13  C   UNL     1      46.609   3.178   6.226  0.00  0.00    +0.000 A 
ATOM     14  C   UNL     1      47.165   2.161   5.445  0.00  0.00    +0.000 A 
ATOM     15  C   UNL     1      47.306   0.876   5.970  0.00  0.00    +0.000 A 
ATOM     16  C   UNL     1      46.880   0.618   7.270  0.00  0.00    +0.000 A 
ATOM     17  C   UNL     1      46.316   1.617   8.055  0.00  0.00    +0.000 A 
BRANCH  16  18
ATOM     18  O   UNL     1      47.004  -0.623   7.824  0.00  0.00    +0.000 OA
ATOM     19  H   UNL     1      47.946  -0.801   7.983  0.00  0.00    +0.000 HD
ENDBRANCH  16  18
ENDBRANCH   9  12
ENDBRANCH   7  10
ENDBRANCH   1   7
BRANCH   5  20
ATOM     20  C   UNL     1      46.973   7.427  13.032  0.00  0.00    +0.000 C 
BRANCH  20  21
ATOM     21  N   UNL     1      47.383   7.531  14.407  0.00  0.00    +0.000 N 
ATOM     22  C   UNL     1      48.665   7.208  14.780  0.00  0.00    +0.000 C 
ATOM     23  O   UNL     1      49.520   6.887  13.959  0.00  0.00    +0.000 OA
ATOM     24  H   UNL     1      46.648   7.535  15.109  0.00  0.00    +0.000 HD
BRANCH  22  25
ATOM     25  C   UNL     1      48.985   7.324  16.209  0.00  0.00    +0.000 A 
ATOM     26  C   UNL     1      49.322   8.561  16.743  0.00  0.00    +0.000 A 
ATOM     27  S   UNL     1      49.621   8.522  18.422  0.00  0.00    +0.000 S 
ATOM     28  C   UNL     1      49.365   6.842  18.484  0.00  0.00    +0.000 A 
ATOM     29  N   UNL     1      49.500   6.155  19.651  0.00  0.00    +0.000 NA
ATOM     30  C   UNL     1      49.304   4.884  19.549  0.00  0.00    +0.000 A 
ATOM     31  N   UNL     1      48.980   4.236  18.384  0.00  0.00    +0.000 N 
ATOM     32  C   UNL     1      48.809   4.889  17.187  0.00  0.00    +0.000 A 
ATOM     33  O   UNL     1      48.483   4.285  16.172  0.00  0.00    +0.000 OA
ATOM     34  C   UNL     1      49.030   6.321  17.247  0.00  0.00    +0.000 A 
ATOM     35  H   UNL     1      48.832   3.238  18.371  0.00  0.00    +0.000 HD
ENDBRANCH  22  25
ENDBRANCH  20  21
ENDBRANCH   5  20
TORSDOF 7
ENDMDL
MODEL 5
REMARK VINA RESULT:    -8.584      2.349      3.533
REMARK INTER + INTRA:         -12.615
REMARK INTER:                 -11.493
REMARK INTRA:                  -1.122
REMARK UNBOUND:                -0.768
REMARK  Name = 
REMARK  7 active torsions:
REMARK  status: ('A' for Active; 'I' for Inactive)
REMARK    1  A    between atoms: C_2  and  C_25
REMARK    2  A    between atoms: N_3  and  C_4
REMARK    3  A    between atoms: C_4  and  C_5
REMARK    4  A    between atoms: C_9  and  C_10
REMARK    5  A    between atoms: C_10  and  N_11
REMARK    6  A    between atoms: C_12  and  C_14
REMARK    7  A    between atoms: C_29  and  O_30
REMARK                            x       y       z     vdW  Elec       q    Type
REMARK                         _______ _______ _______ _____ _____    ______ ____
ROOT
ATOM      1  C   UNL     1      45.269   7.297  12.402  0.00  0.00    +0.000 A 
ATOM      2  C   UNL     1      44.672   8.321  11.657  0.00  0.00    +0.000 A 
ATOM      3  C   UNL     1      45.244   9.592  11.620  0.00  0.00    +0.000 A 
ATOM      4  C   UNL     1      46.396   9.865  12.360  0.00  0.00    +0.000 A 
ATOM      5  C   UNL     1      46.980   8.873  13.159  0.00  0.00    +0.000 A 
ATOM      6  C   UNL     1      46.427   7.582  13.148  0.00  0.00    +0.000 A 
ENDROOT
BRANCH   1   7
ATOM      7  C   UNL     1      44.634   5.931  12.456  0.00  0.00    +0.000 C 
BRANCH   7  10
ATOM      8  O   UNL     1      43.217   4.937  10.260  0.00  0.00    +0.000 OA
ATOM      9  C   UNL     1      44.396   4.634  10.389  0.00  0.00    +0.000 C 
ATOM     10  N   UNL     1      45.179   5.060  11.439  0.00  0.00    +0.000 N 
ATOM     11  H   UNL     1      46.183   4.949  11.400  0.00  0.00    +0.000 HD
BRANCH   9  12
ATOM     12  C   UNL     1      45.074   3.800   9.361  0.00  0.00    +0.000 A 
ATOM     13  C   UNL     1      45.067   2.409   9.514  0.00  0.00    +0.000 A 
ATOM     14  C   UNL     1      45.681   1.594   8.559  0.00  0.00    +0.000 A 
ATOM     15  C   UNL     1      46.307   2.167   7.452  0.00  0.00    +0.000 A 
ATOM     16  C   UNL     1      46.322   3.553   7.315  0.00  0.00    +0.000 A 
ATOM     17  C   UNL     1      45.723   4.376   8.262  0.00  0.00    +0.000 A 
BRANCH  16  18
ATOM     18  O   UNL     1      46.918   4.154   6.246  0.00  0.00    +0.000 OA
ATOM     19  H   UNL     1      47.139   5.070   6.485  0.00  0.00    +0.000 HD
ENDBRANCH  16  18
ENDBRANCH   9  12
ENDBRANCH   7  10
ENDBRANCH   1   7
BRANCH   5  20
ATOM     20  C   UNL     1      48.160   9.205  14.039  0.00  0.00    +0.000 C 
BRANCH  20  21
ATOM     21  N   UNL     1      48.247   8.354  15.196  0.00  0.00    +0.000 N 
ATOM     22  C   UNL     1      49.067   7.251  15.191  0.00  0.00    +0.000 C 
ATOM     23  O   UNL     1      49.798   6.988  14.240  0.00  0.00    +0.000 OA
ATOM     24  H   UNL     1      47.481   8.400  15.862  0.00  0.00    +0.000 HD
BRANCH  22  25
ATOM     25  C   UNL     1      49.073   6.429  16.408  0.00  0.00    +0.000 A 
ATOM     26  C   UNL     1      49.788   6.850  17.522  0.00  0.00    +0.000 A 
ATOM     27  S   UNL     1      49.652   5.799  18.859  0.00  0.00    +0.000 S 
ATOM     28  C   UNL     1      48.677   4.718  17.979  0.00  0.00    +0.000 A 
ATOM     29  N   UNL     1      48.229   3.563  18.542  0.00  0.00    +0.000 NA
ATOM     30  C   UNL     1      47.524   2.824  17.754  0.00  0.00    +0.000 A 
ATOM     31  N   UNL     1      47.220   3.138  16.454  0.00  0.00    +0.000 N 
ATOM     32  C   UNL     1      47.629   4.302  15.850  0.00  0.00    +0.000 A 
ATOM     33  O   UNL     1      47.309   4.570  14.698  0.00  0.00    +0.000 OA
ATOM     34  C   UNL     1      48.437   5.164  16.692  0.00  0.00    +0.000 A 
ATOM     35  H   UNL     1      46.656   2.519  15.890  0.00  0.00    +0.000 HD
ENDBRANCH  22  25
ENDBRANCH  20  21
ENDBRANCH   5  20
TORSDOF 7
ENDMDL
MODEL 6
REMARK VINA RESULT:    -8.372      4.567      5.587
REMARK INTER + INTRA:         -12.321
REMARK INTER:                 -11.288
REMARK INTRA:                  -1.033
REMARK UNBOUND:                -0.768
REMARK  Name = 
REMARK  7 active torsions:
REMARK  status: ('A' for Active; 'I' for Inactive)
REMARK    1  A    between atoms: C_2  and  C_25
REMARK    2  A    between atoms: N_3  and  C_4
REMARK    3  A    between atoms: C_4  and  C_5
REMARK    4  A    between atoms: C_9  and  C_10
REMARK    5  A    between atoms: C_10  and  N_11
REMARK    6  A    between atoms: C_12  and  C_14
REMARK    7  A    between atoms: C_29  and  O_30
REMARK                            x       y       z     vdW  Elec       q    Type
REMARK                         _______ _______ _______ _____ _____    ______ ____
ROOT
ATOM      1  C   UNL     1      44.426   5.104  11.224  0.00  0.00    +0.000 A 
ATOM      2  C   UNL     1      45.129   4.160  11.985  0.00  0.00    +0.000 A 
ATOM      3  C   UNL     1      45.888   4.563  13.083  0.00  0.00    +0.000 A 
ATOM      4  C   UNL     1      45.986   5.917  13.409  0.00  0.00    +0.000 A 
ATOM      5  C   UNL     1      45.339   6.886  12.630  0.00  0.00    +0.000 A 
ATOM      6  C   UNL     1      44.534   6.466  11.558  0.00  0.00    +0.000 A 
ENDROOT
BRANCH   1   7
ATOM      7  C   UNL     1      43.626   4.664  10.025  0.00  0.00    +0.000 C 
BRANCH   7  10
ATOM      8  O   UNL     1      45.856   5.232   8.439  0.00  0.00    +0.000 OA
ATOM      9  C   UNL     1      45.450   4.079   8.496  0.00  0.00    +0.000 C 
ATOM     10  N   UNL     1      44.354   3.696   9.236  0.00  0.00    +0.000 N 
ATOM     11  H   UNL     1      44.176   2.715   9.408  0.00  0.00    +0.000 HD
BRANCH   9  12
ATOM     12  C   UNL     1      46.169   2.992   7.778  0.00  0.00    +0.000 A 
ATOM     13  C   UNL     1      46.077   1.686   8.273  0.00  0.00    +0.000 A 
ATOM     14  C   UNL     1      46.726   0.639   7.614  0.00  0.00    +0.000 A 
ATOM     15  C   UNL     1      47.472   0.894   6.463  0.00  0.00    +0.000 A 
ATOM     16  C   UNL     1      47.570   2.199   5.987  0.00  0.00    +0.000 A 
ATOM     17  C   UNL     1      46.937   3.252   6.637  0.00  0.00    +0.000 A 
BRANCH  16  18
ATOM     18  O   UNL     1      48.285   2.492   4.863  0.00  0.00    +0.000 OA
ATOM     19  H   UNL     1      47.909   1.998   4.115  0.00  0.00    +0.000 HD
ENDBRANCH  16  18
ENDBRANCH   9  12
ENDBRANCH   7  10
ENDBRANCH   1   7
BRANCH   5  20
ATOM     20  C   UNL     1      45.538   8.352  12.924  0.00  0.00    +0.000 C 
BRANCH  20  21
ATOM     21  N   UNL     1      46.903   8.772  12.755  0.00  0.00    +0.000 N 
ATOM     22  C   UNL     1      47.203   9.892  12.018  0.00  0.00    +0.000 C 
ATOM     23  O   UNL     1      46.329  10.607  11.535  0.00  0.00    +0.000 OA
ATOM     24  H   UNL     1      47.624   8.074  12.913  0.00  0.00    +0.000 HD
BRANCH  22  25
ATOM     25  C   UNL     1      48.626  10.230  11.882  0.00  0.00    +0.000 A 
ATOM     26  C   UNL     1      49.028  11.559  11.931  0.00  0.00    +0.000 A 
ATOM     27  S   UNL     1      50.715  11.768  11.799  0.00  0.00    +0.000 S 
ATOM     28  C   UNL     1      50.964  10.096  11.617  0.00  0.00    +0.000 A 
ATOM     29  N   UNL     1      52.212   9.590  11.426  0.00  0.00    +0.000 NA
ATOM     30  C   UNL     1      52.252   8.309  11.276  0.00  0.00    +0.000 A 
ATOM     31  N   UNL     1      51.156   7.486  11.305  0.00  0.00    +0.000 N 
ATOM     32  C   UNL     1      49.879   7.947  11.518  0.00  0.00    +0.000 A 
ATOM     33  O   UNL     1      48.925   7.179  11.575  0.00  0.00    +0.000 OA
ATOM     34  C   UNL     1      49.779   9.384  11.682  0.00  0.00    +0.000 A 
ATOM     35  H   UNL     1      51.254   6.488  11.187  0.00  0.00    +0.000 HD
ENDBRANCH  22  25
ENDBRANCH  20  21
ENDBRANCH   5  20
TORSDOF 7
ENDMDL
MODEL 7
REMARK VINA RESULT:    -7.722      4.141     10.206
REMARK INTER + INTRA:         -11.425
REMARK INTER:                 -10.286
REMARK INTRA:                  -1.139
REMARK UNBOUND:                -0.768
REMARK  Name = 
REMARK  7 active torsions:
REMARK  status: ('A' for Active; 'I' for Inactive)
REMARK    1  A    between atoms: C_2  and  C_25
REMARK    2  A    between atoms: N_3  and  C_4
REMARK    3  A    between atoms: C_4  and  C_5
REMARK    4  A    between atoms: C_9  and  C_10
REMARK    5  A    between atoms: C_10  and  N_11
REMARK    6  A    between atoms: C_12  and  C_14
REMARK    7  A    between atoms: C_29  and  O_30
REMARK                            x       y       z     vdW  Elec       q    Type
REMARK                         _______ _______ _______ _____ _____    ______ ____
ROOT
ATOM      1  C   UNL     1      50.678   4.623  17.943  0.00  0.00    +0.000 A 
ATOM      2  C   UNL     1      51.476   3.475  17.855  0.00  0.00    +0.000 A 
ATOM      3  C   UNL     1      50.946   2.284  17.360  0.00  0.00    +0.000 A 
ATOM      4  C   UNL     1      49.604   2.215  16.984  0.00  0.00    +0.000 A 
ATOM      5  C   UNL     1      48.769   3.334  17.116  0.00  0.00    +0.000 A 
ATOM      6  C   UNL     1      49.325   4.543  17.566  0.00  0.00    +0.000 A 
ENDROOT
BRANCH   1   7
ATOM      7  C   UNL     1      51.250   5.901  18.499  0.00  0.00    +0.000 C 
BRANCH   7  10
ATOM      8  O   UNL     1      49.738   6.609  20.742  0.00  0.00    +0.000 OA
ATOM      9  C   UNL     1      49.572   7.226  19.698  0.00  0.00    +0.000 C 
ATOM     10  N   UNL     1      50.254   6.949  18.535  0.00  0.00    +0.000 N 
ATOM     11  H   UNL     1      50.228   7.602  17.763  0.00  0.00    +0.000 HD
BRANCH   9  12
ATOM     12  C   UNL     1      48.622   8.371  19.644  0.00  0.00    +0.000 A 
ATOM     13  C   UNL     1      47.818   8.628  20.761  0.00  0.00    +0.000 A 
ATOM     14  C   UNL     1      46.927   9.704  20.750  0.00  0.00    +0.000 A 
ATOM     15  C   UNL     1      46.835  10.523  19.625  0.00  0.00    +0.000 A 
ATOM     16  C   UNL     1      47.629  10.250  18.513  0.00  0.00    +0.000 A 
ATOM     17  C   UNL     1      48.512   9.177  18.506  0.00  0.00    +0.000 A 
BRANCH  16  18
ATOM     18  O   UNL     1      47.573  11.028  17.394  0.00  0.00    +0.000 OA
ATOM     19  H   UNL     1      47.763  10.473  16.619  0.00  0.00    +0.000 HD
ENDBRANCH  16  18
ENDBRANCH   9  12
ENDBRANCH   7  10
ENDBRANCH   1   7
BRANCH   5  20
ATOM     20  C   UNL     1      47.296   3.222  16.811  0.00  0.00    +0.000 C 
BRANCH  20  21
ATOM     21  N   UNL     1      46.837   4.244  15.908  0.00  0.00    +0.000 N 
ATOM     22  C   UNL     1      46.896   4.052  14.549  0.00  0.00    +0.000 C 
ATOM     23  O   UNL     1      47.273   2.992  14.057  0.00  0.00    +0.000 OA
ATOM     24  H   UNL     1      46.777   5.190  16.273  0.00  0.00    +0.000 HD
BRANCH  22  25
ATOM     25  C   UNL     1      46.426   5.159  13.706  0.00  0.00    +0.000 A 
ATOM     26  C   UNL     1      47.200   6.305  13.577  0.00  0.00    +0.000 A 
ATOM     27  S   UNL     1      46.526   7.471  12.530  0.00  0.00    +0.000 S 
ATOM     28  C   UNL     1      45.151   6.509  12.255  0.00  0.00    +0.000 A 
ATOM     29  N   UNL     1      44.140   6.945  11.455  0.00  0.00    +0.000 NA
ATOM     30  C   UNL     1      43.147   6.128  11.356  0.00  0.00    +0.000 A 
ATOM     31  N   UNL     1      43.075   4.909  11.981  0.00  0.00    +0.000 N 
ATOM     32  C   UNL     1      44.080   4.416  12.778  0.00  0.00    +0.000 A 
ATOM     33  O   UNL     1      44.000   3.306  13.293  0.00  0.00    +0.000 OA
ATOM     34  C   UNL     1      45.216   5.304  12.931  0.00  0.00    +0.000 A 
ATOM     35  H   UNL     1      42.271   4.310  11.858  0.00  0.00    +0.000 HD
ENDBRANCH  22  25
ENDBRANCH  20  21
ENDBRANCH   5  20
TORSDOF 7
ENDMDL
MODEL 8
REMARK VINA RESULT:    -7.586      2.738      3.270
REMARK INTER + INTRA:         -11.237
REMARK INTER:                 -10.675
REMARK INTRA:                  -0.562
REMARK UNBOUND:                -0.768
REMARK  Name = 
REMARK  7 active torsions:
REMARK  status: ('A' for Active; 'I' for Inactive)
REMARK    1  A    between atoms: C_2  and  C_25
REMARK    2  A    between atoms: N_3  and  C_4
REMARK    3  A    between atoms: C_4  and  C_5
REMARK    4  A    between atoms: C_9  and  C_10
REMARK    5  A    between atoms: C_10  and  N_11
REMARK    6  A    between atoms: C_12  and  C_14
REMARK    7  A    between atoms: C_29  and  O_30
REMARK                            x       y       z     vdW  Elec       q    Type
REMARK                         _______ _______ _______ _____ _____    ______ ____
ROOT
ATOM      1  C   UNL     1      44.763   4.754  11.224  0.00  0.00    +0.000 A 
ATOM      2  C   UNL     1      44.894   3.659  12.088  0.00  0.00    +0.000 A 
ATOM      3  C   UNL     1      45.575   3.792  13.297  0.00  0.00    +0.000 A 
ATOM      4  C   UNL     1      46.168   5.008  13.638  0.00  0.00    +0.000 A 
ATOM      5  C   UNL     1      46.101   6.103  12.765  0.00  0.00    +0.000 A 
ATOM      6  C   UNL     1      45.367   5.975  11.575  0.00  0.00    +0.000 A 
ENDROOT
BRANCH   1   7
ATOM      7  C   UNL     1      44.044   4.598   9.908  0.00  0.00    +0.000 C 
BRANCH   7  10
ATOM      8  O   UNL     1      46.150   5.034   8.122  0.00  0.00    +0.000 OA
ATOM      9  C   UNL     1      45.707   3.900   8.248  0.00  0.00    +0.000 C 
ATOM     10  N   UNL     1      44.665   3.581   9.090  0.00  0.00    +0.000 N 
ATOM     11  H   UNL     1      44.466   2.613   9.306  0.00  0.00    +0.000 HD
BRANCH   9  12
ATOM     12  C   UNL     1      46.321   2.767   7.505  0.00  0.00    +0.000 A 
ATOM     13  C   UNL     1      46.289   1.491   8.081  0.00  0.00    +0.000 A 
ATOM     14  C   UNL     1      46.841   0.401   7.404  0.00  0.00    +0.000 A 
ATOM     15  C   UNL     1      47.430   0.583   6.153  0.00  0.00    +0.000 A 
ATOM     16  C   UNL     1      47.470   1.858   5.594  0.00  0.00    +0.000 A 
ATOM     17  C   UNL     1      46.933   2.953   6.260  0.00  0.00    +0.000 A 
BRANCH  16  18
ATOM     18  O   UNL     1      48.033   2.079   4.371  0.00  0.00    +0.000 OA
ATOM     19  H   UNL     1      48.926   1.696   4.364  0.00  0.00    +0.000 HD
ENDBRANCH  16  18
ENDBRANCH   9  12
ENDBRANCH   7  10
ENDBRANCH   1   7
BRANCH   5  20
ATOM     20  C   UNL     1      46.835   7.380  13.092  0.00  0.00    +0.000 C 
BRANCH  20  21
ATOM     21  N   UNL     1      47.580   7.294  14.320  0.00  0.00    +0.000 N 
ATOM     22  C   UNL     1      48.920   6.989  14.304  0.00  0.00    +0.000 C 
ATOM     23  O   UNL     1      49.542   6.846  13.256  0.00  0.00    +0.000 OA
ATOM     24  H   UNL     1      47.048   7.149  15.173  0.00  0.00    +0.000 HD
BRANCH  22  25
ATOM     25  C   UNL     1      49.590   6.901  15.608  0.00  0.00    +0.000 A 
ATOM     26  C   UNL     1      48.900   6.410  16.708  0.00  0.00    +0.000 A 
ATOM     27  S   UNL     1      49.840   6.337  18.129  0.00  0.00    +0.000 S 
ATOM     28  C   UNL     1      51.187   7.010  17.338  0.00  0.00    +0.000 A 
ATOM     29  N   UNL     1      52.346   7.250  18.009  0.00  0.00    +0.000 NA
ATOM     30  C   UNL     1      53.275   7.787  17.295  0.00  0.00    +0.000 A 
ATOM     31  N   UNL     1      53.154   8.102  15.965  0.00  0.00    +0.000 N 
ATOM     32  C   UNL     1      52.013   7.856  15.240  0.00  0.00    +0.000 A 
ATOM     33  O   UNL     1      51.950   8.116  14.043  0.00  0.00    +0.000 OA
ATOM     34  C   UNL     1      50.932   7.262  16.002  0.00  0.00    +0.000 A 
ATOM     35  H   UNL     1      53.922   8.516  15.458  0.00  0.00    +0.000 HD
ENDBRANCH  22  25
ENDBRANCH  20  21
ENDBRANCH   5  20
TORSDOF 7
ENDMDL
MODEL 9
REMARK VINA RESULT:    -7.564      4.384      8.474
REMARK INTER + INTRA:         -11.207
REMARK INTER:                  -9.650
REMARK INTRA:                  -1.557
REMARK UNBOUND:                -0.768
REMARK  Name = 
REMARK  7 active torsions:
REMARK  status: ('A' for Active; 'I' for Inactive)
REMARK    1  A    between atoms: C_2  and  C_25
REMARK    2  A    between atoms: N_3  and  C_4
REMARK    3  A    between atoms: C_4  and  C_5
REMARK    4  A    between atoms: C_9  and  C_10
REMARK    5  A    between atoms: C_10  and  N_11
REMARK    6  A    between atoms: C_12  and  C_14
REMARK    7  A    between atoms: C_29  and  O_30
REMARK                            x       y       z     vdW  Elec       q    Type
REMARK                         _______ _______ _______ _____ _____    ______ ____
ROOT
ATOM      1  C   UNL     1      49.848   6.200  17.938  0.00  0.00    +0.000 A 
ATOM      2  C   UNL     1      49.878   5.772  19.272  0.00  0.00    +0.000 A 
ATOM      3  C   UNL     1      49.202   4.615  19.657  0.00  0.00    +0.000 A 
ATOM      4  C   UNL     1      48.456   3.894  18.724  0.00  0.00    +0.000 A 
ATOM      5  C   UNL     1      48.363   4.332  17.395  0.00  0.00    +0.000 A 
ATOM      6  C   UNL     1      49.091   5.468  17.005  0.00  0.00    +0.000 A 
ENDROOT
BRANCH   1   7
ATOM      7  C   UNL     1      50.562   7.463  17.533  0.00  0.00    +0.000 C 
BRANCH   7  10
ATOM      8  O   UNL     1      51.898   7.658  15.085  0.00  0.00    +0.000 OA
ATOM      9  C   UNL     1      50.743   8.055  15.161  0.00  0.00    +0.000 C 
ATOM     10  N   UNL     1      50.001   8.016  16.320  0.00  0.00    +0.000 N 
ATOM     11  H   UNL     1      49.002   8.169  16.289  0.00  0.00    +0.000 HD
BRANCH   9  12
ATOM     12  C   UNL     1      50.046   8.577  13.954  0.00  0.00    +0.000 A 
ATOM     13  C   UNL     1      50.367   8.031  12.706  0.00  0.00    +0.000 A 
ATOM     14  C   UNL     1      49.720   8.486  11.554  0.00  0.00    +0.000 A 
ATOM     15  C   UNL     1      48.756   9.490  11.645  0.00  0.00    +0.000 A 
ATOM     16  C   UNL     1      48.454  10.037  12.890  0.00  0.00    +0.000 A 
ATOM     17  C   UNL     1      49.096   9.600  14.043  0.00  0.00    +0.000 A 
BRANCH  16  18
ATOM     18  O   UNL     1      47.515  11.017  13.025  0.00  0.00    +0.000 OA
ATOM     19  H   UNL     1      46.667  10.606  13.263  0.00  0.00    +0.000 HD
ENDBRANCH  16  18
ENDBRANCH   9  12
ENDBRANCH   7  10
ENDBRANCH   1   7
BRANCH   5  20
ATOM     20  C   UNL     1      47.469   3.609  16.419  0.00  0.00    +0.000 C 
BRANCH  20  21
ATOM     21  N   UNL     1      46.751   4.507  15.554  0.00  0.00    +0.000 N 
ATOM     22  C   UNL     1      46.860   4.397  14.189  0.00  0.00    +0.000 C 
ATOM     23  O   UNL     1      47.511   3.502  13.657  0.00  0.00    +0.000 OA
ATOM     24  H   UNL     1      46.436   5.384  15.958  0.00  0.00    +0.000 HD
BRANCH  22  25
ATOM     25  C   UNL     1      46.109   5.372  13.387  0.00  0.00    +0.000 A 
ATOM     26  C   UNL     1      46.642   6.634  13.156  0.00  0.00    +0.000 A 
ATOM     27  S   UNL     1      45.658   7.622  12.174  0.00  0.00    +0.000 S 
ATOM     28  C   UNL     1      44.461   6.420  12.068  0.00  0.00    +0.000 A 
ATOM     29  N   UNL     1      43.308   6.638  11.379  0.00  0.00    +0.000 NA
ATOM     30  C   UNL     1      42.476   5.652  11.404  0.00  0.00    +0.000 A 
ATOM     31  N   UNL     1      42.695   4.463  12.051  0.00  0.00    +0.000 N 
ATOM     32  C   UNL     1      43.852   4.187  12.738  0.00  0.00    +0.000 A 
ATOM     33  O   UNL     1      44.032   3.099  13.275  0.00  0.00    +0.000 OA
ATOM     34  C   UNL     1      44.817   5.270  12.750  0.00  0.00    +0.000 A 
ATOM     35  H   UNL     1      42.006   3.726  12.027  0.00  0.00    +0.000 HD
ENDBRANCH  22  25
ENDBRANCH  20  21
ENDBRANCH   5  20
TORSDOF 7
ENDMDL
