MODEL 1
REMARK VINA RESULT:    -6.951      0.000      0.000
REMARK INTER + INTRA:         -10.113
REMARK INTER:                  -9.186
REMARK INTRA:                  -0.928
REMARK UNBOUND:                -0.928
REMARK  Name = 
REMARK  6 active torsions:
REMARK  status: ('A' for Active; 'I' for Inactive)
REMARK    1  A    between atoms: C_2  and  C_4
REMARK    2  A    between atoms: C_8  and  O_9
REMARK    3  A    between atoms: C_10  and  C_11
REMARK    4  A    between atoms: C_11  and  N_12
REMARK    5  A    between atoms: N_12  and  C_13
REMARK    6  A    between atoms: C_17  and  N_18
REMARK                            x       y       z     vdW  Elec       q    Type
REMARK                         _______ _______ _______ _____ _____    ______ ____
ROOT
ATOM      1  N   UNL     1      47.143   3.537  15.246  0.00  0.00    +0.000 N 
ATOM      2  H   UNL     1      47.803   2.847  14.889  0.00  0.00    +0.000 HD
ENDROOT
BRANCH   1   3
ATOM      3  C   UNL     1      47.078   4.698  14.464  0.00  0.00    +0.000 A 
ATOM      4  C   UNL     1      47.930   5.768  14.743  0.00  0.00    +0.000 A 
ATOM      5  C   UNL     1      47.898   6.920  13.961  0.00  0.00    +0.000 A 
ATOM      6  C   UNL     1      47.030   6.999  12.868  0.00  0.00    +0.000 A 
ATOM      7  C   UNL     1      46.193   5.932  12.515  0.00  0.00    +0.000 A 
ATOM      8  C   UNL     1      46.255   4.789  13.327  0.00  0.00    +0.000 A 
BRANCH   7   9
ATOM      9  N   UNL     1      45.332   6.025  11.434  0.00  0.00    +0.000 N 
ATOM     10  C   UNL     1      43.870   6.057  11.598  0.00  0.00    +0.000 C 
ATOM     11  C   UNL     1      43.205   4.804  10.990  0.00  0.00    +0.000 C 
ATOM     12  N   UNL     1      43.581   4.583   9.575  0.00  0.00    +0.000 NA
ATOM     13  C   UNL     1      45.053   4.466   9.507  0.00  0.00    +0.000 C 
ATOM     14  C   UNL     1      45.815   5.685  10.086  0.00  0.00    +0.000 C 
ATOM     15  H   UNL     1      43.309   5.414   9.050  0.00  0.00    +0.000 HD
ENDBRANCH   7   9
ENDBRANCH   1   3
BRANCH   1  16
ATOM     16  C   UNL     1      47.268   3.716  16.694  0.00  0.00    +0.000 C 
BRANCH  16  22
ATOM     17  C   UNL     1      49.123   4.557  18.173  0.00  0.00    +0.000 A 
ATOM     18  N   UNL     1      50.391   4.580  18.701  0.00  0.00    +0.000 NA
ATOM     19  C   UNL     1      51.241   3.619  18.300  0.00  0.00    +0.000 A 
ATOM     20  C   UNL     1      50.900   2.625  17.409  0.00  0.00    +0.000 A 
ATOM     21  C   UNL     1      49.611   2.630  16.881  0.00  0.00    +0.000 A 
ATOM     22  C   UNL     1      48.674   3.608  17.243  0.00  0.00    +0.000 A 
BRANCH  17  24
ATOM     23  N   UNL     1      47.544   5.382  19.837  0.00  0.00    +0.000 N 
ATOM     24  C   UNL     1      48.246   5.680  18.698  0.00  0.00    +0.000 C 
ATOM     25  O   UNL     1      48.135   6.781  18.176  0.00  0.00    +0.000 OA
ATOM     26  H   UNL     1      46.917   6.064  20.235  0.00  0.00    +0.000 HD
ATOM     27  H   UNL     1      47.626   4.452  20.238  0.00  0.00    +0.000 HD
ENDBRANCH  17  24
BRANCH  21  28
ATOM     28  O   UNL     1      49.284   1.665  15.966  0.00  0.00    +0.000 OA
ATOM     29  H   UNL     1      50.047   1.485  15.389  0.00  0.00    +0.000 HD
ENDBRANCH  21  28
ENDBRANCH  16  22
ENDBRANCH   1  16
TORSDOF 6
ENDMDL
MODEL 2
REMARK VINA RESULT:    -6.822      1.793      2.832
REMARK INTER + INTRA:          -9.943
REMARK INTER:                  -8.880
REMARK INTRA:                  -1.063
REMARK UNBOUND:                -0.928
REMARK  Name = 
REMARK  6 active torsions:
REMARK  status: ('A' for Active; 'I' for Inactive)
REMARK    1  A    between atoms: C_2  and  C_4
REMARK    2  A    between atoms: C_8  and  O_9
REMARK    3  A    between atoms: C_10  and  C_11
REMARK    4  A    between atoms: C_11  and  N_12
REMARK    5  A    between atoms: N_12  and  C_13
REMARK    6  A    between atoms: C_17  and  N_18
REMARK                            x       y       z     vdW  Elec       q    Type
REMARK                         _______ _______ _______ _____ _____    ______ ____
ROOT
ATOM      1  N   UNL     1      48.863   6.829  15.057  0.00  0.00    +0.000 N 
ATOM      2  H   UNL     1      49.084   7.803  15.264  0.00  0.00    +0.000 HD
ENDROOT
BRANCH   1   3
ATOM      3  C   UNL     1      48.039   6.673  13.935  0.00  0.00    +0.000 A 
ATOM      4  C   UNL     1      48.346   7.349  12.753  0.00  0.00    +0.000 A 
ATOM      5  C   UNL     1      47.554   7.188  11.619  0.00  0.00    +0.000 A 
ATOM      6  C   UNL     1      46.461   6.317  11.649  0.00  0.00    +0.000 A 
ATOM      7  C   UNL     1      46.142   5.575  12.795  0.00  0.00    +0.000 A 
ATOM      8  C   UNL     1      46.965   5.766  13.915  0.00  0.00    +0.000 A 
BRANCH   7   9
ATOM      9  N   UNL     1      45.052   4.721  12.814  0.00  0.00    +0.000 N 
ATOM     10  C   UNL     1      45.126   3.347  12.293  0.00  0.00    +0.000 C 
ATOM     11  C   UNL     1      44.226   3.163  11.053  0.00  0.00    +0.000 C 
ATOM     12  N   UNL     1      42.824   3.570  11.294  0.00  0.00    +0.000 NA
ATOM     13  C   UNL     1      42.827   4.986  11.720  0.00  0.00    +0.000 C 
ATOM     14  C   UNL     1      43.697   5.271  12.970  0.00  0.00    +0.000 C 
ATOM     15  H   UNL     1      42.470   3.011  12.070  0.00  0.00    +0.000 HD
ENDBRANCH   7   9
ENDBRANCH   1   3
BRANCH   1  16
ATOM     16  C   UNL     1      48.492   6.085  16.263  0.00  0.00    +0.000 C 
BRANCH  16  22
ATOM     17  C   UNL     1      49.264   3.768  16.877  0.00  0.00    +0.000 A 
ATOM     18  N   UNL     1      50.129   2.829  17.383  0.00  0.00    +0.000 NA
ATOM     19  C   UNL     1      51.326   3.265  17.813  0.00  0.00    +0.000 A 
ATOM     20  C   UNL     1      51.719   4.585  17.758  0.00  0.00    +0.000 A 
ATOM     21  C   UNL     1      50.819   5.518  17.249  0.00  0.00    +0.000 A 
ATOM     22  C   UNL     1      49.549   5.139  16.793  0.00  0.00    +0.000 A 
BRANCH  17  24
ATOM     23  N   UNL     1      46.996   3.038  17.392  0.00  0.00    +0.000 N 
ATOM     24  C   UNL     1      47.948   3.168  16.415  0.00  0.00    +0.000 C 
ATOM     25  O   UNL     1      47.709   2.807  15.269  0.00  0.00    +0.000 OA
ATOM     26  H   UNL     1      46.103   2.623  17.173  0.00  0.00    +0.000 HD
ATOM     27  H   UNL     1      47.223   3.315  18.342  0.00  0.00    +0.000 HD
ENDBRANCH  17  24
BRANCH  21  28
ATOM     28  O   UNL     1      51.195   6.835  17.231  0.00  0.00    +0.000 OA
ATOM     29  H   UNL     1      50.450   7.395  17.509  0.00  0.00    +0.000 HD
ENDBRANCH  21  28
ENDBRANCH  16  22
ENDBRANCH   1  16
TORSDOF 6
ENDMDL
MODEL 3
REMARK VINA RESULT:    -6.696      2.708      7.245
REMARK INTER + INTRA:          -9.776
REMARK INTER:                  -8.697
REMARK INTRA:                  -1.079
REMARK UNBOUND:                -0.928
REMARK  Name = 
REMARK  6 active torsions:
REMARK  status: ('A' for Active; 'I' for Inactive)
REMARK    1  A    between atoms: C_2  and  C_4
REMARK    2  A    between atoms: C_8  and  O_9
REMARK    3  A    between atoms: C_10  and  C_11
REMARK    4  A    between atoms: C_11  and  N_12
REMARK    5  A    between atoms: N_12  and  C_13
REMARK    6  A    between atoms: C_17  and  N_18
REMARK                            x       y       z     vdW  Elec       q    Type
REMARK                         _______ _______ _______ _____ _____    ______ ____
ROOT
ATOM      1  N   UNL     1      46.924   6.640  11.026  0.00  0.00    +0.000 N 
ATOM      2  H   UNL     1      47.360   6.094  10.283  0.00  0.00    +0.000 HD
ENDROOT
BRANCH   1   3
ATOM      3  C   UNL     1      47.721   6.750  12.173  0.00  0.00    +0.000 A 
ATOM      4  C   UNL     1      48.820   7.611  12.171  0.00  0.00    +0.000 A 
ATOM      5  C   UNL     1      49.609   7.753  13.310  0.00  0.00    +0.000 A 
ATOM      6  C   UNL     1      49.283   7.056  14.477  0.00  0.00    +0.000 A 
ATOM      7  C   UNL     1      48.160   6.220  14.546  0.00  0.00    +0.000 A 
ATOM      8  C   UNL     1      47.391   6.104  13.378  0.00  0.00    +0.000 A 
BRANCH   7   9
ATOM      9  N   UNL     1      47.852   5.529  15.706  0.00  0.00    +0.000 N 
ATOM     10  C   UNL     1      48.516   5.816  16.988  0.00  0.00    +0.000 C 
ATOM     11  C   UNL     1      49.370   4.622  17.463  0.00  0.00    +0.000 C 
ATOM     12  N   UNL     1      48.604   3.357  17.528  0.00  0.00    +0.000 NA
ATOM     13  C   UNL     1      48.050   3.090  16.183  0.00  0.00    +0.000 C 
ATOM     14  C   UNL     1      47.165   4.231  15.621  0.00  0.00    +0.000 C 
ATOM     15  H   UNL     1      47.821   3.503  18.164  0.00  0.00    +0.000 HD
ENDBRANCH   7   9
ENDBRANCH   1   3
BRANCH   1  16
ATOM     16  C   UNL     1      45.521   6.272  11.223  0.00  0.00    +0.000 C 
BRANCH  16  22
ATOM     17  C   UNL     1      44.299   4.070  11.246  0.00  0.00    +0.000 A 
ATOM     18  N   UNL     1      43.883   2.864  10.739  0.00  0.00    +0.000 NA
ATOM     19  C   UNL     1      44.246   2.569   9.478  0.00  0.00    +0.000 A 
ATOM     20  C   UNL     1      44.993   3.413   8.685  0.00  0.00    +0.000 A 
ATOM     21  C   UNL     1      45.410   4.626   9.227  0.00  0.00    +0.000 A 
ATOM     22  C   UNL     1      45.080   4.996  10.538  0.00  0.00    +0.000 A 
BRANCH  17  24
ATOM     23  N   UNL     1      42.689   5.056  12.787  0.00  0.00    +0.000 N 
ATOM     24  C   UNL     1      43.828   4.305  12.670  0.00  0.00    +0.000 C 
ATOM     25  O   UNL     1      44.393   3.881  13.670  0.00  0.00    +0.000 OA
ATOM     26  H   UNL     1      42.324   5.280  13.701  0.00  0.00    +0.000 HD
ATOM     27  H   UNL     1      42.252   5.424  11.948  0.00  0.00    +0.000 HD
ENDBRANCH  17  24
BRANCH  21  28
ATOM     28  O   UNL     1      46.185   5.447   8.451  0.00  0.00    +0.000 OA
ATOM     29  H   UNL     1      46.397   6.261   8.941  0.00  0.00    +0.000 HD
ENDBRANCH  21  28
ENDBRANCH  16  22
ENDBRANCH   1  16
TORSDOF 6
ENDMDL
MODEL 4
REMARK VINA RESULT:    -6.359      1.367      2.928
REMARK INTER + INTRA:          -9.331
REMARK INTER:                  -8.686
REMARK INTRA:                  -0.646
REMARK UNBOUND:                -0.928
REMARK  Name = 
REMARK  6 active torsions:
REMARK  status: ('A' for Active; 'I' for Inactive)
REMARK    1  A    between atoms: C_2  and  C_4
REMARK    2  A    between atoms: C_8  and  O_9
REMARK    3  A    between atoms: C_10  and  C_11
REMARK    4  A    between atoms: C_11  and  N_12
REMARK    5  A    between atoms: N_12  and  C_13
REMARK    6  A    between atoms: C_17  and  N_18
REMARK                            x       y       z     vdW  Elec       q    Type
REMARK                         _______ _______ _______ _____ _____    ______ ____
ROOT
ATOM      1  N   UNL     1      47.397   5.090  15.567  0.00  0.00    +0.000 N 
ATOM      2  H   UNL     1      47.441   4.074  15.644  0.00  0.00    +0.000 HD
ENDROOT
BRANCH   1   3
ATOM      3  C   UNL     1      47.113   5.535  14.269  0.00  0.00    +0.000 A 
ATOM      4  C   UNL     1      47.904   6.529  13.690  0.00  0.00    +0.000 A 
ATOM      5  C   UNL     1      47.652   6.966  12.392  0.00  0.00    +0.000 A 
ATOM      6  C   UNL     1      46.623   6.386  11.646  0.00  0.00    +0.000 A 
ATOM      7  C   UNL     1      45.834   5.349  12.163  0.00  0.00    +0.000 A 
ATOM      8  C   UNL     1      46.119   4.937  13.474  0.00  0.00    +0.000 A 
BRANCH   7   9
ATOM      9  N   UNL     1      44.812   4.787  11.417  0.00  0.00    +0.000 N 
ATOM     10  C   UNL     1      43.583   4.268  12.039  0.00  0.00    +0.000 C 
ATOM     11  C   UNL     1      43.461   2.740  11.864  0.00  0.00    +0.000 C 
ATOM     12  N   UNL     1      43.568   2.313  10.451  0.00  0.00    +0.000 NA
ATOM     13  C   UNL     1      44.866   2.788   9.927  0.00  0.00    +0.000 C 
ATOM     14  C   UNL     1      45.079   4.318  10.049  0.00  0.00    +0.000 C 
ATOM     15  H   UNL     1      42.829   2.785   9.929  0.00  0.00    +0.000 HD
ENDBRANCH   7   9
ENDBRANCH   1   3
BRANCH   1  16
ATOM     16  C   UNL     1      48.508   5.741  16.265  0.00  0.00    +0.000 C 
BRANCH  16  22
ATOM     17  C   UNL     1      48.973   4.465  18.385  0.00  0.00    +0.000 A 
ATOM     18  N   UNL     1      48.956   4.239  19.740  0.00  0.00    +0.000 NA
ATOM     19  C   UNL     1      48.443   5.207  20.518  0.00  0.00    +0.000 A 
ATOM     20  C   UNL     1      47.953   6.398  20.027  0.00  0.00    +0.000 A 
ATOM     21  C   UNL     1      47.972   6.598  18.649  0.00  0.00    +0.000 A 
ATOM     22  C   UNL     1      48.482   5.629  17.774  0.00  0.00    +0.000 A 
BRANCH  17  24
ATOM     23  N   UNL     1      50.850   2.965  17.978  0.00  0.00    +0.000 N 
ATOM     24  C   UNL     1      49.580   3.314  17.603  0.00  0.00    +0.000 C 
ATOM     25  O   UNL     1      49.018   2.716  16.694  0.00  0.00    +0.000 OA
ATOM     26  H   UNL     1      51.335   2.227  17.489  0.00  0.00    +0.000 HD
ATOM     27  H   UNL     1      51.311   3.493  18.713  0.00  0.00    +0.000 HD
ENDBRANCH  17  24
BRANCH  21  28
ATOM     28  O   UNL     1      47.449   7.765  18.159  0.00  0.00    +0.000 OA
ATOM     29  H   UNL     1      47.732   8.512  18.714  0.00  0.00    +0.000 HD
ENDBRANCH  21  28
ENDBRANCH  16  22
ENDBRANCH   1  16
TORSDOF 6
ENDMDL
MODEL 5
REMARK VINA RESULT:    -6.305      2.474      7.713
REMARK INTER + INTRA:          -9.260
REMARK INTER:                  -8.287
REMARK INTRA:                  -0.973
REMARK UNBOUND:                -0.928
REMARK  Name = 
REMARK  6 active torsions:
REMARK  status: ('A' for Active; 'I' for Inactive)
REMARK    1  A    between atoms: C_2  and  C_4
REMARK    2  A    between atoms: C_8  and  O_9
REMARK    3  A    between atoms: C_10  and  C_11
REMARK    4  A    between atoms: C_11  and  N_12
REMARK    5  A    between atoms: N_12  and  C_13
REMARK    6  A    between atoms: C_17  and  N_18
REMARK                            x       y       z     vdW  Elec       q    Type
REMARK                         _______ _______ _______ _____ _____    ______ ____
ROOT
ATOM      1  N   UNL     1      46.562   4.307  15.429  0.00  0.00    +0.000 N 
ATOM      2  H   UNL     1      46.022   5.131  15.694  0.00  0.00    +0.000 HD
ENDROOT
BRANCH   1   3
ATOM      3  C   UNL     1      47.703   4.115  16.220  0.00  0.00    +0.000 A 
ATOM      4  C   UNL     1      48.182   2.823  16.439  0.00  0.00    +0.000 A 
ATOM      5  C   UNL     1      49.329   2.613  17.202  0.00  0.00    +0.000 A 
ATOM      6  C   UNL     1      50.027   3.704  17.727  0.00  0.00    +0.000 A 
ATOM      7  C   UNL     1      49.616   5.023  17.492  0.00  0.00    +0.000 A 
ATOM      8  C   UNL     1      48.457   5.191  16.720  0.00  0.00    +0.000 A 
BRANCH   7   9
ATOM      9  N   UNL     1      50.312   6.095  18.025  0.00  0.00    +0.000 N 
ATOM     10  C   UNL     1      50.379   6.343  19.474  0.00  0.00    +0.000 C 
ATOM     11  C   UNL     1      49.664   7.655  19.858  0.00  0.00    +0.000 C 
ATOM     12  N   UNL     1      50.155   8.822  19.091  0.00  0.00    +0.000 NA
ATOM     13  C   UNL     1      49.967   8.536  17.653  0.00  0.00    +0.000 C 
ATOM     14  C   UNL     1      50.659   7.239  17.167  0.00  0.00    +0.000 C 
ATOM     15  H   UNL     1      51.157   8.906  19.264  0.00  0.00    +0.000 HD
ENDBRANCH   7   9
ENDBRANCH   1   3
BRANCH   1  16
ATOM     16  C   UNL     1      46.734   4.208  13.979  0.00  0.00    +0.000 C 
BRANCH  16  22
ATOM     17  C   UNL     1      44.994   4.887  12.290  0.00  0.00    +0.000 A 
ATOM     18  N   UNL     1      44.314   5.756  11.474  0.00  0.00    +0.000 NA
ATOM     19  C   UNL     1      44.657   7.054  11.537  0.00  0.00    +0.000 A 
ATOM     20  C   UNL     1      45.635   7.543  12.376  0.00  0.00    +0.000 A 
ATOM     21  C   UNL     1      46.317   6.638  13.186  0.00  0.00    +0.000 A 
ATOM     22  C   UNL     1      46.022   5.268  13.166  0.00  0.00    +0.000 A 
BRANCH  17  24
ATOM     23  N   UNL     1      45.022   2.785  11.056  0.00  0.00    +0.000 N 
ATOM     24  C   UNL     1      44.523   3.450  12.145  0.00  0.00    +0.000 C 
ATOM     25  O   UNL     1      43.752   2.888  12.912  0.00  0.00    +0.000 OA
ATOM     26  H   UNL     1      44.737   1.834  10.873  0.00  0.00    +0.000 HD
ATOM     27  H   UNL     1      45.636   3.277  10.415  0.00  0.00    +0.000 HD
ENDBRANCH  17  24
BRANCH  21  28
ATOM     28  O   UNL     1      47.316   7.118  13.991  0.00  0.00    +0.000 OA
ATOM     29  H   UNL     1      47.638   6.410  14.575  0.00  0.00    +0.000 HD
ENDBRANCH  21  28
ENDBRANCH  16  22
ENDBRANCH   1  16
TORSDOF 6
ENDMDL
MODEL 6
REMARK VINA RESULT:    -6.215      2.487      7.192
REMARK INTER + INTRA:          -9.141
REMARK INTER:                  -8.325
REMARK INTRA:                  -0.816
REMARK UNBOUND:                -0.928
REMARK  Name = 
REMARK  6 active torsions:
REMARK  status: ('A' for Active; 'I' for Inactive)
REMARK    1  A    between atoms: C_2  and  C_4
REMARK    2  A    between atoms: C_8  and  O_9
REMARK    3  A    between atoms: C_10  and  C_11
REMARK    4  A    between atoms: C_11  and  N_12
REMARK    5  A    between atoms: N_12  and  C_13
REMARK    6  A    between atoms: C_17  and  N_18
REMARK                            x       y       z     vdW  Elec       q    Type
REMARK                         _______ _______ _______ _____ _____    ______ ____
ROOT
ATOM      1  N   UNL     1      47.257   7.458  13.689  0.00  0.00    +0.000 N 
ATOM      2  H   UNL     1      46.953   8.415  13.510  0.00  0.00    +0.000 HD
ENDROOT
BRANCH   1   3
ATOM      3  C   UNL     1      48.530   7.380  14.268  0.00  0.00    +0.000 A 
ATOM      4  C   UNL     1      49.602   8.047  13.672  0.00  0.00    +0.000 A 
ATOM      5  C   UNL     1      50.871   8.002  14.246  0.00  0.00    +0.000 A 
ATOM      6  C   UNL     1      51.070   7.312  15.446  0.00  0.00    +0.000 A 
ATOM      7  C   UNL     1      50.016   6.671  16.110  0.00  0.00    +0.000 A 
ATOM      8  C   UNL     1      48.754   6.740  15.499  0.00  0.00    +0.000 A 
BRANCH   7   9
ATOM      9  N   UNL     1      50.228   5.985  17.294  0.00  0.00    +0.000 N 
ATOM     10  C   UNL     1      51.270   4.954  17.425  0.00  0.00    +0.000 C 
ATOM     11  C   UNL     1      50.659   3.558  17.666  0.00  0.00    +0.000 C 
ATOM     12  N   UNL     1      49.728   3.529  18.817  0.00  0.00    +0.000 NA
ATOM     13  C   UNL     1      48.661   4.520  18.566  0.00  0.00    +0.000 C 
ATOM     14  C   UNL     1      49.176   5.961  18.322  0.00  0.00    +0.000 C 
ATOM     15  H   UNL     1      50.248   3.830  19.641  0.00  0.00    +0.000 HD
ENDBRANCH   7   9
ENDBRANCH   1   3
BRANCH   1  16
ATOM     16  C   UNL     1      46.988   6.577  12.551  0.00  0.00    +0.000 C 
BRANCH  16  22
ATOM     17  C   UNL     1      45.489   4.698  13.299  0.00  0.00    +0.000 A 
ATOM     18  N   UNL     1      44.329   3.965  13.347  0.00  0.00    +0.000 NA
ATOM     19  C   UNL     1      43.277   4.434  12.653  0.00  0.00    +0.000 A 
ATOM     20  C   UNL     1      43.309   5.599  11.918  0.00  0.00    +0.000 A 
ATOM     21  C   UNL     1      44.501   6.318  11.878  0.00  0.00    +0.000 A 
ATOM     22  C   UNL     1      45.642   5.885  12.568  0.00  0.00    +0.000 A 
BRANCH  17  24
ATOM     23  N   UNL     1      46.520   4.303  15.472  0.00  0.00    +0.000 N 
ATOM     24  C   UNL     1      46.608   4.085  14.123  0.00  0.00    +0.000 C 
ATOM     25  O   UNL     1      47.541   3.442  13.661  0.00  0.00    +0.000 OA
ATOM     26  H   UNL     1      47.238   3.952  16.088  0.00  0.00    +0.000 HD
ATOM     27  H   UNL     1      45.754   4.865  15.833  0.00  0.00    +0.000 HD
ENDBRANCH  17  24
BRANCH  21  28
ATOM     28  O   UNL     1      44.543   7.456  11.117  0.00  0.00    +0.000 OA
ATOM     29  H   UNL     1      45.355   7.955  11.315  0.00  0.00    +0.000 HD
ENDBRANCH  21  28
ENDBRANCH  16  22
ENDBRANCH   1  16
TORSDOF 6
ENDMDL
MODEL 7
REMARK VINA RESULT:    -6.147      2.546      7.235
REMARK INTER + INTRA:          -9.051
REMARK INTER:                  -8.154
REMARK INTRA:                  -0.897
REMARK UNBOUND:                -0.928
REMARK  Name = 
REMARK  6 active torsions:
REMARK  status: ('A' for Active; 'I' for Inactive)
REMARK    1  A    between atoms: C_2  and  C_4
REMARK    2  A    between atoms: C_8  and  O_9
REMARK    3  A    between atoms: C_10  and  C_11
REMARK    4  A    between atoms: C_11  and  N_12
REMARK    5  A    between atoms: N_12  and  C_13
REMARK    6  A    between atoms: C_17  and  N_18
REMARK                            x       y       z     vdW  Elec       q    Type
REMARK                         _______ _______ _______ _____ _____    ______ ____
ROOT
ATOM      1  N   UNL     1      46.506   4.258  15.437  0.00  0.00    +0.000 N 
ATOM      2  H   UNL     1      45.995   5.139  15.383  0.00  0.00    +0.000 HD
ENDROOT
BRANCH   1   3
ATOM      3  C   UNL     1      47.458   4.231  16.465  0.00  0.00    +0.000 A 
ATOM      4  C   UNL     1      47.419   3.211  17.416  0.00  0.00    +0.000 A 
ATOM      5  C   UNL     1      48.371   3.153  18.431  0.00  0.00    +0.000 A 
ATOM      6  C   UNL     1      49.396   4.102  18.482  0.00  0.00    +0.000 A 
ATOM      7  C   UNL     1      49.509   5.115  17.519  0.00  0.00    +0.000 A 
ATOM      8  C   UNL     1      48.530   5.138  16.515  0.00  0.00    +0.000 A 
BRANCH   7   9
ATOM      9  N   UNL     1      50.525   6.054  17.585  0.00  0.00    +0.000 N 
ATOM     10  C   UNL     1      50.531   7.260  16.742  0.00  0.00    +0.000 C 
ATOM     11  C   UNL     1      51.705   7.246  15.741  0.00  0.00    +0.000 C 
ATOM     12  N   UNL     1      53.017   7.043  16.397  0.00  0.00    +0.000 NA
ATOM     13  C   UNL     1      52.963   5.768  17.143  0.00  0.00    +0.000 C 
ATOM     14  C   UNL     1      51.818   5.690  18.184  0.00  0.00    +0.000 C 
ATOM     15  H   UNL     1      53.143   7.796  17.073  0.00  0.00    +0.000 HD
ENDBRANCH   7   9
ENDBRANCH   1   3
BRANCH   1  16
ATOM     16  C   UNL     1      46.937   3.794  14.117  0.00  0.00    +0.000 C 
BRANCH  16  22
ATOM     17  C   UNL     1      46.616   5.720  12.528  0.00  0.00    +0.000 A 
ATOM     18  N   UNL     1      46.017   6.412  11.504  0.00  0.00    +0.000 NA
ATOM     19  C   UNL     1      45.007   5.803  10.858  0.00  0.00    +0.000 A 
ATOM     20  C   UNL     1      44.564   4.534  11.166  0.00  0.00    +0.000 A 
ATOM     21  C   UNL     1      45.182   3.858  12.215  0.00  0.00    +0.000 A 
ATOM     22  C   UNL     1      46.233   4.435  12.940  0.00  0.00    +0.000 A 
BRANCH  17  24
ATOM     23  N   UNL     1      47.347   7.500  14.024  0.00  0.00    +0.000 N 
ATOM     24  C   UNL     1      47.746   6.495  13.182  0.00  0.00    +0.000 C 
ATOM     25  O   UNL     1      48.937   6.281  12.997  0.00  0.00    +0.000 OA
ATOM     26  H   UNL     1      48.036   8.080  14.478  0.00  0.00    +0.000 HD
ATOM     27  H   UNL     1      46.355   7.682  14.140  0.00  0.00    +0.000 HD
ENDBRANCH  17  24
BRANCH  21  28
ATOM     28  O   UNL     1      44.715   2.614  12.544  0.00  0.00    +0.000 OA
ATOM     29  H   UNL     1      44.693   2.049  11.752  0.00  0.00    +0.000 HD
ENDBRANCH  21  28
ENDBRANCH  16  22
ENDBRANCH   1  16
TORSDOF 6
ENDMDL
MODEL 8
REMARK VINA RESULT:    -6.138      3.017      7.119
REMARK INTER + INTRA:          -9.039
REMARK INTER:                  -8.127
REMARK INTRA:                  -0.912
REMARK UNBOUND:                -0.928
REMARK  Name = 
REMARK  6 active torsions:
REMARK  status: ('A' for Active; 'I' for Inactive)
REMARK    1  A    between atoms: C_2  and  C_4
REMARK    2  A    between atoms: C_8  and  O_9
REMARK    3  A    between atoms: C_10  and  C_11
REMARK    4  A    between atoms: C_11  and  N_12
REMARK    5  A    between atoms: N_12  and  C_13
REMARK    6  A    between atoms: C_17  and  N_18
REMARK                            x       y       z     vdW  Elec       q    Type
REMARK                         _______ _______ _______ _____ _____    ______ ____
ROOT
ATOM      1  N   UNL     1      47.003   6.860  11.723  0.00  0.00    +0.000 N 
ATOM      2  H   UNL     1      47.093   6.063  11.092  0.00  0.00    +0.000 HD
ENDROOT
BRANCH   1   3
ATOM      3  C   UNL     1      48.225   7.275  12.268  0.00  0.00    +0.000 A 
ATOM      4  C   UNL     1      49.086   8.071  11.510  0.00  0.00    +0.000 A 
ATOM      5  C   UNL     1      50.293   8.514  12.044  0.00  0.00    +0.000 A 
ATOM      6  C   UNL     1      50.636   8.190  13.360  0.00  0.00    +0.000 A 
ATOM      7  C   UNL     1      49.783   7.438  14.179  0.00  0.00    +0.000 A 
ATOM      8  C   UNL     1      48.576   7.011  13.604  0.00  0.00    +0.000 A 
BRANCH   7   9
ATOM      9  N   UNL     1      50.137   7.118  15.478  0.00  0.00    +0.000 N 
ATOM     10  C   UNL     1      49.192   6.490  16.415  0.00  0.00    +0.000 C 
ATOM     11  C   UNL     1      48.857   7.427  17.595  0.00  0.00    +0.000 C 
ATOM     12  N   UNL     1      50.063   7.919  18.299  0.00  0.00    +0.000 NA
ATOM     13  C   UNL     1      50.914   8.618  17.313  0.00  0.00    +0.000 C 
ATOM     14  C   UNL     1      51.314   7.753  16.092  0.00  0.00    +0.000 C 
ATOM     15  H   UNL     1      50.577   7.104  18.634  0.00  0.00    +0.000 HD
ENDBRANCH   7   9
ENDBRANCH   1   3
BRANCH   1  16
ATOM     16  C   UNL     1      45.881   6.701  12.649  0.00  0.00    +0.000 C 
BRANCH  16  22
ATOM     17  C   UNL     1      45.335   4.260  12.940  0.00  0.00    +0.000 A 
ATOM     18  N   UNL     1      44.625   3.102  12.734  0.00  0.00    +0.000 NA
ATOM     19  C   UNL     1      43.526   3.184  11.963  0.00  0.00    +0.000 A 
ATOM     20  C   UNL     1      43.083   4.357  11.392  0.00  0.00    +0.000 A 
ATOM     21  C   UNL     1      43.827   5.515  11.609  0.00  0.00    +0.000 A 
ATOM     22  C   UNL     1      44.990   5.504  12.391  0.00  0.00    +0.000 A 
BRANCH  17  24
ATOM     23  N   UNL     1      46.391   4.463  15.127  0.00  0.00    +0.000 N 
ATOM     24  C   UNL     1      46.549   4.057  13.829  0.00  0.00    +0.000 C 
ATOM     25  O   UNL     1      47.612   3.576  13.458  0.00  0.00    +0.000 OA
ATOM     26  H   UNL     1      47.159   4.387  15.776  0.00  0.00    +0.000 HD
ATOM     27  H   UNL     1      45.512   4.887  15.408  0.00  0.00    +0.000 HD
ENDBRANCH  17  24
BRANCH  21  28
ATOM     28  O   UNL     1      43.408   6.673  11.009  0.00  0.00    +0.000 OA
ATOM     29  H   UNL     1      43.818   7.438  11.447  0.00  0.00    +0.000 HD
ENDBRANCH  21  28
ENDBRANCH  16  22
ENDBRANCH   1  16
TORSDOF 6
ENDMDL
MODEL 9
REMARK VINA RESULT:    -6.117      2.223      7.695
REMARK INTER + INTRA:          -9.011
REMARK INTER:                  -8.078
REMARK INTRA:                  -0.934
REMARK UNBOUND:                -0.928
REMARK  Name = 
REMARK  6 active torsions:
REMARK  status: ('A' for Active; 'I' for Inactive)
REMARK    1  A    between atoms: C_2  and  C_4
REMARK    2  A    between atoms: C_8  and  O_9
REMARK    3  A    between atoms: C_10  and  C_11
REMARK    4  A    between atoms: C_11  and  N_12
REMARK    5  A    between atoms: N_12  and  C_13
REMARK    6  A    between atoms: C_17  and  N_18
REMARK                            x       y       z     vdW  Elec       q    Type
REMARK                         _______ _______ _______ _____ _____    ______ ____
ROOT
ATOM      1  N   UNL     1      46.553   4.474  15.193  0.00  0.00    +0.000 N 
ATOM      2  H   UNL     1      45.783   4.979  15.632  0.00  0.00    +0.000 HD
ENDROOT
BRANCH   1   3
ATOM      3  C   UNL     1      47.552   4.090  16.098  0.00  0.00    +0.000 A 
ATOM      4  C   UNL     1      48.074   2.797  16.044  0.00  0.00    +0.000 A 
ATOM      5  C   UNL     1      49.085   2.405  16.918  0.00  0.00    +0.000 A 
ATOM      6  C   UNL     1      49.607   3.320  17.837  0.00  0.00    +0.000 A 
ATOM      7  C   UNL     1      49.154   4.644  17.895  0.00  0.00    +0.000 A 
ATOM      8  C   UNL     1      48.135   4.999  16.998  0.00  0.00    +0.000 A 
BRANCH   7   9
ATOM      9  N   UNL     1      49.674   5.539  18.815  0.00  0.00    +0.000 N 
ATOM     10  C   UNL     1      49.749   5.230  20.252  0.00  0.00    +0.000 C 
ATOM     11  C   UNL     1      48.833   6.157  21.079  0.00  0.00    +0.000 C 
ATOM     12  N   UNL     1      49.089   7.592  20.826  0.00  0.00    +0.000 NA
ATOM     13  C   UNL     1      48.902   7.842  19.381  0.00  0.00    +0.000 C 
ATOM     14  C   UNL     1      49.789   6.963  18.464  0.00  0.00    +0.000 C 
ATOM     15  H   UNL     1      50.067   7.775  21.050  0.00  0.00    +0.000 HD
ENDBRANCH   7   9
ENDBRANCH   1   3
BRANCH   1  16
ATOM     16  C   UNL     1      46.990   5.115  13.952  0.00  0.00    +0.000 C 
BRANCH  16  22
ATOM     17  C   UNL     1      45.659   6.128  12.069  0.00  0.00    +0.000 A 
ATOM     18  N   UNL     1      44.771   6.127  11.023  0.00  0.00    +0.000 NA
ATOM     19  C   UNL     1      44.249   4.942  10.660  0.00  0.00    +0.000 A 
ATOM     20  C   UNL     1      44.568   3.750  11.274  0.00  0.00    +0.000 A 
ATOM     21  C   UNL     1      45.465   3.781  12.340  0.00  0.00    +0.000 A 
ATOM     22  C   UNL     1      46.040   4.980  12.781  0.00  0.00    +0.000 A 
BRANCH  17  24
ATOM     23  N   UNL     1      45.360   8.292  13.150  0.00  0.00    +0.000 N 
ATOM     24  C   UNL     1      46.192   7.513  12.389  0.00  0.00    +0.000 C 
ATOM     25  O   UNL     1      47.273   7.948  12.015  0.00  0.00    +0.000 OA
ATOM     26  H   UNL     1      45.629   9.236  13.384  0.00  0.00    +0.000 HD
ATOM     27  H   UNL     1      44.455   7.924  13.425  0.00  0.00    +0.000 HD
ENDBRANCH  17  24
BRANCH  21  28
ATOM     28  O   UNL     1      45.752   2.601  12.975  0.00  0.00    +0.000 OA
ATOM     29  H   UNL     1      46.676   2.607  13.279  0.00  0.00    +0.000 HD
ENDBRANCH  21  28
ENDBRANCH  16  22
ENDBRANCH   1  16
TORSDOF 6
ENDMDL
