MODEL 1
REMARK VINA RESULT:    -8.125      0.000      0.000
REMARK INTER + INTRA:         -11.941
REMARK INTER:                 -10.975
REMARK INTRA:                  -0.965
REMARK UNBOUND:                -0.965
REMARK  Name = 
REMARK  8 active torsions:
REMARK  status: ('A' for Active; 'I' for Inactive)
REMARK    1  A    between atoms: C_1  and  C_2
REMARK    2  A    between atoms: C_2  and  C_3
REMARK    3  A    between atoms: C_2  and  C_4
REMARK    4  A    between atoms: C_7  and  C_8
REMARK    5  A    between atoms: C_8  and  N_9
REMARK    6  A    between atoms: C_16  and  C_17
REMARK    7  A    between atoms: C_17  and  N_18
REMARK    8  A    between atoms: C_19  and  C_21
REMARK                            x       y       z     vdW  Elec       q    Type
REMARK                         _______ _______ _______ _____ _____    ______ ____
ROOT
ATOM      1  C   UNL     1      47.300   6.294  13.154  0.00  0.00    +0.000 A 
ATOM      2  C   UNL     1      46.668   7.166  12.231  0.00  0.00    +0.000 A 
ATOM      3  C   UNL     1      45.554   6.793  11.504  0.00  0.00    +0.000 A 
ATOM      4  C   UNL     1      45.040   5.512  11.662  0.00  0.00    +0.000 A 
ATOM      5  C   UNL     1      45.658   4.628  12.583  0.00  0.00    +0.000 A 
ATOM      6  C   UNL     1      46.765   5.008  13.392  0.00  0.00    +0.000 A 
ENDROOT
BRANCH   1   8
ATOM      7  C   UNL     1      49.548   7.202  12.646  0.00  0.00    +0.000 C 
ATOM      8  C   UNL     1      48.536   6.897  13.782  0.00  0.00    +0.000 C 
ATOM      9  C   UNL     1      48.098   8.041  14.715  0.00  0.00    +0.000 C 
ENDBRANCH   1   8
BRANCH   4  10
ATOM     10  C   UNL     1      43.810   5.124  10.854  0.00  0.00    +0.000 C 
BRANCH  10  11
ATOM     11  N   UNL     1      44.064   4.226   9.705  0.00  0.00    +0.000 NA
ATOM     12  C   UNL     1      45.219   4.669   8.910  0.00  0.00    +0.000 C 
ATOM     13  C   UNL     1      45.755   3.645   7.906  0.00  0.00    +0.000 C 
ATOM     14  C   UNL     1      45.945   2.279   8.539  0.00  0.00    +0.000 C 
ATOM     15  C   UNL     1      44.625   1.814   9.127  0.00  0.00    +0.000 C 
ATOM     16  C   UNL     1      44.063   2.816  10.138  0.00  0.00    +0.000 C 
ENDBRANCH  10  11
ENDBRANCH   4  10
BRANCH   6  17
ATOM     17  C   UNL     1      47.250   4.021  14.472  0.00  0.00    +0.000 C 
BRANCH  17  18
ATOM     18  N   UNL     1      47.540   4.624  15.767  0.00  0.00    +0.000 N 
ATOM     19  C   UNL     1      47.186   4.187  17.009  0.00  0.00    +0.000 C 
ATOM     20  O   UNL     1      46.455   3.188  17.207  0.00  0.00    +0.000 OA
ATOM     21  H   UNL     1      48.242   5.365  15.722  0.00  0.00    +0.000 HD
BRANCH  19  22
ATOM     22  C   UNL     1      47.732   4.977  18.156  0.00  0.00    +0.000 A 
ATOM     23  C   UNL     1      46.923   5.820  18.909  0.00  0.00    +0.000 A 
ATOM     24  S   UNL     1      47.698   6.498  20.276  0.00  0.00    +0.000 S 
ATOM     25  C   UNL     1      49.157   5.708  19.914  0.00  0.00    +0.000 A 
ATOM     26  N   UNL     1      50.237   5.791  20.746  0.00  0.00    +0.000 NA
ATOM     27  C   UNL     1      51.240   5.063  20.396  0.00  0.00    +0.000 A 
ATOM     28  N   UNL     1      51.286   4.291  19.262  0.00  0.00    +0.000 N 
ATOM     29  C   UNL     1      50.312   4.358  18.306  0.00  0.00    +0.000 A 
ATOM     30  O   UNL     1      50.511   3.925  17.163  0.00  0.00    +0.000 OA
ATOM     31  C   UNL     1      49.079   5.001  18.722  0.00  0.00    +0.000 A 
ATOM     32  H   UNL     1      52.125   3.791  19.014  0.00  0.00    +0.000 HD
ENDBRANCH  19  22
ENDBRANCH  17  18
ENDBRANCH   6  17
TORSDOF 6
ENDMDL
MODEL 2
REMARK VINA RESULT:    -7.985      1.811      2.155
REMARK INTER + INTRA:         -11.751
REMARK INTER:                 -11.581
REMARK INTRA:                  -0.170
REMARK UNBOUND:                -0.965
REMARK  Name = 
REMARK  8 active torsions:
REMARK  status: ('A' for Active; 'I' for Inactive)
REMARK    1  A    between atoms: C_1  and  C_2
REMARK    2  A    between atoms: C_2  and  C_3
REMARK    3  A    between atoms: C_2  and  C_4
REMARK    4  A    between atoms: C_7  and  C_8
REMARK    5  A    between atoms: C_8  and  N_9
REMARK    6  A    between atoms: C_16  and  C_17
REMARK    7  A    between atoms: C_17  and  N_18
REMARK    8  A    between atoms: C_19  and  C_21
REMARK                            x       y       z     vdW  Elec       q    Type
REMARK                         _______ _______ _______ _____ _____    ______ ____
ROOT
ATOM      1  C   UNL     1      46.409   5.860  12.298  0.00  0.00    +0.000 A 
ATOM      2  C   UNL     1      46.230   6.198  10.932  0.00  0.00    +0.000 A 
ATOM      3  C   UNL     1      45.487   5.417  10.068  0.00  0.00    +0.000 A 
ATOM      4  C   UNL     1      44.906   4.247  10.542  0.00  0.00    +0.000 A 
ATOM      5  C   UNL     1      45.072   3.897  11.906  0.00  0.00    +0.000 A 
ATOM      6  C   UNL     1      45.777   4.714  12.832  0.00  0.00    +0.000 A 
ENDROOT
BRANCH   1   8
ATOM      7  C   UNL     1      48.672   6.869  12.281  0.00  0.00    +0.000 C 
ATOM      8  C   UNL     1      47.313   6.826  13.030  0.00  0.00    +0.000 C 
ATOM      9  C   UNL     1      46.543   8.142  13.248  0.00  0.00    +0.000 C 
ENDBRANCH   1   8
BRANCH   4  10
ATOM     10  C   UNL     1      44.087   3.406   9.574  0.00  0.00    +0.000 C 
BRANCH  10  11
ATOM     11  N   UNL     1      44.830   2.881   8.405  0.00  0.00    +0.000 NA
ATOM     12  C   UNL     1      45.546   3.947   7.690  0.00  0.00    +0.000 C 
ATOM     13  C   UNL     1      46.590   3.470   6.676  0.00  0.00    +0.000 C 
ATOM     14  C   UNL     1      47.508   2.415   7.265  0.00  0.00    +0.000 C 
ATOM     15  C   UNL     1      46.672   1.250   7.765  0.00  0.00    +0.000 C 
ATOM     16  C   UNL     1      45.619   1.694   8.784  0.00  0.00    +0.000 C 
ENDBRANCH  10  11
ENDBRANCH   4  10
BRANCH   6  17
ATOM     17  C   UNL     1      45.754   4.316  14.320  0.00  0.00    +0.000 C 
BRANCH  17  18
ATOM     18  N   UNL     1      46.965   4.645  15.062  0.00  0.00    +0.000 N 
ATOM     19  C   UNL     1      47.349   4.220  16.299  0.00  0.00    +0.000 C 
ATOM     20  O   UNL     1      46.629   3.506  17.038  0.00  0.00    +0.000 OA
ATOM     21  H   UNL     1      47.676   5.109  14.493  0.00  0.00    +0.000 HD
BRANCH  19  22
ATOM     22  C   UNL     1      48.710   4.655  16.743  0.00  0.00    +0.000 A 
ATOM     23  C   UNL     1      49.009   5.994  16.967  0.00  0.00    +0.000 A 
ATOM     24  S   UNL     1      50.563   6.264  17.632  0.00  0.00    +0.000 S 
ATOM     25  C   UNL     1      50.914   4.602  17.635  0.00  0.00    +0.000 A 
ATOM     26  N   UNL     1      52.077   4.121  18.165  0.00  0.00    +0.000 NA
ATOM     27  C   UNL     1      52.164   2.837  18.188  0.00  0.00    +0.000 A 
ATOM     28  N   UNL     1      51.216   1.980  17.687  0.00  0.00    +0.000 N 
ATOM     29  C   UNL     1      50.151   2.433  16.960  0.00  0.00    +0.000 A 
ATOM     30  O   UNL     1      49.495   1.662  16.245  0.00  0.00    +0.000 OA
ATOM     31  C   UNL     1      49.892   3.857  17.061  0.00  0.00    +0.000 A 
ATOM     32  H   UNL     1      51.373   0.985  17.682  0.00  0.00    +0.000 HD
ENDBRANCH  19  22
ENDBRANCH  17  18
ENDBRANCH   6  17
TORSDOF 6
ENDMDL
MODEL 3
REMARK VINA RESULT:    -7.752      2.406      4.480
REMARK INTER + INTRA:         -11.437
REMARK INTER:                 -10.368
REMARK INTRA:                  -1.068
REMARK UNBOUND:                -0.965
REMARK  Name = 
REMARK  8 active torsions:
REMARK  status: ('A' for Active; 'I' for Inactive)
REMARK    1  A    between atoms: C_1  and  C_2
REMARK    2  A    between atoms: C_2  and  C_3
REMARK    3  A    between atoms: C_2  and  C_4
REMARK    4  A    between atoms: C_7  and  C_8
REMARK    5  A    between atoms: C_8  and  N_9
REMARK    6  A    between atoms: C_16  and  C_17
REMARK    7  A    between atoms: C_17  and  N_18
REMARK    8  A    between atoms: C_19  and  C_21
REMARK                            x       y       z     vdW  Elec       q    Type
REMARK                         _______ _______ _______ _____ _____    ______ ____
ROOT
ATOM      1  C   UNL     1      44.425   5.088  11.188  0.00  0.00    +0.000 A 
ATOM      2  C   UNL     1      44.209   3.944  10.378  0.00  0.00    +0.000 A 
ATOM      3  C   UNL     1      44.925   3.712   9.219  0.00  0.00    +0.000 A 
ATOM      4  C   UNL     1      45.880   4.637   8.816  0.00  0.00    +0.000 A 
ATOM      5  C   UNL     1      46.111   5.784   9.617  0.00  0.00    +0.000 A 
ATOM      6  C   UNL     1      45.435   6.016  10.847  0.00  0.00    +0.000 A 
ENDROOT
BRANCH   1   8
ATOM      7  C   UNL     1      42.121   5.703  11.855  0.00  0.00    +0.000 C 
ATOM      8  C   UNL     1      43.482   5.162  12.367  0.00  0.00    +0.000 C 
ATOM      9  C   UNL     1      43.515   3.808  13.102  0.00  0.00    +0.000 C 
ENDBRANCH   1   8
BRANCH   4  10
ATOM     10  C   UNL     1      46.660   4.358   7.539  0.00  0.00    +0.000 C 
BRANCH  10  11
ATOM     11  N   UNL     1      46.363   3.062   6.886  0.00  0.00    +0.000 NA
ATOM     12  C   UNL     1      46.623   3.107   5.440  0.00  0.00    +0.000 C 
ATOM     13  C   UNL     1      46.657   1.747   4.737  0.00  0.00    +0.000 C 
ATOM     14  C   UNL     1      47.532   0.751   5.478  0.00  0.00    +0.000 C 
ATOM     15  C   UNL     1      47.026   0.607   6.903  0.00  0.00    +0.000 C 
ATOM     16  C   UNL     1      46.982   1.951   7.634  0.00  0.00    +0.000 C 
ENDBRANCH  10  11
ENDBRANCH   4  10
BRANCH   6  17
ATOM     17  C   UNL     1      45.885   7.210  11.711  0.00  0.00    +0.000 C 
BRANCH  17  18
ATOM     18  N   UNL     1      46.613   6.850  12.922  0.00  0.00    +0.000 N 
ATOM     19  C   UNL     1      47.960   6.831  13.131  0.00  0.00    +0.000 C 
ATOM     20  O   UNL     1      48.802   7.060  12.231  0.00  0.00    +0.000 OA
ATOM     21  H   UNL     1      46.017   6.780  13.748  0.00  0.00    +0.000 HD
BRANCH  19  22
ATOM     22  C   UNL     1      48.395   6.518  14.528  0.00  0.00    +0.000 A 
ATOM     23  C   UNL     1      49.227   7.375  15.241  0.00  0.00    +0.000 A 
ATOM     24  S   UNL     1      49.467   6.921  16.873  0.00  0.00    +0.000 S 
ATOM     25  C   UNL     1      48.483   5.548  16.698  0.00  0.00    +0.000 A 
ATOM     26  N   UNL     1      48.190   4.740  17.760  0.00  0.00    +0.000 NA
ATOM     27  C   UNL     1      47.355   3.796  17.500  0.00  0.00    +0.000 A 
ATOM     28  N   UNL     1      46.816   3.548  16.263  0.00  0.00    +0.000 N 
ATOM     29  C   UNL     1      47.255   4.198  15.144  0.00  0.00    +0.000 A 
ATOM     30  O   UNL     1      47.013   3.753  14.014  0.00  0.00    +0.000 OA
ATOM     31  C   UNL     1      48.042   5.392  15.390  0.00  0.00    +0.000 A 
ATOM     32  H   UNL     1      46.214   2.753  16.114  0.00  0.00    +0.000 HD
ENDBRANCH  19  22
ENDBRANCH  17  18
ENDBRANCH   6  17
TORSDOF 6
ENDMDL
MODEL 4
REMARK VINA RESULT:    -7.471      2.047      2.757
REMARK INTER + INTRA:         -11.057
REMARK INTER:                 -10.014
REMARK INTRA:                  -1.044
REMARK UNBOUND:                -0.965
REMARK  Name = 
REMARK  8 active torsions:
REMARK  status: ('A' for Active; 'I' for Inactive)
REMARK    1  A    between atoms: C_1  and  C_2
REMARK    2  A    between atoms: C_2  and  C_3
REMARK    3  A    between atoms: C_2  and  C_4
REMARK    4  A    between atoms: C_7  and  C_8
REMARK    5  A    between atoms: C_8  and  N_9
REMARK    6  A    between atoms: C_16  and  C_17
REMARK    7  A    between atoms: C_17  and  N_18
REMARK    8  A    between atoms: C_19  and  C_21
REMARK                            x       y       z     vdW  Elec       q    Type
REMARK                         _______ _______ _______ _____ _____    ______ ____
ROOT
ATOM      1  C   UNL     1      47.961   6.628  14.055  0.00  0.00    +0.000 A 
ATOM      2  C   UNL     1      47.735   7.380  12.874  0.00  0.00    +0.000 A 
ATOM      3  C   UNL     1      46.807   7.002  11.923  0.00  0.00    +0.000 A 
ATOM      4  C   UNL     1      46.079   5.834  12.113  0.00  0.00    +0.000 A 
ATOM      5  C   UNL     1      46.291   5.072  13.290  0.00  0.00    +0.000 A 
ATOM      6  C   UNL     1      47.192   5.471  14.316  0.00  0.00    +0.000 A 
ENDROOT
BRANCH   1   8
ATOM      7  C   UNL     1      50.214   7.655  13.973  0.00  0.00    +0.000 C 
ATOM      8  C   UNL     1      49.067   7.198  14.913  0.00  0.00    +0.000 C 
ATOM      9  C   UNL     1      48.449   8.222  15.885  0.00  0.00    +0.000 C 
ENDBRANCH   1   8
BRANCH   4  10
ATOM     10  C   UNL     1      45.058   5.440  11.055  0.00  0.00    +0.000 C 
BRANCH  10  11
ATOM     11  N   UNL     1      45.467   4.330  10.163  0.00  0.00    +0.000 NA
ATOM     12  C   UNL     1      44.516   3.210  10.214  0.00  0.00    +0.000 C 
ATOM     13  C   UNL     1      44.671   2.167   9.105  0.00  0.00    +0.000 C 
ATOM     14  C   UNL     1      44.772   2.812   7.734  0.00  0.00    +0.000 C 
ATOM     15  C   UNL     1      45.939   3.783   7.725  0.00  0.00    +0.000 C 
ATOM     16  C   UNL     1      45.812   4.842   8.823  0.00  0.00    +0.000 C 
ENDBRANCH  10  11
ENDBRANCH   4  10
BRANCH   6  17
ATOM     17  C   UNL     1      47.219   4.652  15.621  0.00  0.00    +0.000 C 
BRANCH  17  18
ATOM     18  N   UNL     1      48.537   4.511  16.228  0.00  0.00    +0.000 N 
ATOM     19  C   UNL     1      48.886   4.624  17.540  0.00  0.00    +0.000 C 
ATOM     20  O   UNL     1      48.084   4.963  18.442  0.00  0.00    +0.000 OA
ATOM     21  H   UNL     1      49.231   4.103  15.599  0.00  0.00    +0.000 HD
BRANCH  19  22
ATOM     22  C   UNL     1      50.315   4.313  17.862  0.00  0.00    +0.000 A 
ATOM     23  C   UNL     1      51.132   5.234  18.506  0.00  0.00    +0.000 A 
ATOM     24  S   UNL     1      52.673   4.625  18.934  0.00  0.00    +0.000 S 
ATOM     25  C   UNL     1      52.323   3.105  18.261  0.00  0.00    +0.000 A 
ATOM     26  N   UNL     1      53.202   2.064  18.358  0.00  0.00    +0.000 NA
ATOM     27  C   UNL     1      52.763   0.947  17.890  0.00  0.00    +0.000 A 
ATOM     28  N   UNL     1      51.542   0.780  17.287  0.00  0.00    +0.000 N 
ATOM     29  C   UNL     1      50.738   1.842  16.982  0.00  0.00    +0.000 A 
ATOM     30  O   UNL     1      49.816   1.727  16.164  0.00  0.00    +0.000 OA
ATOM     31  C   UNL     1      51.078   3.086  17.646  0.00  0.00    +0.000 A 
ATOM     32  H   UNL     1      51.283  -0.109  16.887  0.00  0.00    +0.000 HD
ENDBRANCH  19  22
ENDBRANCH  17  18
ENDBRANCH   6  17
TORSDOF 6
ENDMDL
MODEL 5
REMARK VINA RESULT:    -7.463      1.992      4.727
REMARK INTER + INTRA:         -11.047
REMARK INTER:                  -9.781
REMARK INTRA:                  -1.265
REMARK UNBOUND:                -0.965
REMARK  Name = 
REMARK  8 active torsions:
REMARK  status: ('A' for Active; 'I' for Inactive)
REMARK    1  A    between atoms: C_1  and  C_2
REMARK    2  A    between atoms: C_2  and  C_3
REMARK    3  A    between atoms: C_2  and  C_4
REMARK    4  A    between atoms: C_7  and  C_8
REMARK    5  A    between atoms: C_8  and  N_9
REMARK    6  A    between atoms: C_16  and  C_17
REMARK    7  A    between atoms: C_17  and  N_18
REMARK    8  A    between atoms: C_19  and  C_21
REMARK                            x       y       z     vdW  Elec       q    Type
REMARK                         _______ _______ _______ _____ _____    ______ ____
ROOT
ATOM      1  C   UNL     1      45.228   4.483  11.787  0.00  0.00    +0.000 A 
ATOM      2  C   UNL     1      45.060   5.505  10.819  0.00  0.00    +0.000 A 
ATOM      3  C   UNL     1      45.382   6.824  11.072  0.00  0.00    +0.000 A 
ATOM      4  C   UNL     1      45.870   7.174  12.325  0.00  0.00    +0.000 A 
ATOM      5  C   UNL     1      46.049   6.163  13.303  0.00  0.00    +0.000 A 
ATOM      6  C   UNL     1      45.787   4.788  13.049  0.00  0.00    +0.000 A 
ENDROOT
BRANCH   1   8
ATOM      7  C   UNL     1      43.282   2.950  11.781  0.00  0.00    +0.000 C 
ATOM      8  C   UNL     1      44.748   3.132  11.307  0.00  0.00    +0.000 C 
ATOM      9  C   UNL     1      45.065   3.009   9.804  0.00  0.00    +0.000 C 
ENDBRANCH   1   8
BRANCH   4  10
ATOM     10  C   UNL     1      46.223   8.632  12.580  0.00  0.00    +0.000 C 
BRANCH  10  11
ATOM     11  N   UNL     1      47.627   8.883  12.982  0.00  0.00    +0.000 NA
ATOM     12  C   UNL     1      47.792   8.842  14.442  0.00  0.00    +0.000 C 
ATOM     13  C   UNL     1      49.240   8.768  14.936  0.00  0.00    +0.000 C 
ATOM     14  C   UNL     1      50.030   7.696  14.207  0.00  0.00    +0.000 C 
ATOM     15  C   UNL     1      49.985   7.972  12.714  0.00  0.00    +0.000 C 
ATOM     16  C   UNL     1      48.550   8.050  12.189  0.00  0.00    +0.000 C 
ENDBRANCH  10  11
ENDBRANCH   4  10
BRANCH   6  17
ATOM     17  C   UNL     1      46.172   3.761  14.132  0.00  0.00    +0.000 C 
BRANCH  17  18
ATOM     18  N   UNL     1      47.239   4.187  15.029  0.00  0.00    +0.000 N 
ATOM     19  C   UNL     1      47.409   3.893  16.349  0.00  0.00    +0.000 C 
ATOM     20  O   UNL     1      46.578   3.241  17.025  0.00  0.00    +0.000 OA
ATOM     21  H   UNL     1      48.033   4.608  14.544  0.00  0.00    +0.000 HD
BRANCH  19  22
ATOM     22  C   UNL     1      48.674   4.399  16.969  0.00  0.00    +0.000 A 
ATOM     23  C   UNL     1      48.795   5.713  17.407  0.00  0.00    +0.000 A 
ATOM     24  S   UNL     1      50.254   6.042  18.239  0.00  0.00    +0.000 S 
ATOM     25  C   UNL     1      50.798   4.446  18.037  0.00  0.00    +0.000 A 
ATOM     26  N   UNL     1      51.969   4.017  18.594  0.00  0.00    +0.000 NA
ATOM     27  C   UNL     1      52.206   2.760  18.441  0.00  0.00    +0.000 A 
ATOM     28  N   UNL     1      51.404   1.894  17.741  0.00  0.00    +0.000 N 
ATOM     29  C   UNL     1      50.348   2.335  16.995  0.00  0.00    +0.000 A 
ATOM     30  O   UNL     1      49.841   1.617  16.122  0.00  0.00    +0.000 OA
ATOM     31  C   UNL     1      49.916   3.692  17.274  0.00  0.00    +0.000 A 
ATOM     32  H   UNL     1      51.678   0.933  17.608  0.00  0.00    +0.000 HD
ENDBRANCH  19  22
ENDBRANCH  17  18
ENDBRANCH   6  17
TORSDOF 6
ENDMDL
MODEL 6
REMARK VINA RESULT:    -7.394      2.306      3.402
REMARK INTER + INTRA:         -10.953
REMARK INTER:                  -9.710
REMARK INTRA:                  -1.243
REMARK UNBOUND:                -0.965
REMARK  Name = 
REMARK  8 active torsions:
REMARK  status: ('A' for Active; 'I' for Inactive)
REMARK    1  A    between atoms: C_1  and  C_2
REMARK    2  A    between atoms: C_2  and  C_3
REMARK    3  A    between atoms: C_2  and  C_4
REMARK    4  A    between atoms: C_7  and  C_8
REMARK    5  A    between atoms: C_8  and  N_9
REMARK    6  A    between atoms: C_16  and  C_17
REMARK    7  A    between atoms: C_17  and  N_18
REMARK    8  A    between atoms: C_19  and  C_21
REMARK                            x       y       z     vdW  Elec       q    Type
REMARK                         _______ _______ _______ _____ _____    ______ ____
ROOT
ATOM      1  C   UNL     1      47.156   9.194  12.116  0.00  0.00    +0.000 A 
ATOM      2  C   UNL     1      45.768   9.229  11.822  0.00  0.00    +0.000 A 
ATOM      3  C   UNL     1      45.009   8.082  11.699  0.00  0.00    +0.000 A 
ATOM      4  C   UNL     1      45.622   6.844  11.848  0.00  0.00    +0.000 A 
ATOM      5  C   UNL     1      47.007   6.791  12.146  0.00  0.00    +0.000 A 
ATOM      6  C   UNL     1      47.799   7.956  12.342  0.00  0.00    +0.000 A 
ENDROOT
BRANCH   1   8
ATOM      7  C   UNL     1      48.899  10.597  11.054  0.00  0.00    +0.000 C 
ATOM      8  C   UNL     1      47.788  10.566  12.137  0.00  0.00    +0.000 C 
ATOM      9  C   UNL     1      46.666  11.620  12.080  0.00  0.00    +0.000 C 
ENDBRANCH   1   8
BRANCH   4  10
ATOM     10  C   UNL     1      44.764   5.594  11.713  0.00  0.00    +0.000 C 
BRANCH  10  11
ATOM     11  N   UNL     1      45.259   4.587  10.747  0.00  0.00    +0.000 NA
ATOM     12  C   UNL     1      44.409   3.388  10.723  0.00  0.00    +0.000 C 
ATOM     13  C   UNL     1      44.644   2.441   9.543  0.00  0.00    +0.000 C 
ATOM     14  C   UNL     1      44.679   3.184   8.220  0.00  0.00    +0.000 C 
ATOM     15  C   UNL     1      45.758   4.251   8.276  0.00  0.00    +0.000 C 
ATOM     16  C   UNL     1      45.549   5.217   9.445  0.00  0.00    +0.000 C 
ENDBRANCH  10  11
ENDBRANCH   4  10
BRANCH   6  17
ATOM     17  C   UNL     1      49.253   7.776  12.821  0.00  0.00    +0.000 C 
BRANCH  17  18
ATOM     18  N   UNL     1      49.397   7.074  14.090  0.00  0.00    +0.000 N 
ATOM     19  C   UNL     1      48.999   7.469  15.332  0.00  0.00    +0.000 C 
ATOM     20  O   UNL     1      48.496   8.592  15.571  0.00  0.00    +0.000 OA
ATOM     21  H   UNL     1      49.671   6.095  13.984  0.00  0.00    +0.000 HD
BRANCH  19  22
ATOM     22  C   UNL     1      49.196   6.468  16.427  0.00  0.00    +0.000 A 
ATOM     23  C   UNL     1      50.076   6.702  17.478  0.00  0.00    +0.000 A 
ATOM     24  S   UNL     1      50.027   5.515  18.710  0.00  0.00    +0.000 S 
ATOM     25  C   UNL     1      48.838   4.624  17.886  0.00  0.00    +0.000 A 
ATOM     26  N   UNL     1      48.275   3.508  18.436  0.00  0.00    +0.000 NA
ATOM     27  C   UNL     1      47.319   2.993  17.744  0.00  0.00    +0.000 A 
ATOM     28  N   UNL     1      46.900   3.460  16.523  0.00  0.00    +0.000 N 
ATOM     29  C   UNL     1      47.584   4.434  15.852  0.00  0.00    +0.000 A 
ATOM     30  O   UNL     1      47.406   4.618  14.640  0.00  0.00    +0.000 OA
ATOM     31  C   UNL     1      48.540   5.181  16.649  0.00  0.00    +0.000 A 
ATOM     32  H   UNL     1      46.186   2.974  16.004  0.00  0.00    +0.000 HD
ENDBRANCH  19  22
ENDBRANCH  17  18
ENDBRANCH   6  17
TORSDOF 6
ENDMDL
MODEL 7
REMARK VINA RESULT:    -7.338      3.587      8.990
REMARK INTER + INTRA:         -10.878
REMARK INTER:                  -9.552
REMARK INTRA:                  -1.325
REMARK UNBOUND:                -0.965
REMARK  Name = 
REMARK  8 active torsions:
REMARK  status: ('A' for Active; 'I' for Inactive)
REMARK    1  A    between atoms: C_1  and  C_2
REMARK    2  A    between atoms: C_2  and  C_3
REMARK    3  A    between atoms: C_2  and  C_4
REMARK    4  A    between atoms: C_7  and  C_8
REMARK    5  A    between atoms: C_8  and  N_9
REMARK    6  A    between atoms: C_16  and  C_17
REMARK    7  A    between atoms: C_17  and  N_18
REMARK    8  A    between atoms: C_19  and  C_21
REMARK                            x       y       z     vdW  Elec       q    Type
REMARK                         _______ _______ _______ _____ _____    ______ ____
ROOT
ATOM      1  C   UNL     1      48.551   5.164  17.752  0.00  0.00    +0.000 A 
ATOM      2  C   UNL     1      48.156   5.174  19.114  0.00  0.00    +0.000 A 
ATOM      3  C   UNL     1      48.066   6.341  19.849  0.00  0.00    +0.000 A 
ATOM      4  C   UNL     1      48.391   7.549  19.245  0.00  0.00    +0.000 A 
ATOM      5  C   UNL     1      48.784   7.556  17.882  0.00  0.00    +0.000 A 
ATOM      6  C   UNL     1      48.824   6.380  17.085  0.00  0.00    +0.000 A 
ENDROOT
BRANCH   1   8
ATOM      7  C   UNL     1      49.997   3.157  17.614  0.00  0.00    +0.000 C 
ATOM      8  C   UNL     1      48.641   3.769  17.175  0.00  0.00    +0.000 C 
ATOM      9  C   UNL     1      47.340   3.018  17.517  0.00  0.00    +0.000 C 
ENDBRANCH   1   8
BRANCH   4  10
ATOM     10  C   UNL     1      48.278   8.822  20.073  0.00  0.00    +0.000 C 
BRANCH  10  11
ATOM     11  N   UNL     1      47.253   9.787  19.614  0.00  0.00    +0.000 NA
ATOM     12  C   UNL     1      46.285  10.101  20.675  0.00  0.00    +0.000 C 
ATOM     13  C   UNL     1      45.391  11.315  20.408  0.00  0.00    +0.000 C 
ATOM     14  C   UNL     1      46.195  12.518  19.948  0.00  0.00    +0.000 C 
ATOM     15  C   UNL     1      46.981  12.145  18.703  0.00  0.00    +0.000 C 
ATOM     16  C   UNL     1      47.887  10.934  18.938  0.00  0.00    +0.000 C 
ENDBRANCH  10  11
ENDBRANCH   4  10
BRANCH   6  17
ATOM     17  C   UNL     1      49.108   6.531  15.577  0.00  0.00    +0.000 C 
BRANCH  17  18
ATOM     18  N   UNL     1      47.929   6.460  14.722  0.00  0.00    +0.000 N 
ATOM     19  C   UNL     1      47.858   6.538  13.363  0.00  0.00    +0.000 C 
ATOM     20  O   UNL     1      48.849   6.772  12.631  0.00  0.00    +0.000 OA
ATOM     21  H   UNL     1      47.092   6.136  15.210  0.00  0.00    +0.000 HD
BRANCH  19  22
ATOM     22  C   UNL     1      46.501   6.320  12.770  0.00  0.00    +0.000 A 
ATOM     23  C   UNL     1      45.788   7.360  12.183  0.00  0.00    +0.000 A 
ATOM     24  S   UNL     1      44.340   6.870  11.415  0.00  0.00    +0.000 S 
ATOM     25  C   UNL     1      44.591   5.246  11.847  0.00  0.00    +0.000 A 
ATOM     26  N   UNL     1      43.748   4.258  11.424  0.00  0.00    +0.000 NA
ATOM     27  C   UNL     1      44.116   3.067  11.744  0.00  0.00    +0.000 A 
ATOM     28  N   UNL     1      45.228   2.767  12.491  0.00  0.00    +0.000 N 
ATOM     29  C   UNL     1      45.964   3.740  13.107  0.00  0.00    +0.000 A 
ATOM     30  O   UNL     1      46.746   3.460  14.025  0.00  0.00    +0.000 OA
ATOM     31  C   UNL     1      45.723   5.091  12.636  0.00  0.00    +0.000 A 
ATOM     32  H   UNL     1      45.427   1.816  12.758  0.00  0.00    +0.000 HD
ENDBRANCH  19  22
ENDBRANCH  17  18
ENDBRANCH   6  17
TORSDOF 6
ENDMDL
MODEL 8
REMARK VINA RESULT:    -7.283      2.608      4.873
REMARK INTER + INTRA:         -10.803
REMARK INTER:                  -9.317
REMARK INTRA:                  -1.486
REMARK UNBOUND:                -0.965
REMARK  Name = 
REMARK  8 active torsions:
REMARK  status: ('A' for Active; 'I' for Inactive)
REMARK    1  A    between atoms: C_1  and  C_2
REMARK    2  A    between atoms: C_2  and  C_3
REMARK    3  A    between atoms: C_2  and  C_4
REMARK    4  A    between atoms: C_7  and  C_8
REMARK    5  A    between atoms: C_8  and  N_9
REMARK    6  A    between atoms: C_16  and  C_17
REMARK    7  A    between atoms: C_17  and  N_18
REMARK    8  A    between atoms: C_19  and  C_21
REMARK                            x       y       z     vdW  Elec       q    Type
REMARK                         _______ _______ _______ _____ _____    ______ ____
ROOT
ATOM      1  C   UNL     1      45.052   4.482  11.745  0.00  0.00    +0.000 A 
ATOM      2  C   UNL     1      44.518   5.576  11.015  0.00  0.00    +0.000 A 
ATOM      3  C   UNL     1      44.726   6.888  11.393  0.00  0.00    +0.000 A 
ATOM      4  C   UNL     1      45.466   7.156  12.537  0.00  0.00    +0.000 A 
ATOM      5  C   UNL     1      46.010   6.074  13.276  0.00  0.00    +0.000 A 
ATOM      6  C   UNL     1      45.868   4.717  12.875  0.00  0.00    +0.000 A 
ENDROOT
BRANCH   1   8
ATOM      7  C   UNL     1      43.272   2.761  11.808  0.00  0.00    +0.000 C 
ATOM      8  C   UNL     1      44.640   3.141  11.182  0.00  0.00    +0.000 C 
ATOM      9  C   UNL     1      44.764   3.199   9.647  0.00  0.00    +0.000 C 
ENDBRANCH   1   8
BRANCH   4  10
ATOM     10  C   UNL     1      45.687   8.609  12.930  0.00  0.00    +0.000 C 
BRANCH  10  11
ATOM     11  N   UNL     1      46.467   9.415  11.964  0.00  0.00    +0.000 NA
ATOM     12  C   UNL     1      45.930  10.777  11.828  0.00  0.00    +0.000 C 
ATOM     13  C   UNL     1      46.843  11.774  11.110  0.00  0.00    +0.000 C 
ATOM     14  C   UNL     1      48.260  11.735  11.655  0.00  0.00    +0.000 C 
ATOM     15  C   UNL     1      48.803  10.322  11.530  0.00  0.00    +0.000 C 
ATOM     16  C   UNL     1      47.911   9.301  12.240  0.00  0.00    +0.000 C 
ENDBRANCH  10  11
ENDBRANCH   4  10
BRANCH   6  17
ATOM     17  C   UNL     1      46.638   3.640  13.664  0.00  0.00    +0.000 C 
BRANCH  17  18
ATOM     18  N   UNL     1      47.116   4.064  14.973  0.00  0.00    +0.000 N 
ATOM     19  C   UNL     1      48.002   3.439  15.800  0.00  0.00    +0.000 C 
ATOM     20  O   UNL     1      48.492   2.310  15.561  0.00  0.00    +0.000 OA
ATOM     21  H   UNL     1      46.882   5.033  15.197  0.00  0.00    +0.000 HD
BRANCH  19  22
ATOM     22  C   UNL     1      48.374   4.189  17.040  0.00  0.00    +0.000 A 
ATOM     23  C   UNL     1      48.111   3.679  18.306  0.00  0.00    +0.000 A 
ATOM     24  S   UNL     1      48.767   4.606  19.586  0.00  0.00    +0.000 S 
ATOM     25  C   UNL     1      49.419   5.743  18.506  0.00  0.00    +0.000 A 
ATOM     26  N   UNL     1      50.192   6.780  18.945  0.00  0.00    +0.000 NA
ATOM     27  C   UNL     1      50.699   7.504  18.008  0.00  0.00    +0.000 A 
ATOM     28  N   UNL     1      50.467   7.320  16.668  0.00  0.00    +0.000 N 
ATOM     29  C   UNL     1      49.531   6.435  16.214  0.00  0.00    +0.000 A 
ATOM     30  O   UNL     1      49.097   6.505  15.056  0.00  0.00    +0.000 OA
ATOM     31  C   UNL     1      49.072   5.464  17.191  0.00  0.00    +0.000 A 
ATOM     32  H   UNL     1      50.846   7.961  15.988  0.00  0.00    +0.000 HD
ENDBRANCH  19  22
ENDBRANCH  17  18
ENDBRANCH   6  17
TORSDOF 6
ENDMDL
MODEL 9
REMARK VINA RESULT:    -7.234      3.070      8.248
REMARK INTER + INTRA:         -10.736
REMARK INTER:                  -9.584
REMARK INTRA:                  -1.152
REMARK UNBOUND:                -0.965
REMARK  Name = 
REMARK  8 active torsions:
REMARK  status: ('A' for Active; 'I' for Inactive)
REMARK    1  A    between atoms: C_1  and  C_2
REMARK    2  A    between atoms: C_2  and  C_3
REMARK    3  A    between atoms: C_2  and  C_4
REMARK    4  A    between atoms: C_7  and  C_8
REMARK    5  A    between atoms: C_8  and  N_9
REMARK    6  A    between atoms: C_16  and  C_17
REMARK    7  A    between atoms: C_17  and  N_18
REMARK    8  A    between atoms: C_19  and  C_21
REMARK                            x       y       z     vdW  Elec       q    Type
REMARK                         _______ _______ _______ _____ _____    ______ ____
ROOT
ATOM      1  C   UNL     1      48.656   7.615  17.976  0.00  0.00    +0.000 A 
ATOM      2  C   UNL     1      48.829   6.854  19.161  0.00  0.00    +0.000 A 
ATOM      3  C   UNL     1      49.112   5.501  19.136  0.00  0.00    +0.000 A 
ATOM      4  C   UNL     1      49.212   4.852  17.912  0.00  0.00    +0.000 A 
ATOM      5  C   UNL     1      49.045   5.600  16.718  0.00  0.00    +0.000 A 
ATOM      6  C   UNL     1      48.818   7.004  16.712  0.00  0.00    +0.000 A 
ENDROOT
BRANCH   1   8
ATOM      7  C   UNL     1      47.352   9.083  19.486  0.00  0.00    +0.000 C 
ATOM      8  C   UNL     1      48.290   9.056  18.251  0.00  0.00    +0.000 C 
ATOM      9  C   UNL     1      49.586   9.888  18.283  0.00  0.00    +0.000 C 
ENDBRANCH   1   8
BRANCH   4  10
ATOM     10  C   UNL     1      49.529   3.364  17.909  0.00  0.00    +0.000 C 
BRANCH  10  11
ATOM     11  N   UNL     1      50.888   3.007  17.440  0.00  0.00    +0.000 NA
ATOM     12  C   UNL     1      51.925   3.796  18.121  0.00  0.00    +0.000 C 
ATOM     13  C   UNL     1      53.358   3.285  17.947  0.00  0.00    +0.000 C 
ATOM     14  C   UNL     1      53.461   1.794  18.214  0.00  0.00    +0.000 C 
ATOM     15  C   UNL     1      52.511   1.055  17.287  0.00  0.00    +0.000 C 
ATOM     16  C   UNL     1      51.068   1.543  17.439  0.00  0.00    +0.000 C 
ENDBRANCH  10  11
ENDBRANCH   4  10
BRANCH   6  17
ATOM     17  C   UNL     1      48.815   7.736  15.356  0.00  0.00    +0.000 C 
BRANCH  17  18
ATOM     18  N   UNL     1      47.699   7.399  14.481  0.00  0.00    +0.000 N 
ATOM     19  C   UNL     1      47.690   6.588  13.385  0.00  0.00    +0.000 C 
ATOM     20  O   UNL     1      48.721   6.054  12.913  0.00  0.00    +0.000 OA
ATOM     21  H   UNL     1      46.790   7.675  14.858  0.00  0.00    +0.000 HD
BRANCH  19  22
ATOM     22  C   UNL     1      46.351   6.358  12.758  0.00  0.00    +0.000 A 
ATOM     23  C   UNL     1      45.628   7.397  12.184  0.00  0.00    +0.000 A 
ATOM     24  S   UNL     1      44.206   6.897  11.372  0.00  0.00    +0.000 S 
ATOM     25  C   UNL     1      44.484   5.269  11.766  0.00  0.00    +0.000 A 
ATOM     26  N   UNL     1      43.672   4.275  11.300  0.00  0.00    +0.000 NA
ATOM     27  C   UNL     1      44.059   3.083  11.596  0.00  0.00    +0.000 A 
ATOM     28  N   UNL     1      45.162   2.787  12.358  0.00  0.00    +0.000 N 
ATOM     29  C   UNL     1      45.863   3.758  13.015  0.00  0.00    +0.000 A 
ATOM     30  O   UNL     1      46.632   3.471  13.942  0.00  0.00    +0.000 OA
ATOM     31  C   UNL     1      45.603   5.116  12.575  0.00  0.00    +0.000 A 
ATOM     32  H   UNL     1      45.376   1.833  12.604  0.00  0.00    +0.000 HD
ENDBRANCH  19  22
ENDBRANCH  17  18
ENDBRANCH   6  17
TORSDOF 6
ENDMDL
