MODEL 1
REMARK VINA RESULT:    -7.922      0.000      0.000
REMARK INTER + INTRA:         -12.292
REMARK INTER:                 -11.164
REMARK INTRA:                  -1.128
REMARK UNBOUND:                -1.128
REMARK  Name = 
REMARK  7 active torsions:
REMARK  status: ('A' for Active; 'I' for Inactive)
REMARK    1  A    between atoms: C_2  and  C_3
REMARK    2  A    between atoms: C_2  and  C_25
REMARK    3  A    between atoms: C_3  and  C_4
REMARK    4  A    between atoms: C_4  and  C_5
REMARK    5  A    between atoms: C_8  and  C_9
REMARK    6  A    between atoms: C_9  and  N_10
REMARK    7  A    between atoms: C_11  and  C_13
REMARK                            x       y       z     vdW  Elec       q    Type
REMARK                         _______ _______ _______ _____ _____    ______ ____
ROOT
ATOM      1  C   UNL     1      48.076   6.506  14.150  0.00  0.00    +0.000 C 
ENDROOT
BRANCH   1   5
ATOM      2  C   UNL     1      44.739   5.330  11.651  0.00  0.00    +0.000 A 
ATOM      3  C   UNL     1      45.005   4.654  12.851  0.00  0.00    +0.000 A 
ATOM      4  C   UNL     1      46.084   5.028  13.658  0.00  0.00    +0.000 A 
ATOM      5  C   UNL     1      46.924   6.082  13.279  0.00  0.00    +0.000 A 
ATOM      6  C   UNL     1      46.685   6.728  12.059  0.00  0.00    +0.000 A 
ATOM      7  C   UNL     1      45.600   6.361  11.257  0.00  0.00    +0.000 A 
BRANCH   2   8
ATOM      8  C   UNL     1      43.553   4.949  10.795  0.00  0.00    +0.000 C 
BRANCH   8   9
ATOM      9  C   UNL     1      43.984   4.475   9.406  0.00  0.00    +0.000 C 
BRANCH   9  11
ATOM     10  O   UNL     1      43.923   2.174  10.124  0.00  0.00    +0.000 OA
ATOM     11  C   UNL     1      44.428   3.025   9.396  0.00  0.00    +0.000 C 
BRANCH  11  12
ATOM     12  C   UNL     1      45.510   2.628   8.453  0.00  0.00    +0.000 A 
ATOM     13  C   UNL     1      46.133   3.595   7.662  0.00  0.00    +0.000 A 
ATOM     14  C   UNL     1      47.167   3.223   6.802  0.00  0.00    +0.000 A 
ATOM     15  C   UNL     1      47.541   1.887   6.764  0.00  0.00    +0.000 A 
ATOM     16  N   UNL     1      46.955   0.922   7.506  0.00  0.00    +0.000 NA
ATOM     17  C   UNL     1      45.951   1.316   8.332  0.00  0.00    +0.000 A 
ENDBRANCH  11  12
ENDBRANCH   9  11
ENDBRANCH   8   9
ENDBRANCH   2   8
ENDBRANCH   1   5
BRANCH   1  18
ATOM     18  N   UNL     1      48.145   5.736  15.365  0.00  0.00    +0.000 N 
ATOM     19  C   UNL     1      48.929   6.154  16.413  0.00  0.00    +0.000 C 
ATOM     20  O   UNL     1      49.589   7.189  16.369  0.00  0.00    +0.000 OA
ATOM     21  H   UNL     1      47.761   4.796  15.360  0.00  0.00    +0.000 HD
BRANCH  19  22
ATOM     22  C   UNL     1      48.888   5.319  17.611  0.00  0.00    +0.000 A 
ATOM     23  C   UNL     1      49.280   3.984  17.625  0.00  0.00    +0.000 A 
ATOM     24  N   UNL     1      49.165   3.491  18.899  0.00  0.00    +0.000 N 
ATOM     25  C   UNL     1      48.664   4.468  19.707  0.00  0.00    +0.000 A 
ATOM     26  N   UNL     1      48.403   4.290  21.022  0.00  0.00    +0.000 NA
ATOM     27  C   UNL     1      47.901   5.345  21.584  0.00  0.00    +0.000 A 
ATOM     28  N   UNL     1      47.651   6.543  20.944  0.00  0.00    +0.000 N 
ATOM     29  C   UNL     1      47.941   6.764  19.612  0.00  0.00    +0.000 A 
ATOM     30  O   UNL     1      47.770   7.850  19.069  0.00  0.00    +0.000 OA
ATOM     31  C   UNL     1      48.482   5.604  18.947  0.00  0.00    +0.000 A 
ATOM     32  H   UNL     1      49.402   2.558  19.208  0.00  0.00    +0.000 HD
ATOM     33  H   UNL     1      47.267   7.326  21.449  0.00  0.00    +0.000 HD
ENDBRANCH  19  22
ENDBRANCH   1  18
TORSDOF 7
ENDMDL
MODEL 2
REMARK VINA RESULT:    -7.778      1.349      1.964
REMARK INTER + INTRA:         -12.089
REMARK INTER:                 -11.029
REMARK INTRA:                  -1.059
REMARK UNBOUND:                -1.128
REMARK  Name = 
REMARK  7 active torsions:
REMARK  status: ('A' for Active; 'I' for Inactive)
REMARK    1  A    between atoms: C_2  and  C_3
REMARK    2  A    between atoms: C_2  and  C_25
REMARK    3  A    between atoms: C_3  and  C_4
REMARK    4  A    between atoms: C_4  and  C_5
REMARK    5  A    between atoms: C_8  and  C_9
REMARK    6  A    between atoms: C_9  and  N_10
REMARK    7  A    between atoms: C_11  and  C_13
REMARK                            x       y       z     vdW  Elec       q    Type
REMARK                         _______ _______ _______ _____ _____    ______ ____
ROOT
ATOM      1  C   UNL     1      47.994   7.474  13.594  0.00  0.00    +0.000 C 
ENDROOT
BRANCH   1   5
ATOM      2  C   UNL     1      44.976   4.959  11.770  0.00  0.00    +0.000 A 
ATOM      3  C   UNL     1      45.722   4.499  12.865  0.00  0.00    +0.000 A 
ATOM      4  C   UNL     1      46.700   5.307  13.453  0.00  0.00    +0.000 A 
ATOM      5  C   UNL     1      46.958   6.589  12.955  0.00  0.00    +0.000 A 
ATOM      6  C   UNL     1      46.244   7.031  11.834  0.00  0.00    +0.000 A 
ATOM      7  C   UNL     1      45.258   6.228  11.252  0.00  0.00    +0.000 A 
BRANCH   2   8
ATOM      8  C   UNL     1      43.894   4.101  11.155  0.00  0.00    +0.000 C 
BRANCH   8   9
ATOM      9  C   UNL     1      44.480   2.969  10.310  0.00  0.00    +0.000 C 
BRANCH   9  11
ATOM     10  O   UNL     1      44.180   4.324   8.339  0.00  0.00    +0.000 OA
ATOM     11  C   UNL     1      44.767   3.392   8.882  0.00  0.00    +0.000 C 
BRANCH  11  12
ATOM     12  C   UNL     1      45.811   2.648   8.125  0.00  0.00    +0.000 A 
ATOM     13  C   UNL     1      46.630   3.326   7.220  0.00  0.00    +0.000 A 
ATOM     14  C   UNL     1      47.627   2.630   6.536  0.00  0.00    +0.000 A 
ATOM     15  C   UNL     1      47.768   1.272   6.782  0.00  0.00    +0.000 A 
ATOM     16  N   UNL     1      46.988   0.581   7.642  0.00  0.00    +0.000 NA
ATOM     17  C   UNL     1      46.026   1.286   8.292  0.00  0.00    +0.000 A 
ENDBRANCH  11  12
ENDBRANCH   9  11
ENDBRANCH   8   9
ENDBRANCH   2   8
ENDBRANCH   1   5
BRANCH   1  18
ATOM     18  N   UNL     1      47.942   7.415  15.032  0.00  0.00    +0.000 N 
ATOM     19  C   UNL     1      49.008   6.928  15.750  0.00  0.00    +0.000 C 
ATOM     20  O   UNL     1      50.039   6.537  15.211  0.00  0.00    +0.000 OA
ATOM     21  H   UNL     1      47.045   7.558  15.486  0.00  0.00    +0.000 HD
BRANCH  19  22
ATOM     22  C   UNL     1      48.862   6.958  17.203  0.00  0.00    +0.000 A 
ATOM     23  C   UNL     1      48.692   8.133  17.929  0.00  0.00    +0.000 A 
ATOM     24  N   UNL     1      48.543   7.827  19.257  0.00  0.00    +0.000 N 
ATOM     25  C   UNL     1      48.657   6.477  19.415  0.00  0.00    +0.000 A 
ATOM     26  N   UNL     1      48.586   5.857  20.615  0.00  0.00    +0.000 NA
ATOM     27  C   UNL     1      48.754   4.574  20.529  0.00  0.00    +0.000 A 
ATOM     28  N   UNL     1      48.974   3.878  19.357  0.00  0.00    +0.000 N 
ATOM     29  C   UNL     1      49.013   4.481  18.115  0.00  0.00    +0.000 A 
ATOM     30  O   UNL     1      49.151   3.846  17.076  0.00  0.00    +0.000 OA
ATOM     31  C   UNL     1      48.853   5.914  18.173  0.00  0.00    +0.000 A 
ATOM     32  H   UNL     1      48.380   8.480  20.011  0.00  0.00    +0.000 HD
ATOM     33  H   UNL     1      49.085   2.877  19.366  0.00  0.00    +0.000 HD
ENDBRANCH  19  22
ENDBRANCH   1  18
TORSDOF 7
ENDMDL
MODEL 3
REMARK VINA RESULT:    -7.709      4.084      6.248
REMARK INTER + INTRA:         -11.992
REMARK INTER:                 -11.425
REMARK INTRA:                  -0.566
REMARK UNBOUND:                -1.128
REMARK  Name = 
REMARK  7 active torsions:
REMARK  status: ('A' for Active; 'I' for Inactive)
REMARK    1  A    between atoms: C_2  and  C_3
REMARK    2  A    between atoms: C_2  and  C_25
REMARK    3  A    between atoms: C_3  and  C_4
REMARK    4  A    between atoms: C_4  and  C_5
REMARK    5  A    between atoms: C_8  and  C_9
REMARK    6  A    between atoms: C_9  and  N_10
REMARK    7  A    between atoms: C_11  and  C_13
REMARK                            x       y       z     vdW  Elec       q    Type
REMARK                         _______ _______ _______ _____ _____    ______ ____
ROOT
ATOM      1  C   UNL     1      43.689   4.903  10.260  0.00  0.00    +0.000 C 
ENDROOT
BRANCH   1   5
ATOM      2  C   UNL     1      46.129   2.046   8.106  0.00  0.00    +0.000 A 
ATOM      3  C   UNL     1      46.301   3.423   7.908  0.00  0.00    +0.000 A 
ATOM      4  C   UNL     1      45.512   4.349   8.599  0.00  0.00    +0.000 A 
ATOM      5  C   UNL     1      44.529   3.915   9.496  0.00  0.00    +0.000 A 
ATOM      6  C   UNL     1      44.328   2.538   9.660  0.00  0.00    +0.000 A 
ATOM      7  C   UNL     1      45.124   1.614   8.978  0.00  0.00    +0.000 A 
BRANCH   2   8
ATOM      8  C   UNL     1      47.005   1.045   7.387  0.00  0.00    +0.000 C 
BRANCH   8   9
ATOM      9  C   UNL     1      47.876   1.716   6.322  0.00  0.00    +0.000 C 
BRANCH   9  11
ATOM     10  O   UNL     1      46.813   3.169   4.719  0.00  0.00    +0.000 OA
ATOM     11  C   UNL     1      47.111   2.024   5.050  0.00  0.00    +0.000 C 
BRANCH  11  12
ATOM     12  C   UNL     1      46.722   0.887   4.171  0.00  0.00    +0.000 A 
ATOM     13  C   UNL     1      45.946   1.119   3.035  0.00  0.00    +0.000 A 
ATOM     14  C   UNL     1      45.610   0.054   2.198  0.00  0.00    +0.000 A 
ATOM     15  C   UNL     1      46.064  -1.213   2.532  0.00  0.00    +0.000 A 
ATOM     16  N   UNL     1      46.807  -1.478   3.629  0.00  0.00    +0.000 NA
ATOM     17  C   UNL     1      47.117  -0.421   4.424  0.00  0.00    +0.000 A 
ENDBRANCH  11  12
ENDBRANCH   9  11
ENDBRANCH   8   9
ENDBRANCH   2   8
ENDBRANCH   1   5
BRANCH   1  18
ATOM     18  N   UNL     1      44.469   6.007  10.756  0.00  0.00    +0.000 N 
ATOM     19  C   UNL     1      44.666   6.174  12.105  0.00  0.00    +0.000 C 
ATOM     20  O   UNL     1      44.201   5.399  12.937  0.00  0.00    +0.000 OA
ATOM     21  H   UNL     1      44.707   6.754  10.111  0.00  0.00    +0.000 HD
BRANCH  19  22
ATOM     22  C   UNL     1      45.511   7.300  12.490  0.00  0.00    +0.000 A 
ATOM     23  C   UNL     1      45.119   8.629  12.359  0.00  0.00    +0.000 A 
ATOM     24  N   UNL     1      46.109   9.444  12.845  0.00  0.00    +0.000 N 
ATOM     25  C   UNL     1      47.157   8.672  13.249  0.00  0.00    +0.000 A 
ATOM     26  N   UNL     1      48.307   9.178  13.751  0.00  0.00    +0.000 NA
ATOM     27  C   UNL     1      49.177   8.260  14.039  0.00  0.00    +0.000 A 
ATOM     28  N   UNL     1      48.984   6.902  13.873  0.00  0.00    +0.000 N 
ATOM     29  C   UNL     1      47.808   6.358  13.398  0.00  0.00    +0.000 A 
ATOM     30  O   UNL     1      47.627   5.148  13.311  0.00  0.00    +0.000 OA
ATOM     31  C   UNL     1      46.823   7.351  13.046  0.00  0.00    +0.000 A 
ATOM     32  H   UNL     1      46.087  10.453  12.897  0.00  0.00    +0.000 HD
ATOM     33  H   UNL     1      49.704   6.246  14.129  0.00  0.00    +0.000 HD
ENDBRANCH  19  22
ENDBRANCH   1  18
TORSDOF 7
ENDMDL
MODEL 4
REMARK VINA RESULT:    -7.654      3.960      8.450
REMARK INTER + INTRA:         -11.914
REMARK INTER:                  -9.908
REMARK INTRA:                  -2.006
REMARK UNBOUND:                -1.128
REMARK  Name = 
REMARK  7 active torsions:
REMARK  status: ('A' for Active; 'I' for Inactive)
REMARK    1  A    between atoms: C_2  and  C_3
REMARK    2  A    between atoms: C_2  and  C_25
REMARK    3  A    between atoms: C_3  and  C_4
REMARK    4  A    between atoms: C_4  and  C_5
REMARK    5  A    between atoms: C_8  and  C_9
REMARK    6  A    between atoms: C_9  and  N_10
REMARK    7  A    between atoms: C_11  and  C_13
REMARK                            x       y       z     vdW  Elec       q    Type
REMARK                         _______ _______ _______ _____ _____    ______ ____
ROOT
ATOM      1  C   UNL     1      48.513   8.246  14.494  0.00  0.00    +0.000 C 
ENDROOT
BRANCH   1   5
ATOM      2  C   UNL     1      50.884   6.915  17.865  0.00  0.00    +0.000 A 
ATOM      3  C   UNL     1      49.615   7.478  18.063  0.00  0.00    +0.000 A 
ATOM      4  C   UNL     1      48.849   7.913  16.978  0.00  0.00    +0.000 A 
ATOM      5  C   UNL     1      49.338   7.800  15.671  0.00  0.00    +0.000 A 
ATOM      6  C   UNL     1      50.624   7.278  15.477  0.00  0.00    +0.000 A 
ATOM      7  C   UNL     1      51.386   6.834  16.562  0.00  0.00    +0.000 A 
BRANCH   2   8
ATOM      8  C   UNL     1      51.699   6.412  19.035  0.00  0.00    +0.000 C 
BRANCH   8   9
ATOM      9  C   UNL     1      51.182   5.068  19.551  0.00  0.00    +0.000 C 
BRANCH   9  11
ATOM     10  O   UNL     1      52.650   3.454  18.526  0.00  0.00    +0.000 OA
ATOM     11  C   UNL     1      51.517   3.918  18.622  0.00  0.00    +0.000 C 
BRANCH  11  12
ATOM     12  C   UNL     1      50.418   3.329  17.808  0.00  0.00    +0.000 A 
ATOM     13  C   UNL     1      49.162   3.939  17.789  0.00  0.00    +0.000 A 
ATOM     14  C   UNL     1      48.144   3.401  17.001  0.00  0.00    +0.000 A 
ATOM     15  C   UNL     1      48.421   2.264  16.257  0.00  0.00    +0.000 A 
ATOM     16  N   UNL     1      49.619   1.640  16.258  0.00  0.00    +0.000 NA
ATOM     17  C   UNL     1      50.589   2.187  17.036  0.00  0.00    +0.000 A 
ENDBRANCH  11  12
ENDBRANCH   9  11
ENDBRANCH   8   9
ENDBRANCH   2   8
ENDBRANCH   1   5
BRANCH   1  18
ATOM     18  N   UNL     1      47.454   7.317  14.195  0.00  0.00    +0.000 N 
ATOM     19  C   UNL     1      47.671   6.259  13.346  0.00  0.00    +0.000 C 
ATOM     20  O   UNL     1      48.761   6.052  12.819  0.00  0.00    +0.000 OA
ATOM     21  H   UNL     1      46.507   7.564  14.467  0.00  0.00    +0.000 HD
BRANCH  19  22
ATOM     22  C   UNL     1      46.540   5.356  13.152  0.00  0.00    +0.000 A 
ATOM     23  C   UNL     1      46.591   3.995  13.442  0.00  0.00    +0.000 A 
ATOM     24  N   UNL     1      45.364   3.434  13.195  0.00  0.00    +0.000 N 
ATOM     25  C   UNL     1      44.528   4.394  12.707  0.00  0.00    +0.000 A 
ATOM     26  N   UNL     1      43.250   4.154  12.336  0.00  0.00    +0.000 NA
ATOM     27  C   UNL     1      42.654   5.208  11.872  0.00  0.00    +0.000 A 
ATOM     28  N   UNL     1      43.226   6.460  11.761  0.00  0.00    +0.000 N 
ATOM     29  C   UNL     1      44.516   6.742  12.167  0.00  0.00    +0.000 A 
ATOM     30  O   UNL     1      44.993   7.870  12.118  0.00  0.00    +0.000 OA
ATOM     31  C   UNL     1      45.219   5.586  12.669  0.00  0.00    +0.000 A 
ATOM     32  H   UNL     1      45.104   2.467  13.338  0.00  0.00    +0.000 HD
ATOM     33  H   UNL     1      42.697   7.238  11.399  0.00  0.00    +0.000 HD
ENDBRANCH  19  22
ENDBRANCH   1  18
TORSDOF 7
ENDMDL
MODEL 5
REMARK VINA RESULT:    -7.581      5.327      7.227
REMARK INTER + INTRA:         -11.811
REMARK INTER:                 -10.872
REMARK INTRA:                  -0.938
REMARK UNBOUND:                -1.128
REMARK  Name = 
REMARK  7 active torsions:
REMARK  status: ('A' for Active; 'I' for Inactive)
REMARK    1  A    between atoms: C_2  and  C_3
REMARK    2  A    between atoms: C_2  and  C_25
REMARK    3  A    between atoms: C_3  and  C_4
REMARK    4  A    between atoms: C_4  and  C_5
REMARK    5  A    between atoms: C_8  and  C_9
REMARK    6  A    between atoms: C_9  and  N_10
REMARK    7  A    between atoms: C_11  and  C_13
REMARK                            x       y       z     vdW  Elec       q    Type
REMARK                         _______ _______ _______ _____ _____    ______ ____
ROOT
ATOM      1  C   UNL     1      43.310   5.310  11.080  0.00  0.00    +0.000 C 
ENDROOT
BRANCH   1   5
ATOM      2  C   UNL     1      45.625   2.729   8.483  0.00  0.00    +0.000 A 
ATOM      3  C   UNL     1      44.815   2.186   9.492  0.00  0.00    +0.000 A 
ATOM      4  C   UNL     1      44.070   3.017  10.335  0.00  0.00    +0.000 A 
ATOM      5  C   UNL     1      44.124   4.408  10.192  0.00  0.00    +0.000 A 
ATOM      6  C   UNL     1      44.967   4.952   9.213  0.00  0.00    +0.000 A 
ATOM      7  C   UNL     1      45.704   4.121   8.364  0.00  0.00    +0.000 A 
BRANCH   2   8
ATOM      8  C   UNL     1      46.404   1.832   7.549  0.00  0.00    +0.000 C 
BRANCH   8   9
ATOM      9  C   UNL     1      46.655   2.502   6.197  0.00  0.00    +0.000 C 
BRANCH   9  11
ATOM     10  O   UNL     1      48.715   1.573   5.358  0.00  0.00    +0.000 OA
ATOM     11  C   UNL     1      47.492   1.646   5.267  0.00  0.00    +0.000 C 
BRANCH  11  12
ATOM     12  C   UNL     1      46.792   0.860   4.214  0.00  0.00    +0.000 A 
ATOM     13  C   UNL     1      46.008   1.514   3.263  0.00  0.00    +0.000 A 
ATOM     14  C   UNL     1      45.379   0.776   2.260  0.00  0.00    +0.000 A 
ATOM     15  C   UNL     1      45.556  -0.600   2.247  0.00  0.00    +0.000 A 
ATOM     16  N   UNL     1      46.298  -1.269   3.157  0.00  0.00    +0.000 NA
ATOM     17  C   UNL     1      46.897  -0.522   4.120  0.00  0.00    +0.000 A 
ENDBRANCH  11  12
ENDBRANCH   9  11
ENDBRANCH   8   9
ENDBRANCH   2   8
ENDBRANCH   1   5
BRANCH   1  18
ATOM     18  N   UNL     1      43.888   6.625  11.188  0.00  0.00    +0.000 N 
ATOM     19  C   UNL     1      44.718   6.939  12.237  0.00  0.00    +0.000 C 
ATOM     20  O   UNL     1      45.009   6.126  13.111  0.00  0.00    +0.000 OA
ATOM     21  H   UNL     1      43.524   7.360  10.590  0.00  0.00    +0.000 HD
BRANCH  19  22
ATOM     22  C   UNL     1      45.282   8.286  12.221  0.00  0.00    +0.000 A 
ATOM     23  C   UNL     1      46.495   8.612  12.821  0.00  0.00    +0.000 A 
ATOM     24  N   UNL     1      46.770   9.936  12.596  0.00  0.00    +0.000 N 
ATOM     25  C   UNL     1      45.737  10.489  11.898  0.00  0.00    +0.000 A 
ATOM     26  N   UNL     1      45.689  11.793  11.544  0.00  0.00    +0.000 NA
ATOM     27  C   UNL     1      44.598  12.104  10.915  0.00  0.00    +0.000 A 
ATOM     28  N   UNL     1      43.577  11.225  10.613  0.00  0.00    +0.000 N 
ATOM     29  C   UNL     1      43.617   9.882  10.930  0.00  0.00    +0.000 A 
ATOM     30  O   UNL     1      42.731   9.099  10.606  0.00  0.00    +0.000 OA
ATOM     31  C   UNL     1      44.807   9.502  11.652  0.00  0.00    +0.000 A 
ATOM     32  H   UNL     1      47.594  10.440  12.895  0.00  0.00    +0.000 HD
ATOM     33  H   UNL     1      42.761  11.537  10.111  0.00  0.00    +0.000 HD
ENDBRANCH  19  22
ENDBRANCH   1  18
TORSDOF 7
ENDMDL
MODEL 6
REMARK VINA RESULT:    -7.450      3.292      8.613
REMARK INTER + INTRA:         -11.626
REMARK INTER:                  -9.741
REMARK INTRA:                  -1.885
REMARK UNBOUND:                -1.128
REMARK  Name = 
REMARK  7 active torsions:
REMARK  status: ('A' for Active; 'I' for Inactive)
REMARK    1  A    between atoms: C_2  and  C_3
REMARK    2  A    between atoms: C_2  and  C_25
REMARK    3  A    between atoms: C_3  and  C_4
REMARK    4  A    between atoms: C_4  and  C_5
REMARK    5  A    between atoms: C_8  and  C_9
REMARK    6  A    between atoms: C_9  and  N_10
REMARK    7  A    between atoms: C_11  and  C_13
REMARK                            x       y       z     vdW  Elec       q    Type
REMARK                         _______ _______ _______ _____ _____    ______ ____
ROOT
ATOM      1  C   UNL     1      48.113   8.236  12.608  0.00  0.00    +0.000 C 
ENDROOT
BRANCH   1   5
ATOM      2  C   UNL     1      49.194   7.817  16.781  0.00  0.00    +0.000 A 
ATOM      3  C   UNL     1      49.373   6.752  15.887  0.00  0.00    +0.000 A 
ATOM      4  C   UNL     1      49.021   6.882  14.540  0.00  0.00    +0.000 A 
ATOM      5  C   UNL     1      48.476   8.078  14.060  0.00  0.00    +0.000 A 
ATOM      6  C   UNL     1      48.255   9.127  14.963  0.00  0.00    +0.000 A 
ATOM      7  C   UNL     1      48.617   9.000  16.307  0.00  0.00    +0.000 A 
BRANCH   2   8
ATOM      8  C   UNL     1      49.606   7.689  18.230  0.00  0.00    +0.000 C 
BRANCH   8   9
ATOM      9  C   UNL     1      48.423   7.318  19.126  0.00  0.00    +0.000 C 
BRANCH   9  11
ATOM     10  O   UNL     1      48.654   5.580  20.781  0.00  0.00    +0.000 OA
ATOM     11  C   UNL     1      48.479   5.880  19.602  0.00  0.00    +0.000 C 
BRANCH  11  12
ATOM     12  C   UNL     1      48.301   4.799  18.594  0.00  0.00    +0.000 A 
ATOM     13  C   UNL     1      49.355   3.927  18.316  0.00  0.00    +0.000 A 
ATOM     14  C   UNL     1      49.173   2.896  17.393  0.00  0.00    +0.000 A 
ATOM     15  C   UNL     1      47.937   2.776  16.777  0.00  0.00    +0.000 A 
ATOM     16  N   UNL     1      46.898   3.607  17.012  0.00  0.00    +0.000 NA
ATOM     17  C   UNL     1      47.106   4.601  17.915  0.00  0.00    +0.000 A 
ENDBRANCH  11  12
ENDBRANCH   9  11
ENDBRANCH   8   9
ENDBRANCH   2   8
ENDBRANCH   1   5
BRANCH   1  18
ATOM     18  N   UNL     1      47.048   7.348  12.218  0.00  0.00    +0.000 N 
ATOM     19  C   UNL     1      45.737   7.676  12.470  0.00  0.00    +0.000 C 
ATOM     20  O   UNL     1      45.417   8.725  13.021  0.00  0.00    +0.000 OA
ATOM     21  H   UNL     1      47.290   6.405  11.931  0.00  0.00    +0.000 HD
BRANCH  19  22
ATOM     22  C   UNL     1      44.740   6.723  11.991  0.00  0.00    +0.000 A 
ATOM     23  C   UNL     1      43.629   7.095  11.239  0.00  0.00    +0.000 A 
ATOM     24  N   UNL     1      42.911   5.975  10.907  0.00  0.00    +0.000 N 
ATOM     25  C   UNL     1      43.509   4.885  11.467  0.00  0.00    +0.000 A 
ATOM     26  N   UNL     1      43.027   3.627  11.352  0.00  0.00    +0.000 NA
ATOM     27  C   UNL     1      43.740   2.753  11.992  0.00  0.00    +0.000 A 
ATOM     28  N   UNL     1      44.880   3.037  12.718  0.00  0.00    +0.000 N 
ATOM     29  C   UNL     1      45.415   4.306  12.822  0.00  0.00    +0.000 A 
ATOM     30  O   UNL     1      46.460   4.537  13.420  0.00  0.00    +0.000 OA
ATOM     31  C   UNL     1      44.635   5.310  12.139  0.00  0.00    +0.000 A 
ATOM     32  H   UNL     1      42.071   5.942  10.346  0.00  0.00    +0.000 HD
ATOM     33  H   UNL     1      45.390   2.303  13.183  0.00  0.00    +0.000 HD
ENDBRANCH  19  22
ENDBRANCH   1  18
TORSDOF 7
ENDMDL
MODEL 7
REMARK VINA RESULT:    -7.375      2.901      4.531
REMARK INTER + INTRA:         -11.521
REMARK INTER:                 -10.301
REMARK INTRA:                  -1.220
REMARK UNBOUND:                -1.128
REMARK  Name = 
REMARK  7 active torsions:
REMARK  status: ('A' for Active; 'I' for Inactive)
REMARK    1  A    between atoms: C_2  and  C_3
REMARK    2  A    between atoms: C_2  and  C_25
REMARK    3  A    between atoms: C_3  and  C_4
REMARK    4  A    between atoms: C_4  and  C_5
REMARK    5  A    between atoms: C_8  and  C_9
REMARK    6  A    between atoms: C_9  and  N_10
REMARK    7  A    between atoms: C_11  and  C_13
REMARK                            x       y       z     vdW  Elec       q    Type
REMARK                         _______ _______ _______ _____ _____    ______ ____
ROOT
ATOM      1  C   UNL     1      47.339   4.998  14.816  0.00  0.00    +0.000 C 
ENDROOT
BRANCH   1   5
ATOM      2  C   UNL     1      44.755   4.700  11.353  0.00  0.00    +0.000 A 
ATOM      3  C   UNL     1      45.143   5.953  11.848  0.00  0.00    +0.000 A 
ATOM      4  C   UNL     1      45.973   6.053  12.968  0.00  0.00    +0.000 A 
ATOM      5  C   UNL     1      46.428   4.902  13.622  0.00  0.00    +0.000 A 
ATOM      6  C   UNL     1      46.004   3.651  13.154  0.00  0.00    +0.000 A 
ATOM      7  C   UNL     1      45.182   3.551  12.027  0.00  0.00    +0.000 A 
BRANCH   2   8
ATOM      8  C   UNL     1      43.886   4.589  10.121  0.00  0.00    +0.000 C 
BRANCH   8   9
ATOM      9  C   UNL     1      44.391   3.506   9.165  0.00  0.00    +0.000 C 
BRANCH   9  11
ATOM     10  O   UNL     1      45.950   5.137   8.314  0.00  0.00    +0.000 OA
ATOM     11  C   UNL     1      45.561   3.971   8.321  0.00  0.00    +0.000 C 
BRANCH  11  12
ATOM     12  C   UNL     1      46.267   2.963   7.483  0.00  0.00    +0.000 A 
ATOM     13  C   UNL     1      46.482   1.675   7.976  0.00  0.00    +0.000 A 
ATOM     14  C   UNL     1      47.116   0.726   7.174  0.00  0.00    +0.000 A 
ATOM     15  C   UNL     1      47.516   1.103   5.900  0.00  0.00    +0.000 A 
ATOM     16  N   UNL     1      47.335   2.342   5.393  0.00  0.00    +0.000 NA
ATOM     17  C   UNL     1      46.716   3.244   6.198  0.00  0.00    +0.000 A 
ENDBRANCH  11  12
ENDBRANCH   9  11
ENDBRANCH   8   9
ENDBRANCH   2   8
ENDBRANCH   1   5
BRANCH   1  18
ATOM     18  N   UNL     1      47.886   6.321  14.972  0.00  0.00    +0.000 N 
ATOM     19  C   UNL     1      48.985   6.533  15.769  0.00  0.00    +0.000 C 
ATOM     20  O   UNL     1      49.548   5.621  16.369  0.00  0.00    +0.000 OA
ATOM     21  H   UNL     1      47.338   7.109  14.640  0.00  0.00    +0.000 HD
BRANCH  19  22
ATOM     22  C   UNL     1      49.480   7.906  15.817  0.00  0.00    +0.000 A 
ATOM     23  C   UNL     1      49.702   8.596  17.006  0.00  0.00    +0.000 A 
ATOM     24  N   UNL     1      50.205   9.839  16.720  0.00  0.00    +0.000 N 
ATOM     25  C   UNL     1      50.274   9.988  15.367  0.00  0.00    +0.000 A 
ATOM     26  N   UNL     1      50.702  11.118  14.760  0.00  0.00    +0.000 NA
ATOM     27  C   UNL     1      50.652  11.045  13.466  0.00  0.00    +0.000 A 
ATOM     28  N   UNL     1      50.222   9.946  12.748  0.00  0.00    +0.000 N 
ATOM     29  C   UNL     1      49.816   8.767  13.341  0.00  0.00    +0.000 A 
ATOM     30  O   UNL     1      49.492   7.779  12.693  0.00  0.00    +0.000 OA
ATOM     31  C   UNL     1      49.837   8.819  14.783  0.00  0.00    +0.000 A 
ATOM     32  H   UNL     1      50.480  10.546  17.389  0.00  0.00    +0.000 HD
ATOM     33  H   UNL     1      50.221   9.958  11.741  0.00  0.00    +0.000 HD
ENDBRANCH  19  22
ENDBRANCH   1  18
TORSDOF 7
ENDMDL
MODEL 8
REMARK VINA RESULT:    -7.364      2.182      3.112
REMARK INTER + INTRA:         -11.506
REMARK INTER:                 -10.528
REMARK INTRA:                  -0.978
REMARK UNBOUND:                -1.128
REMARK  Name = 
REMARK  7 active torsions:
REMARK  status: ('A' for Active; 'I' for Inactive)
REMARK    1  A    between atoms: C_2  and  C_3
REMARK    2  A    between atoms: C_2  and  C_25
REMARK    3  A    between atoms: C_3  and  C_4
REMARK    4  A    between atoms: C_4  and  C_5
REMARK    5  A    between atoms: C_8  and  C_9
REMARK    6  A    between atoms: C_9  and  N_10
REMARK    7  A    between atoms: C_11  and  C_13
REMARK                            x       y       z     vdW  Elec       q    Type
REMARK                         _______ _______ _______ _____ _____    ______ ____
ROOT
ATOM      1  C   UNL     1      47.546   4.783  14.696  0.00  0.00    +0.000 C 
ENDROOT
BRANCH   1   5
ATOM      2  C   UNL     1      44.806   4.700  11.342  0.00  0.00    +0.000 A 
ATOM      3  C   UNL     1      45.353   5.913  11.787  0.00  0.00    +0.000 A 
ATOM      4  C   UNL     1      46.235   5.944  12.872  0.00  0.00    +0.000 A 
ATOM      5  C   UNL     1      46.583   4.763  13.540  0.00  0.00    +0.000 A 
ATOM      6  C   UNL     1      46.001   3.558  13.123  0.00  0.00    +0.000 A 
ATOM      7  C   UNL     1      45.128   3.526  12.032  0.00  0.00    +0.000 A 
BRANCH   2   8
ATOM      8  C   UNL     1      43.881   4.661  10.147  0.00  0.00    +0.000 C 
BRANCH   8   9
ATOM      9  C   UNL     1      44.302   3.590   9.139  0.00  0.00    +0.000 C 
BRANCH   9  11
ATOM     10  O   UNL     1      45.937   5.152   8.303  0.00  0.00    +0.000 OA
ATOM     11  C   UNL     1      45.511   3.999   8.322  0.00  0.00    +0.000 C 
BRANCH  11  12
ATOM     12  C   UNL     1      46.209   2.952   7.526  0.00  0.00    +0.000 A 
ATOM     13  C   UNL     1      46.386   1.674   8.061  0.00  0.00    +0.000 A 
ATOM     14  C   UNL     1      47.012   0.688   7.299  0.00  0.00    +0.000 A 
ATOM     15  C   UNL     1      47.445   1.018   6.023  0.00  0.00    +0.000 A 
ATOM     16  N   UNL     1      47.301   2.245   5.477  0.00  0.00    +0.000 NA
ATOM     17  C   UNL     1      46.688   3.184   6.243  0.00  0.00    +0.000 A 
ENDBRANCH  11  12
ENDBRANCH   9  11
ENDBRANCH   8   9
ENDBRANCH   2   8
ENDBRANCH   1   5
BRANCH   1  18
ATOM     18  N   UNL     1      47.699   6.104  15.249  0.00  0.00    +0.000 N 
ATOM     19  C   UNL     1      48.738   6.388  16.102  0.00  0.00    +0.000 C 
ATOM     20  O   UNL     1      49.575   5.548  16.421  0.00  0.00    +0.000 OA
ATOM     21  H   UNL     1      46.929   6.758  15.149  0.00  0.00    +0.000 HD
BRANCH  19  22
ATOM     22  C   UNL     1      48.821   7.771  16.565  0.00  0.00    +0.000 A 
ATOM     23  C   UNL     1      49.455   8.780  15.845  0.00  0.00    +0.000 A 
ATOM     24  N   UNL     1      49.325   9.967  16.519  0.00  0.00    +0.000 N 
ATOM     25  C   UNL     1      48.656   9.742  17.685  0.00  0.00    +0.000 A 
ATOM     26  N   UNL     1      48.392  10.709  18.593  0.00  0.00    +0.000 NA
ATOM     27  C   UNL     1      47.774  10.260  19.641  0.00  0.00    +0.000 A 
ATOM     28  N   UNL     1      47.401   8.945  19.842  0.00  0.00    +0.000 N 
ATOM     29  C   UNL     1      47.625   7.946  18.916  0.00  0.00    +0.000 A 
ATOM     30  O   UNL     1      47.238   6.794  19.079  0.00  0.00    +0.000 OA
ATOM     31  C   UNL     1      48.332   8.404  17.744  0.00  0.00    +0.000 A 
ATOM     32  H   UNL     1      49.667  10.870  16.219  0.00  0.00    +0.000 HD
ATOM     33  H   UNL     1      46.913   8.671  20.679  0.00  0.00    +0.000 HD
ENDBRANCH  19  22
ENDBRANCH   1  18
TORSDOF 7
ENDMDL
MODEL 9
REMARK VINA RESULT:    -7.119      3.969      7.056
REMARK INTER + INTRA:         -11.160
REMARK INTER:                 -10.349
REMARK INTRA:                  -0.811
REMARK UNBOUND:                -1.128
REMARK  Name = 
REMARK  7 active torsions:
REMARK  status: ('A' for Active; 'I' for Inactive)
REMARK    1  A    between atoms: C_2  and  C_3
REMARK    2  A    between atoms: C_2  and  C_25
REMARK    3  A    between atoms: C_3  and  C_4
REMARK    4  A    between atoms: C_4  and  C_5
REMARK    5  A    between atoms: C_8  and  C_9
REMARK    6  A    between atoms: C_9  and  N_10
REMARK    7  A    between atoms: C_11  and  C_13
REMARK                            x       y       z     vdW  Elec       q    Type
REMARK                         _______ _______ _______ _____ _____    ______ ____
ROOT
ATOM      1  C   UNL     1      44.621   2.922  10.009  0.00  0.00    +0.000 C 
ENDROOT
BRANCH   1   5
ATOM      2  C   UNL     1      46.819   2.265   6.335  0.00  0.00    +0.000 A 
ATOM      3  C   UNL     1      46.215   3.504   6.594  0.00  0.00    +0.000 A 
ATOM      4  C   UNL     1      45.501   3.718   7.777  0.00  0.00    +0.000 A 
ATOM      5  C   UNL     1      45.370   2.695   8.723  0.00  0.00    +0.000 A 
ATOM      6  C   UNL     1      45.935   1.444   8.445  0.00  0.00    +0.000 A 
ATOM      7  C   UNL     1      46.658   1.233   7.267  0.00  0.00    +0.000 A 
BRANCH   2   8
ATOM      8  C   UNL     1      47.621   2.042   5.073  0.00  0.00    +0.000 C 
BRANCH   8   9
ATOM      9  C   UNL     1      47.601   0.575   4.640  0.00  0.00    +0.000 C 
BRANCH   9  11
ATOM     10  O   UNL     1      46.054   1.228   2.910  0.00  0.00    +0.000 OA
ATOM     11  C   UNL     1      46.686   0.328   3.456  0.00  0.00    +0.000 C 
BRANCH  11  12
ATOM     12  C   UNL     1      46.567  -1.063   2.939  0.00  0.00    +0.000 A 
ATOM     13  C   UNL     1      47.688  -1.895   2.915  0.00  0.00    +0.000 A 
ATOM     14  C   UNL     1      47.565  -3.207   2.458  0.00  0.00    +0.000 A 
ATOM     15  C   UNL     1      46.317  -3.642   2.036  0.00  0.00    +0.000 A 
ATOM     16  N   UNL     1      45.213  -2.864   2.035  0.00  0.00    +0.000 NA
ATOM     17  C   UNL     1      45.365  -1.591   2.485  0.00  0.00    +0.000 A 
ENDBRANCH  11  12
ENDBRANCH   9  11
ENDBRANCH   8   9
ENDBRANCH   2   8
ENDBRANCH   1   5
BRANCH   1  18
ATOM     18  N   UNL     1      44.749   4.278  10.476  0.00  0.00    +0.000 N 
ATOM     19  C   UNL     1      45.151   4.538  11.764  0.00  0.00    +0.000 C 
ATOM     20  O   UNL     1      45.425   3.645  12.560  0.00  0.00    +0.000 OA
ATOM     21  H   UNL     1      44.358   5.021   9.905  0.00  0.00    +0.000 HD
BRANCH  19  22
ATOM     22  C   UNL     1      45.291   5.950  12.114  0.00  0.00    +0.000 A 
ATOM     23  C   UNL     1      44.399   6.932  11.692  0.00  0.00    +0.000 A 
ATOM     24  N   UNL     1      44.775   8.141  12.218  0.00  0.00    +0.000 N 
ATOM     25  C   UNL     1      45.920   7.972  12.939  0.00  0.00    +0.000 A 
ATOM     26  N   UNL     1      46.566   8.983  13.563  0.00  0.00    +0.000 NA
ATOM     27  C   UNL     1      47.650   8.595  14.161  0.00  0.00    +0.000 A 
ATOM     28  N   UNL     1      48.122   7.298  14.187  0.00  0.00    +0.000 N 
ATOM     29  C   UNL     1      47.464   6.241  13.591  0.00  0.00    +0.000 A 
ATOM     30  O   UNL     1      47.861   5.084  13.670  0.00  0.00    +0.000 OA
ATOM     31  C   UNL     1      46.263   6.638  12.896  0.00  0.00    +0.000 A 
ATOM     32  H   UNL     1      44.299   9.024  12.098  0.00  0.00    +0.000 HD
ATOM     33  H   UNL     1      48.969   7.068  14.682  0.00  0.00    +0.000 HD
ENDBRANCH  19  22
ENDBRANCH   1  18
TORSDOF 7
ENDMDL
