MODEL 1
REMARK VINA RESULT:    -8.797      0.000      0.000
REMARK INTER + INTRA:         -13.844
REMARK INTER:                 -12.397
REMARK INTRA:                  -1.447
REMARK UNBOUND:                -1.447
REMARK  Name = 
REMARK  8 active torsions:
REMARK  status: ('A' for Active; 'I' for Inactive)
REMARK    1  A    between atoms: C_1  and  C_2
REMARK    2  A    between atoms: C_2  and  N_3
REMARK    3  A    between atoms: C_2  and  C_18
REMARK    4  A    between atoms: N_3  and  C_4
REMARK    5  A    between atoms: C_7  and  N_8
REMARK    6  A    between atoms: N_8  and  C_9
REMARK    7  A    between atoms: C_9  and  C_10
REMARK    8  A    between atoms: C_18  and  C_20
REMARK                            x       y       z     vdW  Elec       q    Type
REMARK                         _______ _______ _______ _____ _____    ______ ____
ROOT
ATOM      1  N   UNL     1      45.646   6.066  13.442  0.00  0.00    +0.000 N 
ATOM      2  H   UNL     1      45.052   6.616  14.065  0.00  0.00    +0.000 HD
ENDROOT
BRANCH   1   3
ATOM      3  C   UNL     1      44.856   5.261  12.631  0.00  0.00    +0.000 C 
ATOM      4  C   UNL     1      44.153   4.235  13.140  0.00  0.00    +0.000 C 
ATOM      5  C   UNL     1      43.381   3.247  12.313  0.00  0.00    +0.000 C 
ATOM      6  C   UNL     1      43.706   3.316  10.800  0.00  0.00    +0.000 C 
ATOM      7  C   UNL     1      43.731   4.802  10.395  0.00  0.00    +0.000 C 
ATOM      8  C   UNL     1      44.809   5.589  11.152  0.00  0.00    +0.000 C 
BRANCH   6   9
ATOM      9  N   UNL     1      44.974   2.672  10.401  0.00  0.00    +0.000 NA
ATOM     10  H   UNL     1      45.358   2.142  11.185  0.00  0.00    +0.000 HD
BRANCH   9  11
ATOM     11  C   UNL     1      44.826   1.771   9.263  0.00  0.00    +0.000 C 
BRANCH  11  12
ATOM     12  C   UNL     1      45.835   2.053   8.170  0.00  0.00    +0.000 A 
ATOM     13  C   UNL     1      46.707   1.047   7.736  0.00  0.00    +0.000 A 
ATOM     14  C   UNL     1      47.588   1.278   6.676  0.00  0.00    +0.000 A 
ATOM     15  C   UNL     1      47.609   2.518   6.045  0.00  0.00    +0.000 A 
ATOM     16  C   UNL     1      46.756   3.537   6.482  0.00  0.00    +0.000 A 
ATOM     17  C   UNL     1      45.874   3.303   7.539  0.00  0.00    +0.000 A 
ENDBRANCH  11  12
ENDBRANCH   9  11
ENDBRANCH   6   9
ENDBRANCH   1   3
BRANCH   1  19
ATOM     18  C   UNL     1      46.530   8.426  13.193  0.00  0.00    +0.000 C 
ATOM     19  C   UNL     1      46.725   6.940  12.882  0.00  0.00    +0.000 C 
BRANCH  19  20
ATOM     20  C   UNL     1      48.131   6.488  13.352  0.00  0.00    +0.000 C 
ATOM     21  O   UNL     1      49.054   6.377  12.538  0.00  0.00    +0.000 OA
BRANCH  20  22
ATOM     22  C   UNL     1      48.440   6.339  14.789  0.00  0.00    +0.000 A 
ATOM     23  C   UNL     1      49.226   7.294  15.422  0.00  0.00    +0.000 A 
ATOM     24  S   UNL     1      49.355   7.064  17.107  0.00  0.00    +0.000 S 
ATOM     25  C   UNL     1      48.404   5.656  17.037  0.00  0.00    +0.000 A 
ATOM     26  N   UNL     1      48.058   4.985  18.168  0.00  0.00    +0.000 NA
ATOM     27  C   UNL     1      47.328   3.940  17.962  0.00  0.00    +0.000 A 
ATOM     28  N   UNL     1      46.957   3.476  16.726  0.00  0.00    +0.000 N 
ATOM     29  C   UNL     1      47.437   4.027  15.561  0.00  0.00    +0.000 A 
ATOM     30  O   UNL     1      47.387   3.423  14.499  0.00  0.00    +0.000 OA
ATOM     31  C   UNL     1      48.077   5.317  15.736  0.00  0.00    +0.000 A 
ATOM     32  H   UNL     1      46.487   2.587  16.635  0.00  0.00    +0.000 HD
ENDBRANCH  20  22
ENDBRANCH  19  20
ENDBRANCH   1  19
TORSDOF 7
ENDMDL
MODEL 2
REMARK VINA RESULT:    -7.852      1.692      2.097
REMARK INTER + INTRA:         -12.512
REMARK INTER:                 -10.933
REMARK INTRA:                  -1.579
REMARK UNBOUND:                -1.447
REMARK  Name = 
REMARK  8 active torsions:
REMARK  status: ('A' for Active; 'I' for Inactive)
REMARK    1  A    between atoms: C_1  and  C_2
REMARK    2  A    between atoms: C_2  and  N_3
REMARK    3  A    between atoms: C_2  and  C_18
REMARK    4  A    between atoms: N_3  and  C_4
REMARK    5  A    between atoms: C_7  and  N_8
REMARK    6  A    between atoms: N_8  and  C_9
REMARK    7  A    between atoms: C_9  and  C_10
REMARK    8  A    between atoms: C_18  and  C_20
REMARK                            x       y       z     vdW  Elec       q    Type
REMARK                         _______ _______ _______ _____ _____    ______ ____
ROOT
ATOM      1  N   UNL     1      46.520   6.246  12.831  0.00  0.00    +0.000 N 
ATOM      2  H   UNL     1      46.502   6.279  13.852  0.00  0.00    +0.000 HD
ENDROOT
BRANCH   1   3
ATOM      3  C   UNL     1      45.464   5.471  12.369  0.00  0.00    +0.000 C 
ATOM      4  C   UNL     1      44.773   4.668  13.196  0.00  0.00    +0.000 C 
ATOM      5  C   UNL     1      43.708   3.710  12.749  0.00  0.00    +0.000 C 
ATOM      6  C   UNL     1      43.674   3.490  11.216  0.00  0.00    +0.000 C 
ATOM      7  C   UNL     1      43.796   4.870  10.544  0.00  0.00    +0.000 C 
ATOM      8  C   UNL     1      45.114   5.571  10.898  0.00  0.00    +0.000 C 
BRANCH   6   9
ATOM      9  N   UNL     1      44.718   2.588  10.690  0.00  0.00    +0.000 NA
ATOM     10  H   UNL     1      44.845   1.795  11.321  0.00  0.00    +0.000 HD
BRANCH   9  11
ATOM     11  C   UNL     1      44.414   2.074   9.358  0.00  0.00    +0.000 C 
BRANCH  11  12
ATOM     12  C   UNL     1      45.572   2.242   8.398  0.00  0.00    +0.000 A 
ATOM     13  C   UNL     1      46.379   1.147   8.064  0.00  0.00    +0.000 A 
ATOM     14  C   UNL     1      47.401   1.278   7.119  0.00  0.00    +0.000 A 
ATOM     15  C   UNL     1      47.629   2.506   6.506  0.00  0.00    +0.000 A 
ATOM     16  C   UNL     1      46.843   3.613   6.846  0.00  0.00    +0.000 A 
ATOM     17  C   UNL     1      45.820   3.478   7.786  0.00  0.00    +0.000 A 
ENDBRANCH  11  12
ENDBRANCH   9  11
ENDBRANCH   6   9
ENDBRANCH   1   3
BRANCH   1  19
ATOM     18  C   UNL     1      45.912   8.703  12.913  0.00  0.00    +0.000 C 
ATOM     19  C   UNL     1      46.794   7.616  12.293  0.00  0.00    +0.000 C 
BRANCH  19  20
ATOM     20  C   UNL     1      48.287   8.005  12.444  0.00  0.00    +0.000 C 
ATOM     21  O   UNL     1      49.045   7.955  11.471  0.00  0.00    +0.000 OA
BRANCH  20  22
ATOM     22  C   UNL     1      48.795   8.592  13.701  0.00  0.00    +0.000 A 
ATOM     23  C   UNL     1      49.343   9.869  13.687  0.00  0.00    +0.000 A 
ATOM     24  S   UNL     1      49.734  10.462  15.238  0.00  0.00    +0.000 S 
ATOM     25  C   UNL     1      49.226   9.014  15.972  0.00  0.00    +0.000 A 
ATOM     26  N   UNL     1      49.226   8.875  17.325  0.00  0.00    +0.000 NA
ATOM     27  C   UNL     1      48.807   7.726  17.740  0.00  0.00    +0.000 A 
ATOM     28  N   UNL     1      48.440   6.686  16.925  0.00  0.00    +0.000 N 
ATOM     29  C   UNL     1      48.598   6.733  15.560  0.00  0.00    +0.000 A 
ATOM     30  O   UNL     1      48.598   5.717  14.880  0.00  0.00    +0.000 OA
ATOM     31  C   UNL     1      48.857   8.062  15.039  0.00  0.00    +0.000 A 
ATOM     32  H   UNL     1      48.238   5.778  17.317  0.00  0.00    +0.000 HD
ENDBRANCH  20  22
ENDBRANCH  19  20
ENDBRANCH   1  19
TORSDOF 7
ENDMDL
MODEL 3
REMARK VINA RESULT:    -7.652      1.140      1.557
REMARK INTER + INTRA:         -12.230
REMARK INTER:                 -10.733
REMARK INTRA:                  -1.497
REMARK UNBOUND:                -1.447
REMARK  Name = 
REMARK  8 active torsions:
REMARK  status: ('A' for Active; 'I' for Inactive)
REMARK    1  A    between atoms: C_1  and  C_2
REMARK    2  A    between atoms: C_2  and  N_3
REMARK    3  A    between atoms: C_2  and  C_18
REMARK    4  A    between atoms: N_3  and  C_4
REMARK    5  A    between atoms: C_7  and  N_8
REMARK    6  A    between atoms: N_8  and  C_9
REMARK    7  A    between atoms: C_9  and  C_10
REMARK    8  A    between atoms: C_18  and  C_20
REMARK                            x       y       z     vdW  Elec       q    Type
REMARK                         _______ _______ _______ _____ _____    ______ ____
ROOT
ATOM      1  N   UNL     1      47.180   5.637  13.224  0.00  0.00    +0.000 N 
ATOM      2  H   UNL     1      47.163   5.405  14.218  0.00  0.00    +0.000 HD
ENDROOT
BRANCH   1   3
ATOM      3  C   UNL     1      46.015   5.186  12.617  0.00  0.00    +0.000 C 
ATOM      4  C   UNL     1      45.077   4.524  13.314  0.00  0.00    +0.000 C 
ATOM      5  C   UNL     1      43.856   3.897  12.705  0.00  0.00    +0.000 C 
ATOM      6  C   UNL     1      43.912   3.804  11.160  0.00  0.00    +0.000 C 
ATOM      7  C   UNL     1      44.427   5.155  10.629  0.00  0.00    +0.000 C 
ATOM      8  C   UNL     1      45.837   5.477  11.141  0.00  0.00    +0.000 C 
BRANCH   6   9
ATOM      9  N   UNL     1      44.749   2.711  10.628  0.00  0.00    +0.000 NA
ATOM     10  H   UNL     1      44.700   1.901  11.247  0.00  0.00    +0.000 HD
BRANCH   9  11
ATOM     11  C   UNL     1      44.359   2.290   9.286  0.00  0.00    +0.000 C 
BRANCH  11  12
ATOM     12  C   UNL     1      45.514   2.336   8.309  0.00  0.00    +0.000 A 
ATOM     13  C   UNL     1      45.858   3.536   7.675  0.00  0.00    +0.000 A 
ATOM     14  C   UNL     1      46.971   3.602   6.831  0.00  0.00    +0.000 A 
ATOM     15  C   UNL     1      47.744   2.467   6.609  0.00  0.00    +0.000 A 
ATOM     16  C   UNL     1      47.400   1.257   7.220  0.00  0.00    +0.000 A 
ATOM     17  C   UNL     1      46.291   1.195   8.066  0.00  0.00    +0.000 A 
ENDBRANCH  11  12
ENDBRANCH   9  11
ENDBRANCH   6   9
ENDBRANCH   1   3
BRANCH   1  19
ATOM     18  C   UNL     1      46.660   8.103  13.471  0.00  0.00    +0.000 C 
ATOM     19  C   UNL     1      47.675   7.039  13.047  0.00  0.00    +0.000 C 
BRANCH  19  20
ATOM     20  C   UNL     1      49.016   7.272  13.789  0.00  0.00    +0.000 C 
ATOM     21  O   UNL     1      50.069   7.382  13.153  0.00  0.00    +0.000 OA
BRANCH  20  22
ATOM     22  C   UNL     1      49.044   7.527  15.244  0.00  0.00    +0.000 A 
ATOM     23  C   UNL     1      49.617   8.700  15.722  0.00  0.00    +0.000 A 
ATOM     24  S   UNL     1      49.426   8.918  17.403  0.00  0.00    +0.000 S 
ATOM     25  C   UNL     1      48.615   7.431  17.552  0.00  0.00    +0.000 A 
ATOM     26  N   UNL     1      48.103   7.026  18.746  0.00  0.00    +0.000 NA
ATOM     27  C   UNL     1      47.508   5.881  18.707  0.00  0.00    +0.000 A 
ATOM     28  N   UNL     1      47.424   5.080  17.597  0.00  0.00    +0.000 N 
ATOM     29  C   UNL     1      48.083   5.377  16.427  0.00  0.00    +0.000 A 
ATOM     30  O   UNL     1      48.290   4.525  15.575  0.00  0.00    +0.000 OA
ATOM     31  C   UNL     1      48.578   6.738  16.355  0.00  0.00    +0.000 A 
ATOM     32  H   UNL     1      47.049   4.146  17.670  0.00  0.00    +0.000 HD
ENDBRANCH  20  22
ENDBRANCH  19  20
ENDBRANCH   1  19
TORSDOF 7
ENDMDL
MODEL 4
REMARK VINA RESULT:    -7.510      3.106      5.182
REMARK INTER + INTRA:         -12.030
REMARK INTER:                 -10.673
REMARK INTRA:                  -1.357
REMARK UNBOUND:                -1.447
REMARK  Name = 
REMARK  8 active torsions:
REMARK  status: ('A' for Active; 'I' for Inactive)
REMARK    1  A    between atoms: C_1  and  C_2
REMARK    2  A    between atoms: C_2  and  N_3
REMARK    3  A    between atoms: C_2  and  C_18
REMARK    4  A    between atoms: N_3  and  C_4
REMARK    5  A    between atoms: C_7  and  N_8
REMARK    6  A    between atoms: N_8  and  C_9
REMARK    7  A    between atoms: C_9  and  C_10
REMARK    8  A    between atoms: C_18  and  C_20
REMARK                            x       y       z     vdW  Elec       q    Type
REMARK                         _______ _______ _______ _____ _____    ______ ____
ROOT
ATOM      1  N   UNL     1      47.222   6.653  11.823  0.00  0.00    +0.000 N 
ATOM      2  H   UNL     1      47.934   6.283  11.191  0.00  0.00    +0.000 HD
ENDROOT
BRANCH   1   3
ATOM      3  C   UNL     1      46.110   5.822  11.817  0.00  0.00    +0.000 C 
ATOM      4  C   UNL     1      45.765   5.111  12.903  0.00  0.00    +0.000 C 
ATOM      5  C   UNL     1      44.656   4.099  12.934  0.00  0.00    +0.000 C 
ATOM      6  C   UNL     1      44.133   3.709  11.529  0.00  0.00    +0.000 C 
ATOM      7  C   UNL     1      43.966   5.007  10.717  0.00  0.00    +0.000 C 
ATOM      8  C   UNL     1      45.294   5.754  10.542  0.00  0.00    +0.000 C 
BRANCH   6   9
ATOM      9  N   UNL     1      44.987   2.763  10.782  0.00  0.00    +0.000 NA
ATOM     10  H   UNL     1      45.124   1.911  11.328  0.00  0.00    +0.000 HD
BRANCH   9  11
ATOM     11  C   UNL     1      44.436   2.396   9.482  0.00  0.00    +0.000 C 
BRANCH  11  12
ATOM     12  C   UNL     1      45.481   2.410   8.388  0.00  0.00    +0.000 A 
ATOM     13  C   UNL     1      45.697   3.567   7.630  0.00  0.00    +0.000 A 
ATOM     14  C   UNL     1      46.713   3.611   6.671  0.00  0.00    +0.000 A 
ATOM     15  C   UNL     1      47.517   2.496   6.456  0.00  0.00    +0.000 A 
ATOM     16  C   UNL     1      47.298   1.326   7.193  0.00  0.00    +0.000 A 
ATOM     17  C   UNL     1      46.286   1.287   8.154  0.00  0.00    +0.000 A 
ENDBRANCH  11  12
ENDBRANCH   9  11
ENDBRANCH   6   9
ENDBRANCH   1   3
BRANCH   1  19
ATOM     18  C   UNL     1      49.400   7.142  13.021  0.00  0.00    +0.000 C 
ATOM     19  C   UNL     1      47.872   7.101  13.096  0.00  0.00    +0.000 C 
BRANCH  19  20
ATOM     20  C   UNL     1      47.335   8.479  13.561  0.00  0.00    +0.000 C 
ATOM     21  O   UNL     1      47.658   8.934  14.663  0.00  0.00    +0.000 OA
BRANCH  20  22
ATOM     22  C   UNL     1      46.564   9.343  12.642  0.00  0.00    +0.000 A 
ATOM     23  C   UNL     1      45.183   9.204  12.571  0.00  0.00    +0.000 A 
ATOM     24  S   UNL     1      44.429  10.377  11.590  0.00  0.00    +0.000 S 
ATOM     25  C   UNL     1      45.926  11.078  11.193  0.00  0.00    +0.000 A 
ATOM     26  N   UNL     1      45.996  12.198  10.424  0.00  0.00    +0.000 NA
ATOM     27  C   UNL     1      47.198  12.621  10.211  0.00  0.00    +0.000 A 
ATOM     28  N   UNL     1      48.336  11.997  10.653  0.00  0.00    +0.000 N 
ATOM     29  C   UNL     1      48.307  10.772  11.277  0.00  0.00    +0.000 A 
ATOM     30  O   UNL     1      49.306  10.072  11.360  0.00  0.00    +0.000 OA
ATOM     31  C   UNL     1      46.988  10.367  11.723  0.00  0.00    +0.000 A 
ATOM     32  H   UNL     1      49.244  12.318  10.348  0.00  0.00    +0.000 HD
ENDBRANCH  20  22
ENDBRANCH  19  20
ENDBRANCH   1  19
TORSDOF 7
ENDMDL
MODEL 5
REMARK VINA RESULT:    -7.228      2.776      4.607
REMARK INTER + INTRA:         -11.633
REMARK INTER:                 -10.473
REMARK INTRA:                  -1.159
REMARK UNBOUND:                -1.447
REMARK  Name = 
REMARK  8 active torsions:
REMARK  status: ('A' for Active; 'I' for Inactive)
REMARK    1  A    between atoms: C_1  and  C_2
REMARK    2  A    between atoms: C_2  and  N_3
REMARK    3  A    between atoms: C_2  and  C_18
REMARK    4  A    between atoms: N_3  and  C_4
REMARK    5  A    between atoms: C_7  and  N_8
REMARK    6  A    between atoms: N_8  and  C_9
REMARK    7  A    between atoms: C_9  and  C_10
REMARK    8  A    between atoms: C_18  and  C_20
REMARK                            x       y       z     vdW  Elec       q    Type
REMARK                         _______ _______ _______ _____ _____    ______ ____
ROOT
ATOM      1  N   UNL     1      46.970   5.499  12.726  0.00  0.00    +0.000 N 
ATOM      2  H   UNL     1      47.370   4.800  13.355  0.00  0.00    +0.000 HD
ENDROOT
BRANCH   1   3
ATOM      3  C   UNL     1      45.668   5.145  12.398  0.00  0.00    +0.000 C 
ATOM      4  C   UNL     1      45.149   3.965  12.778  0.00  0.00    +0.000 C 
ATOM      5  C   UNL     1      43.800   3.460  12.355  0.00  0.00    +0.000 C 
ATOM      6  C   UNL     1      43.170   4.269  11.194  0.00  0.00    +0.000 C 
ATOM      7  C   UNL     1      43.367   5.765  11.507  0.00  0.00    +0.000 C 
ATOM      8  C   UNL     1      44.850   6.144  11.605  0.00  0.00    +0.000 C 
BRANCH   6   9
ATOM      9  N   UNL     1      43.711   3.968   9.854  0.00  0.00    +0.000 NA
ATOM     10  H   UNL     1      44.417   4.660   9.599  0.00  0.00    +0.000 HD
BRANCH   9  11
ATOM     11  C   UNL     1      44.313   2.642   9.764  0.00  0.00    +0.000 C 
BRANCH  11  12
ATOM     12  C   UNL     1      45.344   2.550   8.659  0.00  0.00    +0.000 A 
ATOM     13  C   UNL     1      45.699   3.690   7.927  0.00  0.00    +0.000 A 
ATOM     14  C   UNL     1      46.705   3.628   6.958  0.00  0.00    +0.000 A 
ATOM     15  C   UNL     1      47.359   2.426   6.709  0.00  0.00    +0.000 A 
ATOM     16  C   UNL     1      47.000   1.275   7.420  0.00  0.00    +0.000 A 
ATOM     17  C   UNL     1      45.998   1.340   8.390  0.00  0.00    +0.000 A 
ENDBRANCH  11  12
ENDBRANCH   9  11
ENDBRANCH   6   9
ENDBRANCH   1   3
BRANCH   1  19
ATOM     18  C   UNL     1      48.231   6.863  14.448  0.00  0.00    +0.000 C 
ATOM     19  C   UNL     1      47.320   6.869  13.218  0.00  0.00    +0.000 C 
BRANCH  19  20
ATOM     20  C   UNL     1      47.958   7.735  12.101  0.00  0.00    +0.000 C 
ATOM     21  O   UNL     1      48.217   7.238  11.000  0.00  0.00    +0.000 OA
BRANCH  20  22
ATOM     22  C   UNL     1      48.120   9.193  12.270  0.00  0.00    +0.000 A 
ATOM     23  C   UNL     1      49.389   9.719  12.487  0.00  0.00    +0.000 A 
ATOM     24  S   UNL     1      49.428  11.424  12.501  0.00  0.00    +0.000 S 
ATOM     25  C   UNL     1      47.746  11.513  12.264  0.00  0.00    +0.000 A 
ATOM     26  N   UNL     1      47.120  12.710  12.109  0.00  0.00    +0.000 NA
ATOM     27  C   UNL     1      45.844  12.623  11.930  0.00  0.00    +0.000 A 
ATOM     28  N   UNL     1      45.130  11.452  11.945  0.00  0.00    +0.000 N 
ATOM     29  C   UNL     1      45.705  10.247  12.276  0.00  0.00    +0.000 A 
ATOM     30  O   UNL     1      45.028   9.288  12.618  0.00  0.00    +0.000 OA
ATOM     31  C   UNL     1      47.155  10.262  12.273  0.00  0.00    +0.000 A 
ATOM     32  H   UNL     1      44.122  11.470  11.917  0.00  0.00    +0.000 HD
ENDBRANCH  20  22
ENDBRANCH  19  20
ENDBRANCH   1  19
TORSDOF 7
ENDMDL
MODEL 6
REMARK VINA RESULT:    -7.153      2.003      2.918
REMARK INTER + INTRA:         -11.527
REMARK INTER:                 -10.650
REMARK INTRA:                  -0.876
REMARK UNBOUND:                -1.447
REMARK  Name = 
REMARK  8 active torsions:
REMARK  status: ('A' for Active; 'I' for Inactive)
REMARK    1  A    between atoms: C_1  and  C_2
REMARK    2  A    between atoms: C_2  and  N_3
REMARK    3  A    between atoms: C_2  and  C_18
REMARK    4  A    between atoms: N_3  and  C_4
REMARK    5  A    between atoms: C_7  and  N_8
REMARK    6  A    between atoms: N_8  and  C_9
REMARK    7  A    between atoms: C_9  and  C_10
REMARK    8  A    between atoms: C_18  and  C_20
REMARK                            x       y       z     vdW  Elec       q    Type
REMARK                         _______ _______ _______ _____ _____    ______ ____
ROOT
ATOM      1  N   UNL     1      47.692   5.431  13.984  0.00  0.00    +0.000 N 
ATOM      2  H   UNL     1      48.288   4.683  13.627  0.00  0.00    +0.000 HD
ENDROOT
BRANCH   1   3
ATOM      3  C   UNL     1      46.589   5.589  13.154  0.00  0.00    +0.000 C 
ATOM      4  C   UNL     1      45.353   5.265  13.568  0.00  0.00    +0.000 C 
ATOM      5  C   UNL     1      44.135   5.289  12.690  0.00  0.00    +0.000 C 
ATOM      6  C   UNL     1      44.460   5.420  11.181  0.00  0.00    +0.000 C 
ATOM      7  C   UNL     1      45.537   6.511  11.030  0.00  0.00    +0.000 C 
ATOM      8  C   UNL     1      46.832   6.151  11.768  0.00  0.00    +0.000 C 
BRANCH   6   9
ATOM      9  N   UNL     1      44.917   4.177  10.528  0.00  0.00    +0.000 NA
ATOM     10  H   UNL     1      44.497   3.367  10.986  0.00  0.00    +0.000 HD
BRANCH   9  11
ATOM     11  C   UNL     1      44.594   4.124   9.107  0.00  0.00    +0.000 C 
BRANCH  11  12
ATOM     12  C   UNL     1      45.549   3.242   8.331  0.00  0.00    +0.000 A 
ATOM     13  C   UNL     1      46.422   3.801   7.389  0.00  0.00    +0.000 A 
ATOM     14  C   UNL     1      47.359   3.004   6.726  0.00  0.00    +0.000 A 
ATOM     15  C   UNL     1      47.426   1.640   6.993  0.00  0.00    +0.000 A 
ATOM     16  C   UNL     1      46.546   1.066   7.917  0.00  0.00    +0.000 A 
ATOM     17  C   UNL     1      45.614   1.865   8.581  0.00  0.00    +0.000 A 
ENDBRANCH  11  12
ENDBRANCH   9  11
ENDBRANCH   6   9
ENDBRANCH   1   3
BRANCH   1  19
ATOM     18  C   UNL     1      47.451   3.838  15.939  0.00  0.00    +0.000 C 
ATOM     19  C   UNL     1      47.554   5.291  15.469  0.00  0.00    +0.000 C 
BRANCH  19  20
ATOM     20  C   UNL     1      48.707   6.003  16.222  0.00  0.00    +0.000 C 
ATOM     21  O   UNL     1      49.744   6.312  15.625  0.00  0.00    +0.000 OA
BRANCH  20  22
ATOM     22  C   UNL     1      48.531   6.469  17.613  0.00  0.00    +0.000 A 
ATOM     23  C   UNL     1      48.232   7.805  17.854  0.00  0.00    +0.000 A 
ATOM     24  S   UNL     1      47.903   8.147  19.492  0.00  0.00    +0.000 S 
ATOM     25  C   UNL     1      48.196   6.532  19.938  0.00  0.00    +0.000 A 
ATOM     26  N   UNL     1      48.019   6.113  21.219  0.00  0.00    +0.000 NA
ATOM     27  C   UNL     1      48.271   4.861  21.408  0.00  0.00    +0.000 A 
ATOM     28  N   UNL     1      48.735   4.003  20.445  0.00  0.00    +0.000 N 
ATOM     29  C   UNL     1      49.094   4.434  19.190  0.00  0.00    +0.000 A 
ATOM     30  O   UNL     1      49.811   3.761  18.462  0.00  0.00    +0.000 OA
ATOM     31  C   UNL     1      48.632   5.770  18.868  0.00  0.00    +0.000 A 
ATOM     32  H   UNL     1      49.025   3.067  20.692  0.00  0.00    +0.000 HD
ENDBRANCH  20  22
ENDBRANCH  19  20
ENDBRANCH   1  19
TORSDOF 7
ENDMDL
MODEL 7
REMARK VINA RESULT:    -7.079      3.265      4.743
REMARK INTER + INTRA:         -11.422
REMARK INTER:                 -10.265
REMARK INTRA:                  -1.157
REMARK UNBOUND:                -1.447
REMARK  Name = 
REMARK  8 active torsions:
REMARK  status: ('A' for Active; 'I' for Inactive)
REMARK    1  A    between atoms: C_1  and  C_2
REMARK    2  A    between atoms: C_2  and  N_3
REMARK    3  A    between atoms: C_2  and  C_18
REMARK    4  A    between atoms: N_3  and  C_4
REMARK    5  A    between atoms: C_7  and  N_8
REMARK    6  A    between atoms: N_8  and  C_9
REMARK    7  A    between atoms: C_9  and  C_10
REMARK    8  A    between atoms: C_18  and  C_20
REMARK                            x       y       z     vdW  Elec       q    Type
REMARK                         _______ _______ _______ _____ _____    ______ ____
ROOT
ATOM      1  N   UNL     1      46.328   6.561  12.771  0.00  0.00    +0.000 N 
ATOM      2  H   UNL     1      46.435   6.526  13.786  0.00  0.00    +0.000 HD
ENDROOT
BRANCH   1   3
ATOM      3  C   UNL     1      45.314   5.698  12.375  0.00  0.00    +0.000 C 
ATOM      4  C   UNL     1      44.736   4.854  13.247  0.00  0.00    +0.000 C 
ATOM      5  C   UNL     1      43.729   3.808  12.869  0.00  0.00    +0.000 C 
ATOM      6  C   UNL     1      43.630   3.564  11.342  0.00  0.00    +0.000 C 
ATOM      7  C   UNL     1      43.604   4.940  10.651  0.00  0.00    +0.000 C 
ATOM      8  C   UNL     1      44.878   5.749  10.925  0.00  0.00    +0.000 C 
BRANCH   6   9
ATOM      9  N   UNL     1      44.713   2.741  10.768  0.00  0.00    +0.000 NA
ATOM     10  H   UNL     1      44.945   1.976  11.403  0.00  0.00    +0.000 HD
BRANCH   9  11
ATOM     11  C   UNL     1      44.374   2.174   9.467  0.00  0.00    +0.000 C 
BRANCH  11  12
ATOM     12  C   UNL     1      45.498   2.322   8.463  0.00  0.00    +0.000 A 
ATOM     13  C   UNL     1      45.800   3.576   7.919  0.00  0.00    +0.000 A 
ATOM     14  C   UNL     1      46.885   3.733   7.051  0.00  0.00    +0.000 A 
ATOM     15  C   UNL     1      47.672   2.636   6.715  0.00  0.00    +0.000 A 
ATOM     16  C   UNL     1      47.369   1.373   7.237  0.00  0.00    +0.000 A 
ATOM     17  C   UNL     1      46.287   1.220   8.107  0.00  0.00    +0.000 A 
ENDBRANCH  11  12
ENDBRANCH   9  11
ENDBRANCH   6   9
ENDBRANCH   1   3
BRANCH   1  19
ATOM     18  C   UNL     1      45.112   8.780  12.644  0.00  0.00    +0.000 C 
ATOM     19  C   UNL     1      46.379   7.987  12.314  0.00  0.00    +0.000 C 
BRANCH  19  20
ATOM     20  C   UNL     1      47.619   8.726  12.879  0.00  0.00    +0.000 C 
ATOM     21  O   UNL     1      48.063   8.435  13.995  0.00  0.00    +0.000 OA
BRANCH  20  22
ATOM     22  C   UNL     1      48.386   9.670  12.042  0.00  0.00    +0.000 A 
ATOM     23  C   UNL     1      47.823  10.894  11.699  0.00  0.00    +0.000 A 
ATOM     24  S   UNL     1      48.893  11.930  10.869  0.00  0.00    +0.000 S 
ATOM     25  C   UNL     1      50.127  10.760  10.899  0.00  0.00    +0.000 A 
ATOM     26  N   UNL     1      51.365  11.032  10.408  0.00  0.00    +0.000 NA
ATOM     27  C   UNL     1      52.201  10.052  10.505  0.00  0.00    +0.000 A 
ATOM     28  N   UNL     1      51.897   8.810  11.000  0.00  0.00    +0.000 N 
ATOM     29  C   UNL     1      50.613   8.449  11.337  0.00  0.00    +0.000 A 
ATOM     30  O   UNL     1      50.286   7.276  11.447  0.00  0.00    +0.000 OA
ATOM     31  C   UNL     1      49.694   9.566  11.448  0.00  0.00    +0.000 A 
ATOM     32  H   UNL     1      52.566   8.057  10.935  0.00  0.00    +0.000 HD
ENDBRANCH  20  22
ENDBRANCH  19  20
ENDBRANCH   1  19
TORSDOF 7
ENDMDL
MODEL 8
REMARK VINA RESULT:    -6.889      2.497      3.620
REMARK INTER + INTRA:         -11.155
REMARK INTER:                  -9.981
REMARK INTRA:                  -1.174
REMARK UNBOUND:                -1.447
REMARK  Name = 
REMARK  8 active torsions:
REMARK  status: ('A' for Active; 'I' for Inactive)
REMARK    1  A    between atoms: C_1  and  C_2
REMARK    2  A    between atoms: C_2  and  N_3
REMARK    3  A    between atoms: C_2  and  C_18
REMARK    4  A    between atoms: N_3  and  C_4
REMARK    5  A    between atoms: C_7  and  N_8
REMARK    6  A    between atoms: N_8  and  C_9
REMARK    7  A    between atoms: C_9  and  C_10
REMARK    8  A    between atoms: C_18  and  C_20
REMARK                            x       y       z     vdW  Elec       q    Type
REMARK                         _______ _______ _______ _____ _____    ______ ____
ROOT
ATOM      1  N   UNL     1      46.463   6.351  12.883  0.00  0.00    +0.000 N 
ATOM      2  H   UNL     1      46.219   6.645  13.830  0.00  0.00    +0.000 HD
ENDROOT
BRANCH   1   3
ATOM      3  C   UNL     1      45.469   5.522  12.377  0.00  0.00    +0.000 C 
ATOM      4  C   UNL     1      44.825   4.646  13.166  0.00  0.00    +0.000 C 
ATOM      5  C   UNL     1      43.833   3.633  12.669  0.00  0.00    +0.000 C 
ATOM      6  C   UNL     1      43.835   3.466  11.129  0.00  0.00    +0.000 C 
ATOM      7  C   UNL     1      43.871   4.875  10.507  0.00  0.00    +0.000 C 
ATOM      8  C   UNL     1      45.133   5.650  10.906  0.00  0.00    +0.000 C 
BRANCH   6   9
ATOM      9  N   UNL     1      44.945   2.657  10.588  0.00  0.00    +0.000 NA
ATOM     10  H   UNL     1      45.192   1.918  11.248  0.00  0.00    +0.000 HD
BRANCH   9  11
ATOM     11  C   UNL     1      44.634   2.042   9.302  0.00  0.00    +0.000 C 
BRANCH  11  12
ATOM     12  C   UNL     1      45.732   2.252   8.282  0.00  0.00    +0.000 A 
ATOM     13  C   UNL     1      46.557   1.187   7.902  0.00  0.00    +0.000 A 
ATOM     14  C   UNL     1      47.523   1.354   6.905  0.00  0.00    +0.000 A 
ATOM     15  C   UNL     1      47.676   2.591   6.285  0.00  0.00    +0.000 A 
ATOM     16  C   UNL     1      46.871   3.669   6.670  0.00  0.00    +0.000 A 
ATOM     17  C   UNL     1      45.905   3.497   7.663  0.00  0.00    +0.000 A 
ENDBRANCH  11  12
ENDBRANCH   9  11
ENDBRANCH   6   9
ENDBRANCH   1   3
BRANCH   1  19
ATOM     18  C   UNL     1      46.327   8.852  12.507  0.00  0.00    +0.000 C 
ATOM     19  C   UNL     1      46.983   7.526  12.114  0.00  0.00    +0.000 C 
BRANCH  19  20
ATOM     20  C   UNL     1      48.524   7.652  12.231  0.00  0.00    +0.000 C 
ATOM     21  O   UNL     1      49.233   7.580  11.222  0.00  0.00    +0.000 OA
BRANCH  20  22
ATOM     22  C   UNL     1      49.161   8.017  13.513  0.00  0.00    +0.000 A 
ATOM     23  C   UNL     1      49.203   7.087  14.545  0.00  0.00    +0.000 A 
ATOM     24  S   UNL     1      50.110   7.604  15.894  0.00  0.00    +0.000 S 
ATOM     25  C   UNL     1      50.435   9.104  15.161  0.00  0.00    +0.000 A 
ATOM     26  N   UNL     1      51.241  10.020  15.763  0.00  0.00    +0.000 NA
ATOM     27  C   UNL     1      51.403  11.108  15.087  0.00  0.00    +0.000 A 
ATOM     28  N   UNL     1      50.793  11.385  13.891  0.00  0.00    +0.000 N 
ATOM     29  C   UNL     1      49.838  10.559  13.346  0.00  0.00    +0.000 A 
ATOM     30  O   UNL     1      49.064  10.955  12.486  0.00  0.00    +0.000 OA
ATOM     31  C   UNL     1      49.780   9.241  13.950  0.00  0.00    +0.000 A 
ATOM     32  H   UNL     1      50.872  12.303  13.478  0.00  0.00    +0.000 HD
ENDBRANCH  20  22
ENDBRANCH  19  20
ENDBRANCH   1  19
TORSDOF 7
ENDMDL
MODEL 9
REMARK VINA RESULT:    -6.812      3.175      7.807
REMARK INTER + INTRA:         -11.046
REMARK INTER:                  -9.747
REMARK INTRA:                  -1.299
REMARK UNBOUND:                -1.447
REMARK  Name = 
REMARK  8 active torsions:
REMARK  status: ('A' for Active; 'I' for Inactive)
REMARK    1  A    between atoms: C_1  and  C_2
REMARK    2  A    between atoms: C_2  and  N_3
REMARK    3  A    between atoms: C_2  and  C_18
REMARK    4  A    between atoms: N_3  and  C_4
REMARK    5  A    between atoms: C_7  and  N_8
REMARK    6  A    between atoms: N_8  and  C_9
REMARK    7  A    between atoms: C_9  and  C_10
REMARK    8  A    between atoms: C_18  and  C_20
REMARK                            x       y       z     vdW  Elec       q    Type
REMARK                         _______ _______ _______ _____ _____    ______ ____
ROOT
ATOM      1  N   UNL     1      49.699   7.299  14.300  0.00  0.00    +0.000 N 
ATOM      2  H   UNL     1      50.581   7.656  13.927  0.00  0.00    +0.000 HD
ENDROOT
BRANCH   1   3
ATOM      3  C   UNL     1      49.450   7.870  15.542  0.00  0.00    +0.000 C 
ATOM      4  C   UNL     1      50.294   7.692  16.573  0.00  0.00    +0.000 C 
ATOM      5  C   UNL     1      50.031   8.168  17.972  0.00  0.00    +0.000 C 
ATOM      6  C   UNL     1      48.566   8.613  18.211  0.00  0.00    +0.000 C 
ATOM      7  C   UNL     1      48.142   9.482  17.012  0.00  0.00    +0.000 C 
ATOM      8  C   UNL     1      48.197   8.707  15.689  0.00  0.00    +0.000 C 
BRANCH   6   9
ATOM      9  N   UNL     1      47.598   7.513  18.393  0.00  0.00    +0.000 NA
ATOM     10  H   UNL     1      47.345   7.118  17.487  0.00  0.00    +0.000 HD
BRANCH   9  11
ATOM     11  C   UNL     1      48.104   6.439  19.241  0.00  0.00    +0.000 C 
BRANCH  11  12
ATOM     12  C   UNL     1      48.236   5.129  18.494  0.00  0.00    +0.000 A 
ATOM     13  C   UNL     1      47.148   4.605  17.786  0.00  0.00    +0.000 A 
ATOM     14  C   UNL     1      47.285   3.436  17.032  0.00  0.00    +0.000 A 
ATOM     15  C   UNL     1      48.510   2.778  16.984  0.00  0.00    +0.000 A 
ATOM     16  C   UNL     1      49.600   3.280  17.704  0.00  0.00    +0.000 A 
ATOM     17  C   UNL     1      49.461   4.450  18.453  0.00  0.00    +0.000 A 
ENDBRANCH  11  12
ENDBRANCH   9  11
ENDBRANCH   6   9
ENDBRANCH   1   3
BRANCH   1  19
ATOM     18  C   UNL     1      49.266   7.317  11.805  0.00  0.00    +0.000 C 
ATOM     19  C   UNL     1      48.669   7.283  13.214  0.00  0.00    +0.000 C 
BRANCH  19  20
ATOM     20  C   UNL     1      47.714   6.069  13.347  0.00  0.00    +0.000 C 
ATOM     21  O   UNL     1      47.992   5.138  14.110  0.00  0.00    +0.000 OA
BRANCH  20  22
ATOM     22  C   UNL     1      46.388   6.071  12.695  0.00  0.00    +0.000 A 
ATOM     23  C   UNL     1      45.753   7.282  12.441  0.00  0.00    +0.000 A 
ATOM     24  S   UNL     1      44.312   7.121  11.544  0.00  0.00    +0.000 S 
ATOM     25  C   UNL     1      44.466   5.428  11.507  0.00  0.00    +0.000 A 
ATOM     26  N   UNL     1      43.581   4.657  10.820  0.00  0.00    +0.000 NA
ATOM     27  C   UNL     1      43.827   3.390  10.875  0.00  0.00    +0.000 A 
ATOM     28  N   UNL     1      44.845   2.822  11.597  0.00  0.00    +0.000 N 
ATOM     29  C   UNL     1      45.644   3.556  12.442  0.00  0.00    +0.000 A 
ATOM     30  O   UNL     1      46.305   3.022  13.322  0.00  0.00    +0.000 OA
ATOM     31  C   UNL     1      45.547   4.990  12.251  0.00  0.00    +0.000 A 
ATOM     32  H   UNL     1      44.905   1.818  11.690  0.00  0.00    +0.000 HD
ENDBRANCH  20  22
ENDBRANCH  19  20
ENDBRANCH   1  19
TORSDOF 7
ENDMDL
