MODEL 1
REMARK VINA RESULT:    -7.682      0.000      0.000
REMARK INTER + INTRA:         -12.477
REMARK INTER:                 -11.049
REMARK INTRA:                  -1.427
REMARK UNBOUND:                -1.427
REMARK  Name = 
REMARK  8 active torsions:
REMARK  status: ('A' for Active; 'I' for Inactive)
REMARK    1  A    between atoms: N_1  and  C_2
REMARK    2  A    between atoms: C_5  and  C_6
REMARK    3  A    between atoms: C_6  and  N_7
REMARK    4  A    between atoms: N_7  and  C_8
REMARK    5  A    between atoms: C_11  and  C_12
REMARK    6  A    between atoms: C_12  and  N_13
REMARK    7  A    between atoms: C_14  and  C_16
REMARK    8  A    between atoms: C_28  and  C_29
REMARK                            x       y       z     vdW  Elec       q    Type
REMARK                         _______ _______ _______ _____ _____    ______ ____
ROOT
ATOM      1  C   UNL     1      50.150   6.981  15.687  0.00  0.00    +0.000 A 
ATOM      2  C   UNL     1      48.797   6.711  15.453  0.00  0.00    +0.000 A 
ATOM      3  C   UNL     1      48.165   7.141  14.281  0.00  0.00    +0.000 A 
ATOM      4  C   UNL     1      48.877   7.859  13.316  0.00  0.00    +0.000 A 
ATOM      5  C   UNL     1      50.185   8.260  13.615  0.00  0.00    +0.000 A 
ATOM      6  C   UNL     1      50.812   7.826  14.790  0.00  0.00    +0.000 A 
ENDROOT
BRANCH   1   7
ATOM      7  N   UNL     1      50.844   6.417  16.771  0.00  0.00    +0.000 N 
ATOM      8  H   UNL     1      51.612   5.823  16.466  0.00  0.00    +0.000 HD
BRANCH   7   9
ATOM      9  C   UNL     1      50.017   5.743  17.784  0.00  0.00    +0.000 C 
BRANCH   9  13
ATOM     10  C   UNL     1      51.512   1.705  17.493  0.00  0.00    +0.000 A 
ATOM     11  C   UNL     1      52.288   2.719  18.047  0.00  0.00    +0.000 A 
ATOM     12  C   UNL     1      51.754   3.993  18.254  0.00  0.00    +0.000 A 
ATOM     13  C   UNL     1      50.438   4.291  17.867  0.00  0.00    +0.000 A 
ATOM     14  C   UNL     1      49.602   3.243  17.429  0.00  0.00    +0.000 A 
ATOM     15  C   UNL     1      50.173   1.973  17.201  0.00  0.00    +0.000 A 
BRANCH  14  16
ATOM     16  C   UNL     1      48.126   3.410  17.147  0.00  0.00    +0.000 C 
ATOM     17  F   UNL     1      47.526   4.468  17.761  0.00  0.00    +0.000 F 
ATOM     18  F   UNL     1      47.839   3.532  15.822  0.00  0.00    +0.000 F 
ATOM     19  F   UNL     1      47.415   2.321  17.574  0.00  0.00    +0.000 F 
ENDBRANCH  14  16
BRANCH  10  20
ATOM     20  N   UNL     1      52.118   0.546  17.007  0.00  0.00    +0.000 N 
ATOM     21  H   UNL     1      53.108   0.457  17.205  0.00  0.00    +0.000 HD
ATOM     22  H   UNL     1      51.596  -0.312  17.152  0.00  0.00    +0.000 HD
ENDBRANCH  10  20
ENDBRANCH   9  13
ENDBRANCH   7   9
ENDBRANCH   1   7
BRANCH   4  23
ATOM     23  C   UNL     1      48.274   8.127  11.963  0.00  0.00    +0.000 C 
BRANCH  23  24
ATOM     24  N   UNL     1      47.620   6.985  11.384  0.00  0.00    +0.000 N 
ATOM     25  C   UNL     1      46.247   6.954  11.318  0.00  0.00    +0.000 C 
ATOM     26  O   UNL     1      45.560   7.910  11.678  0.00  0.00    +0.000 OA
ATOM     27  H   UNL     1      48.146   6.119  11.327  0.00  0.00    +0.000 HD
BRANCH  25  28
ATOM     28  C   UNL     1      45.628   5.748  10.761  0.00  0.00    +0.000 A 
ATOM     29  C   UNL     1      45.747   5.485   9.403  0.00  0.00    +0.000 A 
ATOM     30  S   UNL     1      45.011   4.027   8.918  0.00  0.00    +0.000 S 
ATOM     31  C   UNL     1      44.456   3.722  10.501  0.00  0.00    +0.000 A 
ATOM     32  N   UNL     1      43.712   2.618  10.780  0.00  0.00    +0.000 NA
ATOM     33  C   UNL     1      43.324   2.536  12.006  0.00  0.00    +0.000 A 
ATOM     34  N   UNL     1      43.620   3.449  12.986  0.00  0.00    +0.000 N 
ATOM     35  C   UNL     1      44.399   4.559  12.756  0.00  0.00    +0.000 A 
ATOM     36  O   UNL     1      44.677   5.341  13.659  0.00  0.00    +0.000 OA
ATOM     37  C   UNL     1      44.845   4.711  11.385  0.00  0.00    +0.000 A 
ATOM     38  H   UNL     1      43.299   3.314  13.931  0.00  0.00    +0.000 HD
ENDBRANCH  25  28
ENDBRANCH  23  24
ENDBRANCH   4  23
TORSDOF 8
ENDMDL
MODEL 2
REMARK VINA RESULT:    -7.629      1.442      2.024
REMARK INTER + INTRA:         -12.402
REMARK INTER:                 -10.522
REMARK INTRA:                  -1.880
REMARK UNBOUND:                -1.427
REMARK  Name = 
REMARK  8 active torsions:
REMARK  status: ('A' for Active; 'I' for Inactive)
REMARK    1  A    between atoms: N_1  and  C_2
REMARK    2  A    between atoms: C_5  and  C_6
REMARK    3  A    between atoms: C_6  and  N_7
REMARK    4  A    between atoms: N_7  and  C_8
REMARK    5  A    between atoms: C_11  and  C_12
REMARK    6  A    between atoms: C_12  and  N_13
REMARK    7  A    between atoms: C_14  and  C_16
REMARK    8  A    between atoms: C_28  and  C_29
REMARK                            x       y       z     vdW  Elec       q    Type
REMARK                         _______ _______ _______ _____ _____    ______ ____
ROOT
ATOM      1  C   UNL     1      49.684   7.628  15.927  0.00  0.00    +0.000 A 
ATOM      2  C   UNL     1      48.461   8.297  15.807  0.00  0.00    +0.000 A 
ATOM      3  C   UNL     1      47.855   8.481  14.560  0.00  0.00    +0.000 A 
ATOM      4  C   UNL     1      48.468   8.003  13.398  0.00  0.00    +0.000 A 
ATOM      5  C   UNL     1      49.758   7.469  13.498  0.00  0.00    +0.000 A 
ATOM      6  C   UNL     1      50.359   7.287  14.750  0.00  0.00    +0.000 A 
ENDROOT
BRANCH   1   7
ATOM      7  N   UNL     1      50.224   7.285  17.178  0.00  0.00    +0.000 N 
ATOM      8  H   UNL     1      51.124   6.817  17.090  0.00  0.00    +0.000 HD
BRANCH   7   9
ATOM      9  C   UNL     1      49.328   6.554  18.088  0.00  0.00    +0.000 C 
BRANCH   9  13
ATOM     10  C   UNL     1      50.656   2.496  17.461  0.00  0.00    +0.000 A 
ATOM     11  C   UNL     1      51.481   3.434  18.075  0.00  0.00    +0.000 A 
ATOM     12  C   UNL     1      51.002   4.707  18.389  0.00  0.00    +0.000 A 
ATOM     13  C   UNL     1      49.692   5.084  18.051  0.00  0.00    +0.000 A 
ATOM     14  C   UNL     1      48.808   4.106  17.551  0.00  0.00    +0.000 A 
ATOM     15  C   UNL     1      49.325   2.837  17.215  0.00  0.00    +0.000 A 
BRANCH  14  16
ATOM     16  C   UNL     1      47.336   4.351  17.311  0.00  0.00    +0.000 C 
ATOM     17  F   UNL     1      46.687   5.042  18.291  0.00  0.00    +0.000 F 
ATOM     18  F   UNL     1      47.080   5.016  16.150  0.00  0.00    +0.000 F 
ATOM     19  F   UNL     1      46.648   3.172  17.214  0.00  0.00    +0.000 F 
ENDBRANCH  14  16
BRANCH  10  20
ATOM     20  N   UNL     1      51.208   1.355  16.875  0.00  0.00    +0.000 N 
ATOM     21  H   UNL     1      51.068   1.268  15.875  0.00  0.00    +0.000 HD
ATOM     22  H   UNL     1      52.149   1.123  17.175  0.00  0.00    +0.000 HD
ENDBRANCH  10  20
ENDBRANCH   9  13
ENDBRANCH   7   9
ENDBRANCH   1   7
BRANCH   4  23
ATOM     23  C   UNL     1      47.724   7.994  12.089  0.00  0.00    +0.000 C 
BRANCH  23  24
ATOM     24  N   UNL     1      47.042   6.758  11.818  0.00  0.00    +0.000 N 
ATOM     25  C   UNL     1      45.683   6.680  12.006  0.00  0.00    +0.000 C 
ATOM     26  O   UNL     1      45.017   7.662  12.333  0.00  0.00    +0.000 OA
ATOM     27  H   UNL     1      47.598   5.908  11.800  0.00  0.00    +0.000 HD
BRANCH  25  28
ATOM     28  C   UNL     1      45.044   5.383  11.759  0.00  0.00    +0.000 A 
ATOM     29  C   UNL     1      44.360   4.752  12.788  0.00  0.00    +0.000 A 
ATOM     30  S   UNL     1      43.640   3.277  12.332  0.00  0.00    +0.000 S 
ATOM     31  C   UNL     1      44.266   3.401  10.752  0.00  0.00    +0.000 A 
ATOM     32  N   UNL     1      44.040   2.426   9.832  0.00  0.00    +0.000 NA
ATOM     33  C   UNL     1      44.609   2.629   8.693  0.00  0.00    +0.000 A 
ATOM     34  N   UNL     1      45.374   3.723   8.382  0.00  0.00    +0.000 N 
ATOM     35  C   UNL     1      45.598   4.750   9.269  0.00  0.00    +0.000 A 
ATOM     36  O   UNL     1      46.258   5.734   8.953  0.00  0.00    +0.000 OA
ATOM     37  C   UNL     1      44.997   4.561  10.576  0.00  0.00    +0.000 A 
ATOM     38  H   UNL     1      45.775   3.829   7.464  0.00  0.00    +0.000 HD
ENDBRANCH  25  28
ENDBRANCH  23  24
ENDBRANCH   4  23
TORSDOF 8
ENDMDL
MODEL 3
REMARK VINA RESULT:    -7.080      3.617      8.369
REMARK INTER + INTRA:         -11.611
REMARK INTER:                 -10.228
REMARK INTRA:                  -1.383
REMARK UNBOUND:                -1.427
REMARK  Name = 
REMARK  8 active torsions:
REMARK  status: ('A' for Active; 'I' for Inactive)
REMARK    1  A    between atoms: N_1  and  C_2
REMARK    2  A    between atoms: C_5  and  C_6
REMARK    3  A    between atoms: C_6  and  N_7
REMARK    4  A    between atoms: N_7  and  C_8
REMARK    5  A    between atoms: C_11  and  C_12
REMARK    6  A    between atoms: C_12  and  N_13
REMARK    7  A    between atoms: C_14  and  C_16
REMARK    8  A    between atoms: C_28  and  C_29
REMARK                            x       y       z     vdW  Elec       q    Type
REMARK                         _______ _______ _______ _____ _____    ______ ____
ROOT
ATOM      1  C   UNL     1      47.224   7.431  12.951  0.00  0.00    +0.000 A 
ATOM      2  C   UNL     1      47.602   6.202  13.503  0.00  0.00    +0.000 A 
ATOM      3  C   UNL     1      48.247   6.133  14.742  0.00  0.00    +0.000 A 
ATOM      4  C   UNL     1      48.536   7.299  15.456  0.00  0.00    +0.000 A 
ATOM      5  C   UNL     1      48.296   8.533  14.840  0.00  0.00    +0.000 A 
ATOM      6  C   UNL     1      47.649   8.596  13.599  0.00  0.00    +0.000 A 
ENDROOT
BRANCH   1   7
ATOM      7  N   UNL     1      46.429   7.514  11.795  0.00  0.00    +0.000 N 
ATOM      8  H   UNL     1      46.352   8.469  11.452  0.00  0.00    +0.000 HD
BRANCH   7   9
ATOM      9  C   UNL     1      45.110   6.867  11.873  0.00  0.00    +0.000 C 
BRANCH   9  13
ATOM     10  C   UNL     1      44.747   3.581   9.099  0.00  0.00    +0.000 A 
ATOM     11  C   UNL     1      45.587   4.659   8.829  0.00  0.00    +0.000 A 
ATOM     12  C   UNL     1      45.796   5.655   9.785  0.00  0.00    +0.000 A 
ATOM     13  C   UNL     1      45.131   5.616  11.021  0.00  0.00    +0.000 A 
ATOM     14  C   UNL     1      44.384   4.468  11.357  0.00  0.00    +0.000 A 
ATOM     15  C   UNL     1      44.164   3.490  10.364  0.00  0.00    +0.000 A 
BRANCH  14  16
ATOM     16  C   UNL     1      43.766   4.239  12.717  0.00  0.00    +0.000 C 
ATOM     17  F   UNL     1      44.587   4.462  13.782  0.00  0.00    +0.000 F 
ATOM     18  F   UNL     1      42.652   4.991  12.939  0.00  0.00    +0.000 F 
ATOM     19  F   UNL     1      43.362   2.940  12.864  0.00  0.00    +0.000 F 
ENDBRANCH  14  16
BRANCH  10  20
ATOM     20  N   UNL     1      44.300   2.765   8.059  0.00  0.00    +0.000 N 
ATOM     21  H   UNL     1      43.315   2.528   8.086  0.00  0.00    +0.000 HD
ATOM     22  H   UNL     1      44.631   3.017   7.134  0.00  0.00    +0.000 HD
ENDBRANCH  10  20
ENDBRANCH   9  13
ENDBRANCH   7   9
ENDBRANCH   1   7
BRANCH   4  23
ATOM     23  C   UNL     1      49.020   7.225  16.880  0.00  0.00    +0.000 C 
BRANCH  23  24
ATOM     24  N   UNL     1      50.001   6.198  17.106  0.00  0.00    +0.000 N 
ATOM     25  C   UNL     1      50.342   5.861  18.394  0.00  0.00    +0.000 C 
ATOM     26  O   UNL     1      49.779   6.364  19.366  0.00  0.00    +0.000 OA
ATOM     27  H   UNL     1      50.632   5.974  16.342  0.00  0.00    +0.000 HD
BRANCH  25  28
ATOM     28  C   UNL     1      51.381   4.841  18.568  0.00  0.00    +0.000 A 
ATOM     29  C   UNL     1      52.542   5.160  19.256  0.00  0.00    +0.000 A 
ATOM     30  S   UNL     1      53.631   3.858  19.409  0.00  0.00    +0.000 S 
ATOM     31  C   UNL     1      52.610   2.832  18.508  0.00  0.00    +0.000 A 
ATOM     32  N   UNL     1      52.970   1.549  18.238  0.00  0.00    +0.000 NA
ATOM     33  C   UNL     1      52.124   0.903  17.512  0.00  0.00    +0.000 A 
ATOM     34  N   UNL     1      50.943   1.414  17.039  0.00  0.00    +0.000 N 
ATOM     35  C   UNL     1      50.523   2.694  17.318  0.00  0.00    +0.000 A 
ATOM     36  O   UNL     1      49.446   3.115  16.910  0.00  0.00    +0.000 OA
ATOM     37  C   UNL     1      51.450   3.474  18.115  0.00  0.00    +0.000 A 
ATOM     38  H   UNL     1      50.317   0.847  16.490  0.00  0.00    +0.000 HD
ENDBRANCH  25  28
ENDBRANCH  23  24
ENDBRANCH   4  23
TORSDOF 8
ENDMDL
MODEL 4
REMARK VINA RESULT:    -6.969      2.508      3.261
REMARK INTER + INTRA:         -11.452
REMARK INTER:                  -9.587
REMARK INTRA:                  -1.865
REMARK UNBOUND:                -1.427
REMARK  Name = 
REMARK  8 active torsions:
REMARK  status: ('A' for Active; 'I' for Inactive)
REMARK    1  A    between atoms: N_1  and  C_2
REMARK    2  A    between atoms: C_5  and  C_6
REMARK    3  A    between atoms: C_6  and  N_7
REMARK    4  A    between atoms: N_7  and  C_8
REMARK    5  A    between atoms: C_11  and  C_12
REMARK    6  A    between atoms: C_12  and  N_13
REMARK    7  A    between atoms: C_14  and  C_16
REMARK    8  A    between atoms: C_28  and  C_29
REMARK                            x       y       z     vdW  Elec       q    Type
REMARK                         _______ _______ _______ _____ _____    ______ ____
ROOT
ATOM      1  C   UNL     1      49.737   8.330  15.548  0.00  0.00    +0.000 A 
ATOM      2  C   UNL     1      48.567   9.057  15.301  0.00  0.00    +0.000 A 
ATOM      3  C   UNL     1      47.968   9.060  14.037  0.00  0.00    +0.000 A 
ATOM      4  C   UNL     1      48.535   8.335  12.984  0.00  0.00    +0.000 A 
ATOM      5  C   UNL     1      49.782   7.732  13.187  0.00  0.00    +0.000 A 
ATOM      6  C   UNL     1      50.376   7.732  14.456  0.00  0.00    +0.000 A 
ENDROOT
BRANCH   1   7
ATOM      7  N   UNL     1      50.258   8.177  16.843  0.00  0.00    +0.000 N 
ATOM      8  H   UNL     1      51.156   8.643  16.951  0.00  0.00    +0.000 HD
BRANCH   7   9
ATOM      9  C   UNL     1      50.304   6.801  17.361  0.00  0.00    +0.000 C 
BRANCH   9  13
ATOM     10  C   UNL     1      47.498   5.968  20.533  0.00  0.00    +0.000 A 
ATOM     11  C   UNL     1      48.364   7.057  20.608  0.00  0.00    +0.000 A 
ATOM     12  C   UNL     1      49.179   7.394  19.526  0.00  0.00    +0.000 A 
ATOM     13  C   UNL     1      49.177   6.617  18.355  0.00  0.00    +0.000 A 
ATOM     14  C   UNL     1      48.214   5.596  18.217  0.00  0.00    +0.000 A 
ATOM     15  C   UNL     1      47.424   5.257  19.335  0.00  0.00    +0.000 A 
BRANCH  14  16
ATOM     16  C   UNL     1      48.005   4.809  16.943  0.00  0.00    +0.000 C 
ATOM     17  F   UNL     1      48.013   5.539  15.792  0.00  0.00    +0.000 F 
ATOM     18  F   UNL     1      48.920   3.816  16.764  0.00  0.00    +0.000 F 
ATOM     19  F   UNL     1      46.787   4.185  16.942  0.00  0.00    +0.000 F 
ENDBRANCH  14  16
BRANCH  10  20
ATOM     20  N   UNL     1      46.923   5.451  21.695  0.00  0.00    +0.000 N 
ATOM     21  H   UNL     1      46.456   6.127  22.287  0.00  0.00    +0.000 HD
ATOM     22  H   UNL     1      46.404   4.587  21.576  0.00  0.00    +0.000 HD
ENDBRANCH  10  20
ENDBRANCH   9  13
ENDBRANCH   7   9
ENDBRANCH   1   7
BRANCH   4  23
ATOM     23  C   UNL     1      47.783   8.148  11.693  0.00  0.00    +0.000 C 
BRANCH  23  24
ATOM     24  N   UNL     1      47.076   6.899  11.610  0.00  0.00    +0.000 N 
ATOM     25  C   UNL     1      45.706   6.889  11.729  0.00  0.00    +0.000 C 
ATOM     26  O   UNL     1      45.058   7.929  11.834  0.00  0.00    +0.000 OA
ATOM     27  H   UNL     1      47.602   6.048  11.779  0.00  0.00    +0.000 HD
BRANCH  25  28
ATOM     28  C   UNL     1      45.038   5.585  11.683  0.00  0.00    +0.000 A 
ATOM     29  C   UNL     1      44.379   5.115  12.810  0.00  0.00    +0.000 A 
ATOM     30  S   UNL     1      43.620   3.607  12.584  0.00  0.00    +0.000 S 
ATOM     31  C   UNL     1      44.194   3.500  10.983  0.00  0.00    +0.000 A 
ATOM     32  N   UNL     1      43.921   2.412  10.214  0.00  0.00    +0.000 NA
ATOM     33  C   UNL     1      44.454   2.446   9.040  0.00  0.00    +0.000 A 
ATOM     34  N   UNL     1      45.226   3.471   8.557  0.00  0.00    +0.000 N 
ATOM     35  C   UNL     1      45.497   4.605   9.288  0.00  0.00    +0.000 A 
ATOM     36  O   UNL     1      46.162   5.522   8.818  0.00  0.00    +0.000 OA
ATOM     37  C   UNL     1      44.938   4.609  10.626  0.00  0.00    +0.000 A 
ATOM     38  H   UNL     1      45.597   3.441   7.621  0.00  0.00    +0.000 HD
ENDBRANCH  25  28
ENDBRANCH  23  24
ENDBRANCH   4  23
TORSDOF 8
ENDMDL
MODEL 5
REMARK VINA RESULT:    -6.611      3.415      7.429
REMARK INTER + INTRA:         -10.937
REMARK INTER:                  -9.329
REMARK INTRA:                  -1.608
REMARK UNBOUND:                -1.427
REMARK  Name = 
REMARK  8 active torsions:
REMARK  status: ('A' for Active; 'I' for Inactive)
REMARK    1  A    between atoms: N_1  and  C_2
REMARK    2  A    between atoms: C_5  and  C_6
REMARK    3  A    between atoms: C_6  and  N_7
REMARK    4  A    between atoms: N_7  and  C_8
REMARK    5  A    between atoms: C_11  and  C_12
REMARK    6  A    between atoms: C_12  and  N_13
REMARK    7  A    between atoms: C_14  and  C_16
REMARK    8  A    between atoms: C_28  and  C_29
REMARK                            x       y       z     vdW  Elec       q    Type
REMARK                         _______ _______ _______ _____ _____    ______ ____
ROOT
ATOM      1  C   UNL     1      45.329   7.731  11.664  0.00  0.00    +0.000 A 
ATOM      2  C   UNL     1      46.512   7.195  11.144  0.00  0.00    +0.000 A 
ATOM      3  C   UNL     1      47.742   7.407  11.774  0.00  0.00    +0.000 A 
ATOM      4  C   UNL     1      47.816   8.171  12.943  0.00  0.00    +0.000 A 
ATOM      5  C   UNL     1      46.662   8.831  13.381  0.00  0.00    +0.000 A 
ATOM      6  C   UNL     1      45.432   8.613  12.745  0.00  0.00    +0.000 A 
ENDROOT
BRANCH   1   7
ATOM      7  N   UNL     1      44.068   7.391  11.146  0.00  0.00    +0.000 N 
ATOM      8  H   UNL     1      43.396   8.149  11.248  0.00  0.00    +0.000 HD
BRANCH   7   9
ATOM      9  C   UNL     1      43.505   6.112  11.606  0.00  0.00    +0.000 C 
BRANCH   9  13
ATOM     10  C   UNL     1      44.906   2.650   9.443  0.00  0.00    +0.000 A 
ATOM     11  C   UNL     1      44.402   3.761   8.771  0.00  0.00    +0.000 A 
ATOM     12  C   UNL     1      44.069   4.924   9.467  0.00  0.00    +0.000 A 
ATOM     13  C   UNL     1      44.192   4.984  10.865  0.00  0.00    +0.000 A 
ATOM     14  C   UNL     1      44.822   3.919  11.540  0.00  0.00    +0.000 A 
ATOM     15  C   UNL     1      45.122   2.744  10.819  0.00  0.00    +0.000 A 
BRANCH  14  16
ATOM     16  C   UNL     1      45.162   3.944  13.013  0.00  0.00    +0.000 C 
ATOM     17  F   UNL     1      46.105   3.047  13.415  0.00  0.00    +0.000 F 
ATOM     18  F   UNL     1      45.591   5.161  13.449  0.00  0.00    +0.000 F 
ATOM     19  F   UNL     1      44.066   3.651  13.778  0.00  0.00    +0.000 F 
ENDBRANCH  14  16
BRANCH  10  20
ATOM     20  N   UNL     1      44.945   1.407   8.809  0.00  0.00    +0.000 N 
ATOM     21  H   UNL     1      45.125   1.433   7.812  0.00  0.00    +0.000 HD
ATOM     22  H   UNL     1      45.465   0.686   9.297  0.00  0.00    +0.000 HD
ENDBRANCH  10  20
ENDBRANCH   9  13
ENDBRANCH   7   9
ENDBRANCH   1   7
BRANCH   4  23
ATOM     23  C   UNL     1      49.087   8.216  13.748  0.00  0.00    +0.000 C 
BRANCH  23  24
ATOM     24  N   UNL     1      49.096   7.315  14.869  0.00  0.00    +0.000 N 
ATOM     25  C   UNL     1      48.848   7.802  16.130  0.00  0.00    +0.000 C 
ATOM     26  O   UNL     1      48.547   8.979  16.322  0.00  0.00    +0.000 OA
ATOM     27  H   UNL     1      49.581   6.430  14.757  0.00  0.00    +0.000 HD
BRANCH  25  28
ATOM     28  C   UNL     1      48.915   6.849  17.242  0.00  0.00    +0.000 A 
ATOM     29  C   UNL     1      49.440   7.257  18.460  0.00  0.00    +0.000 A 
ATOM     30  S   UNL     1      49.410   6.049  19.661  0.00  0.00    +0.000 S 
ATOM     31  C   UNL     1      48.743   4.916  18.577  0.00  0.00    +0.000 A 
ATOM     32  N   UNL     1      48.489   3.639  18.970  0.00  0.00    +0.000 NA
ATOM     33  C   UNL     1      48.026   2.880  18.036  0.00  0.00    +0.000 A 
ATOM     34  N   UNL     1      47.783   3.279  16.747  0.00  0.00    +0.000 N 
ATOM     35  C   UNL     1      47.991   4.569  16.318  0.00  0.00    +0.000 A 
ATOM     36  O   UNL     1      47.732   4.908  15.168  0.00  0.00    +0.000 OA
ATOM     37  C   UNL     1      48.532   5.461  17.324  0.00  0.00    +0.000 A 
ATOM     38  H   UNL     1      47.402   2.637  16.071  0.00  0.00    +0.000 HD
ENDBRANCH  25  28
ENDBRANCH  23  24
ENDBRANCH   4  23
TORSDOF 8
ENDMDL
MODEL 6
REMARK VINA RESULT:    -6.459      4.255      9.087
REMARK INTER + INTRA:         -10.718
REMARK INTER:                  -9.426
REMARK INTRA:                  -1.292
REMARK UNBOUND:                -1.427
REMARK  Name = 
REMARK  8 active torsions:
REMARK  status: ('A' for Active; 'I' for Inactive)
REMARK    1  A    between atoms: N_1  and  C_2
REMARK    2  A    between atoms: C_5  and  C_6
REMARK    3  A    between atoms: C_6  and  N_7
REMARK    4  A    between atoms: N_7  and  C_8
REMARK    5  A    between atoms: C_11  and  C_12
REMARK    6  A    between atoms: C_12  and  N_13
REMARK    7  A    between atoms: C_14  and  C_16
REMARK    8  A    between atoms: C_28  and  C_29
REMARK                            x       y       z     vdW  Elec       q    Type
REMARK                         _______ _______ _______ _____ _____    ______ ____
ROOT
ATOM      1  C   UNL     1      47.801   5.439  14.906  0.00  0.00    +0.000 A 
ATOM      2  C   UNL     1      48.450   6.502  15.543  0.00  0.00    +0.000 A 
ATOM      3  C   UNL     1      48.778   6.441  16.902  0.00  0.00    +0.000 A 
ATOM      4  C   UNL     1      48.454   5.311  17.658  0.00  0.00    +0.000 A 
ATOM      5  C   UNL     1      47.674   4.313  17.062  0.00  0.00    +0.000 A 
ATOM      6  C   UNL     1      47.350   4.379  15.700  0.00  0.00    +0.000 A 
ENDROOT
BRANCH   1   7
ATOM      7  N   UNL     1      47.616   5.408  13.514  0.00  0.00    +0.000 N 
ATOM      8  H   UNL     1      47.569   6.343  13.114  0.00  0.00    +0.000 HD
BRANCH   7   9
ATOM      9  C   UNL     1      46.513   4.563  13.029  0.00  0.00    +0.000 C 
BRANCH   9  13
ATOM     10  C   UNL     1      43.636   7.211  11.203  0.00  0.00    +0.000 A 
ATOM     11  C   UNL     1      44.898   7.668  11.573  0.00  0.00    +0.000 A 
ATOM     12  C   UNL     1      45.867   6.781  12.046  0.00  0.00    +0.000 A 
ATOM     13  C   UNL     1      45.575   5.416  12.200  0.00  0.00    +0.000 A 
ATOM     14  C   UNL     1      44.351   4.920  11.708  0.00  0.00    +0.000 A 
ATOM     15  C   UNL     1      43.379   5.840  11.263  0.00  0.00    +0.000 A 
BRANCH  14  16
ATOM     16  C   UNL     1      43.998   3.450  11.665  0.00  0.00    +0.000 C 
ATOM     17  F   UNL     1      43.901   2.833  12.877  0.00  0.00    +0.000 F 
ATOM     18  F   UNL     1      42.828   3.193  11.018  0.00  0.00    +0.000 F 
ATOM     19  F   UNL     1      44.950   2.733  10.993  0.00  0.00    +0.000 F 
ENDBRANCH  14  16
BRANCH  10  20
ATOM     20  N   UNL     1      42.587   8.115  11.030  0.00  0.00    +0.000 N 
ATOM     21  H   UNL     1      42.700   8.772  10.267  0.00  0.00    +0.000 HD
ATOM     22  H   UNL     1      41.655   7.718  11.088  0.00  0.00    +0.000 HD
ENDBRANCH  10  20
ENDBRANCH   9  13
ENDBRANCH   7   9
ENDBRANCH   1   7
BRANCH   4  23
ATOM     23  C   UNL     1      48.998   5.140  19.051  0.00  0.00    +0.000 C 
BRANCH  23  24
ATOM     24  N   UNL     1      50.123   4.248  19.130  0.00  0.00    +0.000 N 
ATOM     25  C   UNL     1      51.393   4.745  18.959  0.00  0.00    +0.000 C 
ATOM     26  O   UNL     1      51.604   5.948  18.810  0.00  0.00    +0.000 OA
ATOM     27  H   UNL     1      49.948   3.257  18.997  0.00  0.00    +0.000 HD
BRANCH  25  28
ATOM     28  C   UNL     1      52.501   3.785  19.003  0.00  0.00    +0.000 A 
ATOM     29  C   UNL     1      53.652   4.104  19.708  0.00  0.00    +0.000 A 
ATOM     30  S   UNL     1      54.828   2.871  19.698  0.00  0.00    +0.000 S 
ATOM     31  C   UNL     1      53.860   1.885  18.700  0.00  0.00    +0.000 A 
ATOM     32  N   UNL     1      54.300   0.669  18.281  0.00  0.00    +0.000 NA
ATOM     33  C   UNL     1      53.484   0.051  17.497  0.00  0.00    +0.000 A 
ATOM     34  N   UNL     1      52.262   0.531  17.099  0.00  0.00    +0.000 N 
ATOM     35  C   UNL     1      51.764   1.739  17.527  0.00  0.00    +0.000 A 
ATOM     36  O   UNL     1      50.653   2.128  17.184  0.00  0.00    +0.000 OA
ATOM     37  C   UNL     1      52.652   2.486  18.397  0.00  0.00    +0.000 A 
ATOM     38  H   UNL     1      51.665  -0.013  16.497  0.00  0.00    +0.000 HD
ENDBRANCH  25  28
ENDBRANCH  23  24
ENDBRANCH   4  23
TORSDOF 8
ENDMDL
MODEL 7
REMARK VINA RESULT:    -6.389      3.317      7.599
REMARK INTER + INTRA:         -10.617
REMARK INTER:                  -8.620
REMARK INTRA:                  -1.997
REMARK UNBOUND:                -1.427
REMARK  Name = 
REMARK  8 active torsions:
REMARK  status: ('A' for Active; 'I' for Inactive)
REMARK    1  A    between atoms: N_1  and  C_2
REMARK    2  A    between atoms: C_5  and  C_6
REMARK    3  A    between atoms: C_6  and  N_7
REMARK    4  A    between atoms: N_7  and  C_8
REMARK    5  A    between atoms: C_11  and  C_12
REMARK    6  A    between atoms: C_12  and  N_13
REMARK    7  A    between atoms: C_14  and  C_16
REMARK    8  A    between atoms: C_28  and  C_29
REMARK                            x       y       z     vdW  Elec       q    Type
REMARK                         _______ _______ _______ _____ _____    ______ ____
ROOT
ATOM      1  C   UNL     1      47.380   8.210  12.146  0.00  0.00    +0.000 A 
ATOM      2  C   UNL     1      48.424   7.743  11.340  0.00  0.00    +0.000 A 
ATOM      3  C   UNL     1      49.761   7.926  11.709  0.00  0.00    +0.000 A 
ATOM      4  C   UNL     1      50.083   8.590  12.896  0.00  0.00    +0.000 A 
ATOM      5  C   UNL     1      49.049   9.189  13.625  0.00  0.00    +0.000 A 
ATOM      6  C   UNL     1      47.712   9.001  13.251  0.00  0.00    +0.000 A 
ENDROOT
BRANCH   1   7
ATOM      7  N   UNL     1      46.037   7.891  11.883  0.00  0.00    +0.000 N 
ATOM      8  H   UNL     1      45.489   8.713  11.641  0.00  0.00    +0.000 HD
BRANCH   7   9
ATOM      9  C   UNL     1      45.357   7.075  12.901  0.00  0.00    +0.000 C 
BRANCH   9  13
ATOM     10  C   UNL     1      43.984   3.205  11.575  0.00  0.00    +0.000 A 
ATOM     11  C   UNL     1      43.495   4.375  11.000  0.00  0.00    +0.000 A 
ATOM     12  C   UNL     1      44.034   5.616  11.344  0.00  0.00    +0.000 A 
ATOM     13  C   UNL     1      45.049   5.716  12.310  0.00  0.00    +0.000 A 
ATOM     14  C   UNL     1      45.642   4.534  12.800  0.00  0.00    +0.000 A 
ATOM     15  C   UNL     1      45.060   3.295  12.460  0.00  0.00    +0.000 A 
BRANCH  14  16
ATOM     16  C   UNL     1      46.849   4.517  13.710  0.00  0.00    +0.000 C 
ATOM     17  F   UNL     1      47.369   3.285  13.975  0.00  0.00    +0.000 F 
ATOM     18  F   UNL     1      47.885   5.270  13.248  0.00  0.00    +0.000 F 
ATOM     19  F   UNL     1      46.547   5.031  14.941  0.00  0.00    +0.000 F 
ENDBRANCH  14  16
BRANCH  10  20
ATOM     20  N   UNL     1      43.257   2.018  11.472  0.00  0.00    +0.000 N 
ATOM     21  H   UNL     1      43.265   1.430  12.298  0.00  0.00    +0.000 HD
ATOM     22  H   UNL     1      42.341   2.104  11.044  0.00  0.00    +0.000 HD
ENDBRANCH  10  20
ENDBRANCH   9  13
ENDBRANCH   7   9
ENDBRANCH   1   7
BRANCH   4  23
ATOM     23  C   UNL     1      51.498   8.593  13.411  0.00  0.00    +0.000 C 
BRANCH  23  24
ATOM     24  N   UNL     1      51.731   7.648  14.470  0.00  0.00    +0.000 N 
ATOM     25  C   UNL     1      51.898   8.102  15.757  0.00  0.00    +0.000 C 
ATOM     26  O   UNL     1      51.782   9.294  16.043  0.00  0.00    +0.000 OA
ATOM     27  H   UNL     1      52.073   6.728  14.212  0.00  0.00    +0.000 HD
BRANCH  25  28
ATOM     28  C   UNL     1      52.178   7.101  16.790  0.00  0.00    +0.000 A 
ATOM     29  C   UNL     1      53.386   7.145  17.473  0.00  0.00    +0.000 A 
ATOM     30  S   UNL     1      53.543   5.942  18.669  0.00  0.00    +0.000 S 
ATOM     31  C   UNL     1      52.021   5.282  18.278  0.00  0.00    +0.000 A 
ATOM     32  N   UNL     1      51.548   4.184  18.926  0.00  0.00    +0.000 NA
ATOM     33  C   UNL     1      50.406   3.767  18.499  0.00  0.00    +0.000 A 
ATOM     34  N   UNL     1      49.683   4.353  17.491  0.00  0.00    +0.000 N 
ATOM     35  C   UNL     1      50.107   5.485  16.834  0.00  0.00    +0.000 A 
ATOM     36  O   UNL     1      49.424   6.008  15.960  0.00  0.00    +0.000 OA
ATOM     37  C   UNL     1      51.399   5.984  17.262  0.00  0.00    +0.000 A 
ATOM     38  H   UNL     1      48.786   3.986  17.218  0.00  0.00    +0.000 HD
ENDBRANCH  25  28
ENDBRANCH  23  24
ENDBRANCH   4  23
TORSDOF 8
ENDMDL
MODEL 8
REMARK VINA RESULT:    -6.252      3.353      4.220
REMARK INTER + INTRA:         -10.421
REMARK INTER:                  -8.856
REMARK INTRA:                  -1.565
REMARK UNBOUND:                -1.427
REMARK  Name = 
REMARK  8 active torsions:
REMARK  status: ('A' for Active; 'I' for Inactive)
REMARK    1  A    between atoms: N_1  and  C_2
REMARK    2  A    between atoms: C_5  and  C_6
REMARK    3  A    between atoms: C_6  and  N_7
REMARK    4  A    between atoms: N_7  and  C_8
REMARK    5  A    between atoms: C_11  and  C_12
REMARK    6  A    between atoms: C_12  and  N_13
REMARK    7  A    between atoms: C_14  and  C_16
REMARK    8  A    between atoms: C_28  and  C_29
REMARK                            x       y       z     vdW  Elec       q    Type
REMARK                         _______ _______ _______ _____ _____    ______ ____
ROOT
ATOM      1  C   UNL     1      50.647   7.706  15.314  0.00  0.00    +0.000 A 
ATOM      2  C   UNL     1      50.915   8.370  14.112  0.00  0.00    +0.000 A 
ATOM      3  C   UNL     1      50.013   8.327  13.044  0.00  0.00    +0.000 A 
ATOM      4  C   UNL     1      48.820   7.608  13.154  0.00  0.00    +0.000 A 
ATOM      5  C   UNL     1      48.619   6.822  14.295  0.00  0.00    +0.000 A 
ATOM      6  C   UNL     1      49.526   6.870  15.362  0.00  0.00    +0.000 A 
ENDROOT
BRANCH   1   7
ATOM      7  N   UNL     1      51.454   7.874  16.452  0.00  0.00    +0.000 N 
ATOM      8  H   UNL     1      51.657   6.988  16.910  0.00  0.00    +0.000 HD
BRANCH   7   9
ATOM      9  C   UNL     1      50.999   8.884  17.420  0.00  0.00    +0.000 C 
BRANCH   9  13
ATOM     10  C   UNL     1      48.012   6.663  19.603  0.00  0.00    +0.000 A 
ATOM     11  C   UNL     1      49.351   6.282  19.629  0.00  0.00    +0.000 A 
ATOM     12  C   UNL     1      50.329   7.074  19.026  0.00  0.00    +0.000 A 
ATOM     13  C   UNL     1      49.979   8.250  18.342  0.00  0.00    +0.000 A 
ATOM     14  C   UNL     1      48.650   8.715  18.421  0.00  0.00    +0.000 A 
ATOM     15  C   UNL     1      47.676   7.881  19.010  0.00  0.00    +0.000 A 
BRANCH  14  16
ATOM     16  C   UNL     1      48.194  10.047  17.871  0.00  0.00    +0.000 C 
ATOM     17  F   UNL     1      46.986  10.487  18.321  0.00  0.00    +0.000 F 
ATOM     18  F   UNL     1      49.074  11.060  18.106  0.00  0.00    +0.000 F 
ATOM     19  F   UNL     1      48.054   9.998  16.510  0.00  0.00    +0.000 F 
ENDBRANCH  14  16
BRANCH  10  20
ATOM     20  N   UNL     1      47.015   5.741  19.924  0.00  0.00    +0.000 N 
ATOM     21  H   UNL     1      46.279   5.638  19.235  0.00  0.00    +0.000 HD
ATOM     22  H   UNL     1      47.343   4.858  20.302  0.00  0.00    +0.000 HD
ENDBRANCH  10  20
ENDBRANCH   9  13
ENDBRANCH   7   9
ENDBRANCH   1   7
BRANCH   4  23
ATOM     23  C   UNL     1      47.747   7.740  12.105  0.00  0.00    +0.000 C 
BRANCH  23  24
ATOM     24  N   UNL     1      47.055   6.512  11.826  0.00  0.00    +0.000 N 
ATOM     25  C   UNL     1      45.681   6.491  11.842  0.00  0.00    +0.000 C 
ATOM     26  O   UNL     1      45.020   7.514  12.020  0.00  0.00    +0.000 OA
ATOM     27  H   UNL     1      47.573   5.645  11.933  0.00  0.00    +0.000 HD
BRANCH  25  28
ATOM     28  C   UNL     1      45.025   5.203  11.596  0.00  0.00    +0.000 A 
ATOM     29  C   UNL     1      44.330   4.583  12.624  0.00  0.00    +0.000 A 
ATOM     30  S   UNL     1      43.592   3.117  12.170  0.00  0.00    +0.000 S 
ATOM     31  C   UNL     1      44.225   3.229  10.591  0.00  0.00    +0.000 A 
ATOM     32  N   UNL     1      43.988   2.254   9.672  0.00  0.00    +0.000 NA
ATOM     33  C   UNL     1      44.563   2.448   8.535  0.00  0.00    +0.000 A 
ATOM     34  N   UNL     1      45.344   3.531   8.223  0.00  0.00    +0.000 N 
ATOM     35  C   UNL     1      45.579   4.556   9.110  0.00  0.00    +0.000 A 
ATOM     36  O   UNL     1      46.253   5.531   8.793  0.00  0.00    +0.000 OA
ATOM     37  C   UNL     1      44.972   4.379  10.414  0.00  0.00    +0.000 A 
ATOM     38  H   UNL     1      45.750   3.629   7.306  0.00  0.00    +0.000 HD
ENDBRANCH  25  28
ENDBRANCH  23  24
ENDBRANCH   4  23
TORSDOF 8
ENDMDL
MODEL 9
REMARK VINA RESULT:    -6.101      4.817      8.989
REMARK INTER + INTRA:         -10.203
REMARK INTER:                  -8.882
REMARK INTRA:                  -1.321
REMARK UNBOUND:                -1.427
REMARK  Name = 
REMARK  8 active torsions:
REMARK  status: ('A' for Active; 'I' for Inactive)
REMARK    1  A    between atoms: N_1  and  C_2
REMARK    2  A    between atoms: C_5  and  C_6
REMARK    3  A    between atoms: C_6  and  N_7
REMARK    4  A    between atoms: N_7  and  C_8
REMARK    5  A    between atoms: C_11  and  C_12
REMARK    6  A    between atoms: C_12  and  N_13
REMARK    7  A    between atoms: C_14  and  C_16
REMARK    8  A    between atoms: C_28  and  C_29
REMARK                            x       y       z     vdW  Elec       q    Type
REMARK                         _______ _______ _______ _____ _____    ______ ____
ROOT
ATOM      1  C   UNL     1      47.298   4.823  14.705  0.00  0.00    +0.000 A 
ATOM      2  C   UNL     1      47.993   6.033  14.596  0.00  0.00    +0.000 A 
ATOM      3  C   UNL     1      48.748   6.533  15.662  0.00  0.00    +0.000 A 
ATOM      4  C   UNL     1      48.818   5.832  16.870  0.00  0.00    +0.000 A 
ATOM      5  C   UNL     1      48.006   4.704  17.033  0.00  0.00    +0.000 A 
ATOM      6  C   UNL     1      47.253   4.207  15.961  0.00  0.00    +0.000 A 
ENDROOT
BRANCH   1   7
ATOM      7  N   UNL     1      46.676   4.221  13.599  0.00  0.00    +0.000 N 
ATOM      8  H   UNL     1      47.103   4.505  12.719  0.00  0.00    +0.000 HD
BRANCH   7   9
ATOM      9  C   UNL     1      45.211   4.333  13.543  0.00  0.00    +0.000 C 
BRANCH   9  13
ATOM     10  C   UNL     1      44.479   3.907   9.311  0.00  0.00    +0.000 A 
ATOM     11  C   UNL     1      44.098   2.913  10.209  0.00  0.00    +0.000 A 
ATOM     12  C   UNL     1      44.223   3.111  11.586  0.00  0.00    +0.000 A 
ATOM     13  C   UNL     1      44.775   4.298  12.093  0.00  0.00    +0.000 A 
ATOM     14  C   UNL     1      45.041   5.361  11.206  0.00  0.00    +0.000 A 
ATOM     15  C   UNL     1      44.935   5.125   9.819  0.00  0.00    +0.000 A 
BRANCH  14  16
ATOM     16  C   UNL     1      45.476   6.737  11.653  0.00  0.00    +0.000 C 
ATOM     17  F   UNL     1      45.131   7.079  12.927  0.00  0.00    +0.000 F 
ATOM     18  F   UNL     1      46.820   6.937  11.561  0.00  0.00    +0.000 F 
ATOM     19  F   UNL     1      44.910   7.711  10.875  0.00  0.00    +0.000 F 
ENDBRANCH  14  16
BRANCH  10  20
ATOM     20  N   UNL     1      44.645   3.603   7.959  0.00  0.00    +0.000 N 
ATOM     21  H   UNL     1      44.354   2.672   7.684  0.00  0.00    +0.000 HD
ATOM     22  H   UNL     1      44.354   4.327   7.311  0.00  0.00    +0.000 HD
ENDBRANCH  10  20
ENDBRANCH   9  13
ENDBRANCH   7   9
ENDBRANCH   1   7
BRANCH   4  23
ATOM     23  C   UNL     1      49.800   6.241  17.936  0.00  0.00    +0.000 C 
BRANCH  23  24
ATOM     24  N   UNL     1      49.524   7.527  18.516  0.00  0.00    +0.000 N 
ATOM     25  C   UNL     1      48.599   7.629  19.527  0.00  0.00    +0.000 C 
ATOM     26  O   UNL     1      48.047   6.636  20.002  0.00  0.00    +0.000 OA
ATOM     27  H   UNL     1      49.772   8.350  17.975  0.00  0.00    +0.000 HD
BRANCH  25  28
ATOM     28  C   UNL     1      48.322   8.969  20.052  0.00  0.00    +0.000 A 
ATOM     29  C   UNL     1      48.361   9.188  21.421  0.00  0.00    +0.000 A 
ATOM     30  S   UNL     1      48.058  10.803  21.869  0.00  0.00    +0.000 S 
ATOM     31  C   UNL     1      47.806  11.259  20.246  0.00  0.00    +0.000 A 
ATOM     32  N   UNL     1      47.474  12.538  19.923  0.00  0.00    +0.000 NA
ATOM     33  C   UNL     1      47.271  12.731  18.665  0.00  0.00    +0.000 A 
ATOM     34  N   UNL     1      47.382  11.768  17.695  0.00  0.00    +0.000 N 
ATOM     35  C   UNL     1      47.751  10.473  17.973  0.00  0.00    +0.000 A 
ATOM     36  O   UNL     1      47.876   9.639  17.081  0.00  0.00    +0.000 OA
ATOM     37  C   UNL     1      47.970  10.195  19.379  0.00  0.00    +0.000 A 
ATOM     38  H   UNL     1      47.227  11.991  16.724  0.00  0.00    +0.000 HD
ENDBRANCH  25  28
ENDBRANCH  23  24
ENDBRANCH   4  23
TORSDOF 8
ENDMDL
