MODEL 1
REMARK VINA RESULT:    -8.152      0.000      0.000
REMARK INTER + INTRA:         -12.252
REMARK INTER:                 -11.012
REMARK INTRA:                  -1.241
REMARK UNBOUND:                -1.241
REMARK  Name = 
REMARK  6 active torsions:
REMARK  status: ('A' for Active; 'I' for Inactive)
REMARK    1  A    between atoms: C_2  and  C_25
REMARK    2  A    between atoms: N_3  and  C_4
REMARK    3  A    between atoms: C_4  and  C_5
REMARK    4  A    between atoms: C_8  and  C_9
REMARK    5  A    between atoms: C_9  and  N_10
REMARK    6  A    between atoms: C_11  and  C_13
REMARK                            x       y       z     vdW  Elec       q    Type
REMARK                         _______ _______ _______ _____ _____    ______ ____
ROOT
ATOM      1  C   UNL     1      44.892   5.537  10.757  0.00  0.00    +0.000 A 
ATOM      2  C   UNL     1      46.155   6.029  10.396  0.00  0.00    +0.000 A 
ATOM      3  C   UNL     1      46.862   6.877  11.256  0.00  0.00    +0.000 A 
ATOM      4  C   UNL     1      46.330   7.234  12.502  0.00  0.00    +0.000 A 
ATOM      5  C   UNL     1      45.064   6.749  12.857  0.00  0.00    +0.000 A 
ATOM      6  C   UNL     1      44.358   5.900  11.999  0.00  0.00    +0.000 A 
ENDROOT
BRANCH   1   7
ATOM      7  C   UNL     1      44.128   4.634   9.826  0.00  0.00    +0.000 C 
BRANCH   7  10
ATOM      8  O   UNL     1      45.240   2.100   9.677  0.00  0.00    +0.000 OA
ATOM      9  C   UNL     1      45.433   2.878   8.748  0.00  0.00    +0.000 C 
ATOM     10  N   UNL     1      44.943   4.166   8.727  0.00  0.00    +0.000 N 
ATOM     11  H   UNL     1      44.942   4.701   7.869  0.00  0.00    +0.000 HD
BRANCH   9  12
ATOM     12  C   UNL     1      46.197   2.426   7.557  0.00  0.00    +0.000 A 
ATOM     13  C   UNL     1      46.805   1.171   7.601  0.00  0.00    +0.000 A 
ATOM     14  C   UNL     1      47.537   0.765   6.502  0.00  0.00    +0.000 A 
ATOM     15  N   UNL     1      47.703   1.520   5.395  0.00  0.00    +0.000 NA
ATOM     16  C   UNL     1      47.121   2.738   5.390  0.00  0.00    +0.000 A 
ATOM     17  C   UNL     1      46.360   3.235   6.434  0.00  0.00    +0.000 A 
ENDBRANCH   9  12
ENDBRANCH   7  10
ENDBRANCH   1   7
BRANCH   4  18
ATOM     18  C   UNL     1      47.083   8.148  13.433  0.00  0.00    +0.000 C 
BRANCH  18  19
ATOM     19  N   UNL     1      47.502   7.460  14.628  0.00  0.00    +0.000 N 
ATOM     20  C   UNL     1      48.743   6.877  14.708  0.00  0.00    +0.000 C 
ATOM     21  O   UNL     1      49.558   6.960  13.794  0.00  0.00    +0.000 OA
ATOM     22  H   UNL     1      46.778   7.187  15.285  0.00  0.00    +0.000 HD
BRANCH  20  23
ATOM     23  C   UNL     1      49.074   6.202  15.970  0.00  0.00    +0.000 A 
ATOM     24  C   UNL     1      50.139   6.660  16.734  0.00  0.00    +0.000 A 
ATOM     25  S   UNL     1      50.356   5.802  18.193  0.00  0.00    +0.000 S 
ATOM     26  C   UNL     1      49.066   4.753  17.829  0.00  0.00    +0.000 A 
ATOM     27  N   UNL     1      48.727   3.743  18.675  0.00  0.00    +0.000 NA
ATOM     28  C   UNL     1      47.754   3.003  18.259  0.00  0.00    +0.000 A 
ATOM     29  N   UNL     1      47.087   3.184  17.076  0.00  0.00    +0.000 N 
ATOM     30  C   UNL     1      47.375   4.207  16.204  0.00  0.00    +0.000 A 
ATOM     31  O   UNL     1      46.731   4.367  15.172  0.00  0.00    +0.000 OA
ATOM     32  C   UNL     1      48.469   5.062  16.620  0.00  0.00    +0.000 A 
ATOM     33  H   UNL     1      46.328   2.572  16.811  0.00  0.00    +0.000 HD
ENDBRANCH  20  23
ENDBRANCH  18  19
ENDBRANCH   4  18
TORSDOF 6
ENDMDL
MODEL 2
REMARK VINA RESULT:    -7.845      2.406      2.830
REMARK INTER + INTRA:         -11.837
REMARK INTER:                 -10.819
REMARK INTRA:                  -1.017
REMARK UNBOUND:                -1.241
REMARK  Name = 
REMARK  6 active torsions:
REMARK  status: ('A' for Active; 'I' for Inactive)
REMARK    1  A    between atoms: C_2  and  C_25
REMARK    2  A    between atoms: N_3  and  C_4
REMARK    3  A    between atoms: C_4  and  C_5
REMARK    4  A    between atoms: C_8  and  C_9
REMARK    5  A    between atoms: C_9  and  N_10
REMARK    6  A    between atoms: C_11  and  C_13
REMARK                            x       y       z     vdW  Elec       q    Type
REMARK                         _______ _______ _______ _____ _____    ______ ____
ROOT
ATOM      1  C   UNL     1      45.434   4.613  11.774  0.00  0.00    +0.000 A 
ATOM      2  C   UNL     1      45.909   4.090  12.985  0.00  0.00    +0.000 A 
ATOM      3  C   UNL     1      46.812   4.816  13.769  0.00  0.00    +0.000 A 
ATOM      4  C   UNL     1      47.244   6.087  13.367  0.00  0.00    +0.000 A 
ATOM      5  C   UNL     1      46.776   6.604  12.151  0.00  0.00    +0.000 A 
ATOM      6  C   UNL     1      45.871   5.880  11.369  0.00  0.00    +0.000 A 
ENDROOT
BRANCH   1   7
ATOM      7  C   UNL     1      44.470   3.826  10.926  0.00  0.00    +0.000 C 
BRANCH   7  10
ATOM      8  O   UNL     1      44.956   4.622   8.317  0.00  0.00    +0.000 OA
ATOM      9  C   UNL     1      45.351   3.516   8.673  0.00  0.00    +0.000 C 
ATOM     10  N   UNL     1      45.146   3.013   9.941  0.00  0.00    +0.000 N 
ATOM     11  H   UNL     1      45.657   2.201  10.259  0.00  0.00    +0.000 HD
BRANCH   9  12
ATOM     12  C   UNL     1      46.120   2.670   7.726  0.00  0.00    +0.000 A 
ATOM     13  C   UNL     1      46.360   1.340   8.075  0.00  0.00    +0.000 A 
ATOM     14  C   UNL     1      47.099   0.563   7.204  0.00  0.00    +0.000 A 
ATOM     15  N   UNL     1      47.609   1.024   6.042  0.00  0.00    +0.000 NA
ATOM     16  C   UNL     1      47.379   2.319   5.741  0.00  0.00    +0.000 A 
ATOM     17  C   UNL     1      46.643   3.179   6.539  0.00  0.00    +0.000 A 
ENDBRANCH   9  12
ENDBRANCH   7  10
ENDBRANCH   1   7
BRANCH   4  18
ATOM     18  C   UNL     1      48.219   6.875  14.203  0.00  0.00    +0.000 C 
BRANCH  18  19
ATOM     19  N   UNL     1      48.038   6.620  15.610  0.00  0.00    +0.000 N 
ATOM     20  C   UNL     1      49.099   6.258  16.403  0.00  0.00    +0.000 C 
ATOM     21  O   UNL     1      50.243   6.187  15.963  0.00  0.00    +0.000 OA
ATOM     22  H   UNL     1      47.092   6.450  15.933  0.00  0.00    +0.000 HD
BRANCH  20  23
ATOM     23  C   UNL     1      48.811   6.023  17.824  0.00  0.00    +0.000 A 
ATOM     24  C   UNL     1      49.062   4.774  18.378  0.00  0.00    +0.000 A 
ATOM     25  S   UNL     1      48.724   4.683  20.047  0.00  0.00    +0.000 S 
ATOM     26  C   UNL     1      48.178   6.294  20.078  0.00  0.00    +0.000 A 
ATOM     27  N   UNL     1      47.713   6.852  21.229  0.00  0.00    +0.000 NA
ATOM     28  C   UNL     1      47.298   8.068  21.101  0.00  0.00    +0.000 A 
ATOM     29  N   UNL     1      47.310   8.779  19.930  0.00  0.00    +0.000 N 
ATOM     30  C   UNL     1      47.799   8.267  18.751  0.00  0.00    +0.000 A 
ATOM     31  O   UNL     1      47.834   8.944  17.728  0.00  0.00    +0.000 OA
ATOM     32  C   UNL     1      48.267   6.898  18.836  0.00  0.00    +0.000 A 
ATOM     33  H   UNL     1      46.978   9.732  19.899  0.00  0.00    +0.000 HD
ENDBRANCH  20  23
ENDBRANCH  18  19
ENDBRANCH   4  18
TORSDOF 6
ENDMDL
MODEL 3
REMARK VINA RESULT:    -7.760      1.576      1.716
REMARK INTER + INTRA:         -11.723
REMARK INTER:                 -10.826
REMARK INTRA:                  -0.897
REMARK UNBOUND:                -1.241
REMARK  Name = 
REMARK  6 active torsions:
REMARK  status: ('A' for Active; 'I' for Inactive)
REMARK    1  A    between atoms: C_2  and  C_25
REMARK    2  A    between atoms: N_3  and  C_4
REMARK    3  A    between atoms: C_4  and  C_5
REMARK    4  A    between atoms: C_8  and  C_9
REMARK    5  A    between atoms: C_9  and  N_10
REMARK    6  A    between atoms: C_11  and  C_13
REMARK                            x       y       z     vdW  Elec       q    Type
REMARK                         _______ _______ _______ _____ _____    ______ ____
ROOT
ATOM      1  C   UNL     1      45.458   4.690  11.700  0.00  0.00    +0.000 A 
ATOM      2  C   UNL     1      45.665   5.950  11.120  0.00  0.00    +0.000 A 
ATOM      3  C   UNL     1      46.462   6.907  11.758  0.00  0.00    +0.000 A 
ATOM      4  C   UNL     1      47.085   6.616  12.980  0.00  0.00    +0.000 A 
ATOM      5  C   UNL     1      46.870   5.361  13.563  0.00  0.00    +0.000 A 
ATOM      6  C   UNL     1      46.074   4.404  12.924  0.00  0.00    +0.000 A 
ENDROOT
BRANCH   1   7
ATOM      7  C   UNL     1      44.592   3.666  11.018  0.00  0.00    +0.000 C 
BRANCH   7  10
ATOM      8  O   UNL     1      44.494   4.249   8.310  0.00  0.00    +0.000 OA
ATOM      9  C   UNL     1      45.204   3.319   8.682  0.00  0.00    +0.000 C 
ATOM     10  N   UNL     1      45.312   2.932  10.001  0.00  0.00    +0.000 N 
ATOM     11  H   UNL     1      46.052   2.309  10.294  0.00  0.00    +0.000 HD
BRANCH   9  12
ATOM     12  C   UNL     1      46.026   2.580   7.692  0.00  0.00    +0.000 A 
ATOM     13  C   UNL     1      46.406   1.271   7.993  0.00  0.00    +0.000 A 
ATOM     14  C   UNL     1      47.193   0.596   7.082  0.00  0.00    +0.000 A 
ATOM     15  N   UNL     1      47.622   1.137   5.921  0.00  0.00    +0.000 NA
ATOM     16  C   UNL     1      47.257   2.411   5.665  0.00  0.00    +0.000 A 
ATOM     17  C   UNL     1      46.463   3.171   6.507  0.00  0.00    +0.000 A 
ENDBRANCH   9  12
ENDBRANCH   7  10
ENDBRANCH   1   7
BRANCH   4  18
ATOM     18  C   UNL     1      47.943   7.641  13.675  0.00  0.00    +0.000 C 
BRANCH  18  19
ATOM     19  N   UNL     1      47.908   7.480  15.107  0.00  0.00    +0.000 N 
ATOM     20  C   UNL     1      49.002   7.010  15.791  0.00  0.00    +0.000 C 
ATOM     21  O   UNL     1      50.061   6.758  15.224  0.00  0.00    +0.000 OA
ATOM     22  H   UNL     1      46.995   7.460  15.549  0.00  0.00    +0.000 HD
BRANCH  20  23
ATOM     23  C   UNL     1      48.865   6.883  17.247  0.00  0.00    +0.000 A 
ATOM     24  C   UNL     1      48.783   8.027  18.031  0.00  0.00    +0.000 A 
ATOM     25  S   UNL     1      48.572   7.706  19.693  0.00  0.00    +0.000 S 
ATOM     26  C   UNL     1      48.636   6.026  19.431  0.00  0.00    +0.000 A 
ATOM     27  N   UNL     1      48.539   5.152  20.470  0.00  0.00    +0.000 NA
ATOM     28  C   UNL     1      48.639   3.910  20.133  0.00  0.00    +0.000 A 
ATOM     29  N   UNL     1      48.822   3.461  18.851  0.00  0.00    +0.000 N 
ATOM     30  C   UNL     1      48.895   4.304  17.767  0.00  0.00    +0.000 A 
ATOM     31  O   UNL     1      49.018   3.869  16.627  0.00  0.00    +0.000 OA
ATOM     32  C   UNL     1      48.801   5.714  18.093  0.00  0.00    +0.000 A 
ATOM     33  H   UNL     1      48.885   2.473  18.652  0.00  0.00    +0.000 HD
ENDBRANCH  20  23
ENDBRANCH  18  19
ENDBRANCH   4  18
TORSDOF 6
ENDMDL
MODEL 4
REMARK VINA RESULT:    -7.714      3.354      5.996
REMARK INTER + INTRA:         -11.661
REMARK INTER:                 -10.648
REMARK INTRA:                  -1.014
REMARK UNBOUND:                -1.241
REMARK  Name = 
REMARK  6 active torsions:
REMARK  status: ('A' for Active; 'I' for Inactive)
REMARK    1  A    between atoms: C_2  and  C_25
REMARK    2  A    between atoms: N_3  and  C_4
REMARK    3  A    between atoms: C_4  and  C_5
REMARK    4  A    between atoms: C_8  and  C_9
REMARK    5  A    between atoms: C_9  and  N_10
REMARK    6  A    between atoms: C_11  and  C_13
REMARK                            x       y       z     vdW  Elec       q    Type
REMARK                         _______ _______ _______ _____ _____    ______ ____
ROOT
ATOM      1  C   UNL     1      46.829   2.152   6.717  0.00  0.00    +0.000 A 
ATOM      2  C   UNL     1      46.338   1.238   7.661  0.00  0.00    +0.000 A 
ATOM      3  C   UNL     1      45.589   1.680   8.757  0.00  0.00    +0.000 A 
ATOM      4  C   UNL     1      45.298   3.041   8.920  0.00  0.00    +0.000 A 
ATOM      5  C   UNL     1      45.796   3.953   7.981  0.00  0.00    +0.000 A 
ATOM      6  C   UNL     1      46.544   3.512   6.884  0.00  0.00    +0.000 A 
ENDROOT
BRANCH   1   7
ATOM      7  C   UNL     1      47.645   1.677   5.544  0.00  0.00    +0.000 C 
BRANCH   7  10
ATOM      8  O   UNL     1      46.666   0.877   3.078  0.00  0.00    +0.000 OA
ATOM      9  C   UNL     1      46.880   0.018   3.928  0.00  0.00    +0.000 C 
ATOM     10  N   UNL     1      47.348   0.306   5.192  0.00  0.00    +0.000 N 
ATOM     11  H   UNL     1      47.707  -0.429   5.786  0.00  0.00    +0.000 HD
BRANCH   9  12
ATOM     12  C   UNL     1      46.668  -1.414   3.596  0.00  0.00    +0.000 A 
ATOM     13  C   UNL     1      46.668  -2.341   4.639  0.00  0.00    +0.000 A 
ATOM     14  C   UNL     1      46.497  -3.674   4.324  0.00  0.00    +0.000 A 
ATOM     15  N   UNL     1      46.341  -4.129   3.062  0.00  0.00    +0.000 NA
ATOM     16  C   UNL     1      46.367  -3.213   2.071  0.00  0.00    +0.000 A 
ATOM     17  C   UNL     1      46.522  -1.852   2.281  0.00  0.00    +0.000 A 
ENDBRANCH   9  12
ENDBRANCH   7  10
ENDBRANCH   1   7
BRANCH   4  18
ATOM     18  C   UNL     1      44.493   3.526  10.099  0.00  0.00    +0.000 C 
BRANCH  18  19
ATOM     19  N   UNL     1      45.042   4.736  10.655  0.00  0.00    +0.000 N 
ATOM     20  C   UNL     1      44.229   5.680  11.233  0.00  0.00    +0.000 C 
ATOM     21  O   UNL     1      43.018   5.511  11.344  0.00  0.00    +0.000 OA
ATOM     22  H   UNL     1      45.983   4.992  10.371  0.00  0.00    +0.000 HD
BRANCH  20  23
ATOM     23  C   UNL     1      44.887   6.877  11.772  0.00  0.00    +0.000 A 
ATOM     24  C   UNL     1      44.473   8.135  11.353  0.00  0.00    +0.000 A 
ATOM     25  S   UNL     1      45.301   9.418  12.114  0.00  0.00    +0.000 S 
ATOM     26  C   UNL     1      46.280   8.337  12.991  0.00  0.00    +0.000 A 
ATOM     27  N   UNL     1      47.242   8.794  13.836  0.00  0.00    +0.000 NA
ATOM     28  C   UNL     1      47.934   7.866  14.409  0.00  0.00    +0.000 A 
ATOM     29  N   UNL     1      47.746   6.522  14.217  0.00  0.00    +0.000 N 
ATOM     30  C   UNL     1      46.767   6.014  13.397  0.00  0.00    +0.000 A 
ATOM     31  O   UNL     1      46.598   4.804  13.278  0.00  0.00    +0.000 OA
ATOM     32  C   UNL     1      45.969   7.016  12.718  0.00  0.00    +0.000 A 
ATOM     33  H   UNL     1      48.318   5.845  14.702  0.00  0.00    +0.000 HD
ENDBRANCH  20  23
ENDBRANCH  18  19
ENDBRANCH   4  18
TORSDOF 6
ENDMDL
MODEL 5
REMARK VINA RESULT:    -6.875      4.393      7.162
REMARK INTER + INTRA:         -10.528
REMARK INTER:                  -9.486
REMARK INTRA:                  -1.042
REMARK UNBOUND:                -1.241
REMARK  Name = 
REMARK  6 active torsions:
REMARK  status: ('A' for Active; 'I' for Inactive)
REMARK    1  A    between atoms: C_2  and  C_25
REMARK    2  A    between atoms: N_3  and  C_4
REMARK    3  A    between atoms: C_4  and  C_5
REMARK    4  A    between atoms: C_8  and  C_9
REMARK    5  A    between atoms: C_9  and  N_10
REMARK    6  A    between atoms: C_11  and  C_13
REMARK                            x       y       z     vdW  Elec       q    Type
REMARK                         _______ _______ _______ _____ _____    ______ ____
ROOT
ATOM      1  C   UNL     1      44.814   8.973  11.799  0.00  0.00    +0.000 A 
ATOM      2  C   UNL     1      45.834   8.849  12.754  0.00  0.00    +0.000 A 
ATOM      3  C   UNL     1      46.242   7.588  13.201  0.00  0.00    +0.000 A 
ATOM      4  C   UNL     1      45.654   6.424  12.688  0.00  0.00    +0.000 A 
ATOM      5  C   UNL     1      44.630   6.549  11.740  0.00  0.00    +0.000 A 
ATOM      6  C   UNL     1      44.222   7.810  11.292  0.00  0.00    +0.000 A 
ENDROOT
BRANCH   1   7
ATOM      7  C   UNL     1      44.368  10.330  11.327  0.00  0.00    +0.000 C 
BRANCH   7  10
ATOM      8  O   UNL     1      41.951  10.291   9.970  0.00  0.00    +0.000 OA
ATOM      9  C   UNL     1      41.956  10.647  11.145  0.00  0.00    +0.000 C 
ATOM     10  N   UNL     1      43.103  10.722  11.907  0.00  0.00    +0.000 N 
ATOM     11  H   UNL     1      43.046  10.815  12.912  0.00  0.00    +0.000 HD
BRANCH   9  12
ATOM     12  C   UNL     1      40.676  10.986  11.816  0.00  0.00    +0.000 A 
ATOM     13  C   UNL     1      39.511  10.358  11.371  0.00  0.00    +0.000 A 
ATOM     14  C   UNL     1      38.318  10.696  11.979  0.00  0.00    +0.000 A 
ATOM     15  N   UNL     1      38.217  11.606  12.971  0.00  0.00    +0.000 NA
ATOM     16  C   UNL     1      39.356  12.213  13.366  0.00  0.00    +0.000 A 
ATOM     17  C   UNL     1      40.604  11.940  12.830  0.00  0.00    +0.000 A 
ENDBRANCH   9  12
ENDBRANCH   7  10
ENDBRANCH   1   7
BRANCH   4  18
ATOM     18  C   UNL     1      46.087   5.062  13.165  0.00  0.00    +0.000 C 
BRANCH  18  19
ATOM     19  N   UNL     1      46.676   5.122  14.479  0.00  0.00    +0.000 N 
ATOM     20  C   UNL     1      47.297   4.026  15.025  0.00  0.00    +0.000 C 
ATOM     21  O   UNL     1      47.421   2.975  14.403  0.00  0.00    +0.000 OA
ATOM     22  H   UNL     1      46.387   5.885  15.083  0.00  0.00    +0.000 HD
BRANCH  20  23
ATOM     23  C   UNL     1      47.867   4.191  16.368  0.00  0.00    +0.000 A 
ATOM     24  C   UNL     1      47.501   3.314  17.381  0.00  0.00    +0.000 A 
ATOM     25  S   UNL     1      48.292   3.610  18.863  0.00  0.00    +0.000 S 
ATOM     26  C   UNL     1      49.112   4.954  18.218  0.00  0.00    +0.000 A 
ATOM     27  N   UNL     1      49.956   5.694  18.988  0.00  0.00    +0.000 NA
ATOM     28  C   UNL     1      50.483   6.705  18.382  0.00  0.00    +0.000 A 
ATOM     29  N   UNL     1      50.246   7.041  17.074  0.00  0.00    +0.000 N 
ATOM     30  C   UNL     1      49.426   6.307  16.251  0.00  0.00    +0.000 A 
ATOM     31  O   UNL     1      49.268   6.611  15.073  0.00  0.00    +0.000 OA
ATOM     32  C   UNL     1      48.799   5.165  16.887  0.00  0.00    +0.000 A 
ATOM     33  H   UNL     1      50.697   7.842  16.657  0.00  0.00    +0.000 HD
ENDBRANCH  20  23
ENDBRANCH  18  19
ENDBRANCH   4  18
TORSDOF 6
ENDMDL
MODEL 6
REMARK VINA RESULT:    -6.805      2.915      5.260
REMARK INTER + INTRA:         -10.432
REMARK INTER:                  -9.676
REMARK INTRA:                  -0.756
REMARK UNBOUND:                -1.241
REMARK  Name = 
REMARK  6 active torsions:
REMARK  status: ('A' for Active; 'I' for Inactive)
REMARK    1  A    between atoms: C_2  and  C_25
REMARK    2  A    between atoms: N_3  and  C_4
REMARK    3  A    between atoms: C_4  and  C_5
REMARK    4  A    between atoms: C_8  and  C_9
REMARK    5  A    between atoms: C_9  and  N_10
REMARK    6  A    between atoms: C_11  and  C_13
REMARK                            x       y       z     vdW  Elec       q    Type
REMARK                         _______ _______ _______ _____ _____    ______ ____
ROOT
ATOM      1  C   UNL     1      46.670   2.644   7.026  0.00  0.00    +0.000 A 
ATOM      2  C   UNL     1      46.371   3.990   7.283  0.00  0.00    +0.000 A 
ATOM      3  C   UNL     1      45.633   4.351   8.416  0.00  0.00    +0.000 A 
ATOM      4  C   UNL     1      45.198   3.377   9.324  0.00  0.00    +0.000 A 
ATOM      5  C   UNL     1      45.490   2.032   9.061  0.00  0.00    +0.000 A 
ATOM      6  C   UNL     1      46.228   1.671   7.930  0.00  0.00    +0.000 A 
ENDROOT
BRANCH   1   7
ATOM      7  C   UNL     1      47.454   2.255   5.801  0.00  0.00    +0.000 C 
BRANCH   7  10
ATOM      8  O   UNL     1      46.544   1.256   3.381  0.00  0.00    +0.000 OA
ATOM      9  C   UNL     1      46.881   0.460   4.252  0.00  0.00    +0.000 C 
ATOM     10  N   UNL     1      47.329   0.847   5.497  0.00  0.00    +0.000 N 
ATOM     11  H   UNL     1      47.788   0.183   6.106  0.00  0.00    +0.000 HD
BRANCH   9  12
ATOM     12  C   UNL     1      46.848  -0.997   3.968  0.00  0.00    +0.000 A 
ATOM     13  C   UNL     1      46.523  -1.866   5.011  0.00  0.00    +0.000 A 
ATOM     14  C   UNL     1      46.520  -3.222   4.750  0.00  0.00    +0.000 A 
ATOM     15  N   UNL     1      46.823  -3.751   3.545  0.00  0.00    +0.000 NA
ATOM     16  C   UNL     1      47.154  -2.889   2.561  0.00  0.00    +0.000 A 
ATOM     17  C   UNL     1      47.178  -1.513   2.716  0.00  0.00    +0.000 A 
ENDBRANCH   9  12
ENDBRANCH   7  10
ENDBRANCH   1   7
BRANCH   4  18
ATOM     18  C   UNL     1      44.401   3.758  10.546  0.00  0.00    +0.000 C 
BRANCH  18  19
ATOM     19  N   UNL     1      45.199   4.499  11.490  0.00  0.00    +0.000 N 
ATOM     20  C   UNL     1      45.819   3.868  12.540  0.00  0.00    +0.000 C 
ATOM     21  O   UNL     1      45.761   2.651  12.689  0.00  0.00    +0.000 OA
ATOM     22  H   UNL     1      45.070   5.506  11.517  0.00  0.00    +0.000 HD
BRANCH  20  23
ATOM     23  C   UNL     1      46.610   4.712  13.443  0.00  0.00    +0.000 A 
ATOM     24  C   UNL     1      46.798   4.319  14.762  0.00  0.00    +0.000 A 
ATOM     25  S   UNL     1      47.784   5.382  15.661  0.00  0.00    +0.000 S 
ATOM     26  C   UNL     1      47.952   6.433  14.334  0.00  0.00    +0.000 A 
ATOM     27  N   UNL     1      48.675   7.581  14.439  0.00  0.00    +0.000 NA
ATOM     28  C   UNL     1      48.690   8.302  13.368  0.00  0.00    +0.000 A 
ATOM     29  N   UNL     1      48.053   7.976  12.199  0.00  0.00    +0.000 N 
ATOM     30  C   UNL     1      47.337   6.814  12.037  0.00  0.00    +0.000 A 
ATOM     31  O   UNL     1      46.813   6.532  10.965  0.00  0.00    +0.000 OA
ATOM     32  C   UNL     1      47.279   5.973  13.217  0.00  0.00    +0.000 A 
ATOM     33  H   UNL     1      48.110   8.581  11.393  0.00  0.00    +0.000 HD
ENDBRANCH  20  23
ENDBRANCH  18  19
ENDBRANCH   4  18
TORSDOF 6
ENDMDL
MODEL 7
REMARK VINA RESULT:    -6.698      4.406      6.866
REMARK INTER + INTRA:         -10.288
REMARK INTER:                  -9.516
REMARK INTRA:                  -0.771
REMARK UNBOUND:                -1.241
REMARK  Name = 
REMARK  6 active torsions:
REMARK  status: ('A' for Active; 'I' for Inactive)
REMARK    1  A    between atoms: C_2  and  C_25
REMARK    2  A    between atoms: N_3  and  C_4
REMARK    3  A    between atoms: C_4  and  C_5
REMARK    4  A    between atoms: C_8  and  C_9
REMARK    5  A    between atoms: C_9  and  N_10
REMARK    6  A    between atoms: C_11  and  C_13
REMARK                            x       y       z     vdW  Elec       q    Type
REMARK                         _______ _______ _______ _____ _____    ______ ____
ROOT
ATOM      1  C   UNL     1      45.037   8.154  11.830  0.00  0.00    +0.000 A 
ATOM      2  C   UNL     1      44.295   6.967  11.735  0.00  0.00    +0.000 A 
ATOM      3  C   UNL     1      44.685   5.825  12.443  0.00  0.00    +0.000 A 
ATOM      4  C   UNL     1      45.813   5.851  13.274  0.00  0.00    +0.000 A 
ATOM      5  C   UNL     1      46.559   7.034  13.360  0.00  0.00    +0.000 A 
ATOM      6  C   UNL     1      46.168   8.177  12.654  0.00  0.00    +0.000 A 
ENDROOT
BRANCH   1   7
ATOM      7  C   UNL     1      44.623   9.379  11.060  0.00  0.00    +0.000 C 
BRANCH   7  10
ATOM      8  O   UNL     1      43.456  11.783  11.796  0.00  0.00    +0.000 OA
ATOM      9  C   UNL     1      42.723  10.849  11.484  0.00  0.00    +0.000 C 
ATOM     10  N   UNL     1      43.196   9.606  11.121  0.00  0.00    +0.000 N 
ATOM     11  H   UNL     1      42.585   8.934  10.676  0.00  0.00    +0.000 HD
BRANCH   9  12
ATOM     12  C   UNL     1      41.252  11.047  11.453  0.00  0.00    +0.000 A 
ATOM     13  C   UNL     1      40.572  10.766  10.267  0.00  0.00    +0.000 A 
ATOM     14  C   UNL     1      39.208  10.978  10.233  0.00  0.00    +0.000 A 
ATOM     15  N   UNL     1      38.500  11.451  11.281  0.00  0.00    +0.000 NA
ATOM     16  C   UNL     1      39.186  11.734  12.408  0.00  0.00    +0.000 A 
ATOM     17  C   UNL     1      40.552  11.549  12.549  0.00  0.00    +0.000 A 
ENDBRANCH   9  12
ENDBRANCH   7  10
ENDBRANCH   1   7
BRANCH   4  18
ATOM     18  C   UNL     1      46.242   4.624  14.038  0.00  0.00    +0.000 C 
BRANCH  18  19
ATOM     19  N   UNL     1      47.339   4.910  14.927  0.00  0.00    +0.000 N 
ATOM     20  C   UNL     1      47.390   4.358  16.184  0.00  0.00    +0.000 C 
ATOM     21  O   UNL     1      46.539   3.566  16.579  0.00  0.00    +0.000 OA
ATOM     22  H   UNL     1      47.912   5.720  14.713  0.00  0.00    +0.000 HD
BRANCH  20  23
ATOM     23  C   UNL     1      48.551   4.710  17.012  0.00  0.00    +0.000 A 
ATOM     24  C   UNL     1      48.629   5.974  17.582  0.00  0.00    +0.000 A 
ATOM     25  S   UNL     1      50.010   6.203  18.557  0.00  0.00    +0.000 S 
ATOM     26  C   UNL     1      50.580   4.638  18.209  0.00  0.00    +0.000 A 
ATOM     27  N   UNL     1      51.759   4.194  18.723  0.00  0.00    +0.000 NA
ATOM     28  C   UNL     1      52.088   3.002  18.349  0.00  0.00    +0.000 A 
ATOM     29  N   UNL     1      51.343   2.213  17.512  0.00  0.00    +0.000 N 
ATOM     30  C   UNL     1      50.133   2.608  16.994  0.00  0.00    +0.000 A 
ATOM     31  O   UNL     1      49.470   1.861  16.280  0.00  0.00    +0.000 OA
ATOM     32  C   UNL     1      49.722   3.946  17.373  0.00  0.00    +0.000 A 
ATOM     33  H   UNL     1      51.654   1.285  17.264  0.00  0.00    +0.000 HD
ENDBRANCH  20  23
ENDBRANCH  18  19
ENDBRANCH   4  18
TORSDOF 6
ENDMDL
MODEL 8
REMARK VINA RESULT:    -6.623      3.653      8.572
REMARK INTER + INTRA:         -10.187
REMARK INTER:                  -9.188
REMARK INTRA:                  -0.999
REMARK UNBOUND:                -1.241
REMARK  Name = 
REMARK  6 active torsions:
REMARK  status: ('A' for Active; 'I' for Inactive)
REMARK    1  A    between atoms: C_2  and  C_25
REMARK    2  A    between atoms: N_3  and  C_4
REMARK    3  A    between atoms: C_4  and  C_5
REMARK    4  A    between atoms: C_8  and  C_9
REMARK    5  A    between atoms: C_9  and  N_10
REMARK    6  A    between atoms: C_11  and  C_13
REMARK                            x       y       z     vdW  Elec       q    Type
REMARK                         _______ _______ _______ _____ _____    ______ ____
ROOT
ATOM      1  C   UNL     1      49.632   6.401  16.511  0.00  0.00    +0.000 A 
ATOM      2  C   UNL     1      50.477   7.251  15.783  0.00  0.00    +0.000 A 
ATOM      3  C   UNL     1      50.143   7.644  14.482  0.00  0.00    +0.000 A 
ATOM      4  C   UNL     1      48.949   7.211  13.890  0.00  0.00    +0.000 A 
ATOM      5  C   UNL     1      48.111   6.354  14.615  0.00  0.00    +0.000 A 
ATOM      6  C   UNL     1      48.443   5.962  15.916  0.00  0.00    +0.000 A 
ENDROOT
BRANCH   1   7
ATOM      7  C   UNL     1      49.997   5.970  17.906  0.00  0.00    +0.000 C 
BRANCH   7  10
ATOM      8  O   UNL     1      49.670   3.219  17.811  0.00  0.00    +0.000 OA
ATOM      9  C   UNL     1      50.811   3.671  17.849  0.00  0.00    +0.000 C 
ATOM     10  N   UNL     1      51.087   5.021  17.917  0.00  0.00    +0.000 N 
ATOM     11  H   UNL     1      52.022   5.362  17.739  0.00  0.00    +0.000 HD
BRANCH   9  12
ATOM     12  C   UNL     1      51.970   2.746  17.784  0.00  0.00    +0.000 A 
ATOM     13  C   UNL     1      53.250   3.278  17.952  0.00  0.00    +0.000 A 
ATOM     14  C   UNL     1      54.327   2.420  17.863  0.00  0.00    +0.000 A 
ATOM     15  N   UNL     1      54.210   1.098  17.615  0.00  0.00    +0.000 NA
ATOM     16  C   UNL     1      52.963   0.614  17.436  0.00  0.00    +0.000 A 
ATOM     17  C   UNL     1      51.816   1.388  17.514  0.00  0.00    +0.000 A 
ENDBRANCH   9  12
ENDBRANCH   7  10
ENDBRANCH   1   7
BRANCH   4  18
ATOM     18  C   UNL     1      48.583   7.627  12.489  0.00  0.00    +0.000 C 
BRANCH  18  19
ATOM     19  N   UNL     1      47.809   6.613  11.819  0.00  0.00    +0.000 N 
ATOM     20  C   UNL     1      46.471   6.797  11.570  0.00  0.00    +0.000 C 
ATOM     21  O   UNL     1      45.896   7.842  11.859  0.00  0.00    +0.000 OA
ATOM     22  H   UNL     1      48.200   5.677  11.784  0.00  0.00    +0.000 HD
BRANCH  20  23
ATOM     23  C   UNL     1      45.772   5.704  10.881  0.00  0.00    +0.000 A 
ATOM     24  C   UNL     1      45.874   5.588   9.500  0.00  0.00    +0.000 A 
ATOM     25  S   UNL     1      45.049   4.237   8.863  0.00  0.00    +0.000 S 
ATOM     26  C   UNL     1      44.483   3.790  10.404  0.00  0.00    +0.000 A 
ATOM     27  N   UNL     1      43.680   2.703  10.565  0.00  0.00    +0.000 NA
ATOM     28  C   UNL     1      43.295   2.500  11.780  0.00  0.00    +0.000 A 
ATOM     29  N   UNL     1      43.645   3.281  12.851  0.00  0.00    +0.000 N 
ATOM     30  C   UNL     1      44.477   4.369  12.741  0.00  0.00    +0.000 A 
ATOM     31  O   UNL     1      44.805   5.024  13.726  0.00  0.00    +0.000 OA
ATOM     32  C   UNL     1      44.929   4.649  11.392  0.00  0.00    +0.000 A 
ATOM     33  H   UNL     1      43.315   3.063  13.780  0.00  0.00    +0.000 HD
ENDBRANCH  20  23
ENDBRANCH  18  19
ENDBRANCH   4  18
TORSDOF 6
ENDMDL
MODEL 9
REMARK VINA RESULT:    -6.219      4.588      7.218
REMARK INTER + INTRA:          -9.642
REMARK INTER:                  -8.721
REMARK INTRA:                  -0.920
REMARK UNBOUND:                -1.241
REMARK  Name = 
REMARK  6 active torsions:
REMARK  status: ('A' for Active; 'I' for Inactive)
REMARK    1  A    between atoms: C_2  and  C_25
REMARK    2  A    between atoms: N_3  and  C_4
REMARK    3  A    between atoms: C_4  and  C_5
REMARK    4  A    between atoms: C_8  and  C_9
REMARK    5  A    between atoms: C_9  and  N_10
REMARK    6  A    between atoms: C_11  and  C_13
REMARK                            x       y       z     vdW  Elec       q    Type
REMARK                         _______ _______ _______ _____ _____    ______ ____
ROOT
ATOM      1  C   UNL     1      44.457   9.550  11.645  0.00  0.00    +0.000 A 
ATOM      2  C   UNL     1      43.975   8.350  11.101  0.00  0.00    +0.000 A 
ATOM      3  C   UNL     1      44.488   7.119  11.523  0.00  0.00    +0.000 A 
ATOM      4  C   UNL     1      45.479   7.061  12.512  0.00  0.00    +0.000 A 
ATOM      5  C   UNL     1      45.966   8.260  13.048  0.00  0.00    +0.000 A 
ATOM      6  C   UNL     1      45.452   9.491  12.628  0.00  0.00    +0.000 A 
ENDROOT
BRANCH   1   7
ATOM      7  C   UNL     1      43.912  10.874  11.182  0.00  0.00    +0.000 C 
BRANCH   7  10
ATOM      8  O   UNL     1      41.378  10.616  10.091  0.00  0.00    +0.000 OA
ATOM      9  C   UNL     1      41.480  11.046  11.236  0.00  0.00    +0.000 C 
ATOM     10  N   UNL     1      42.691  11.232  11.868  0.00  0.00    +0.000 N 
ATOM     11  H   UNL     1      42.730  11.387  12.866  0.00  0.00    +0.000 HD
BRANCH   9  12
ATOM     12  C   UNL     1      40.255  11.356  12.016  0.00  0.00    +0.000 A 
ATOM     13  C   UNL     1      40.387  12.126  13.173  0.00  0.00    +0.000 A 
ATOM     14  C   UNL     1      39.250  12.390  13.911  0.00  0.00    +0.000 A 
ATOM     15  N   UNL     1      38.023  11.935  13.579  0.00  0.00    +0.000 NA
ATOM     16  C   UNL     1      37.929  11.175  12.468  0.00  0.00    +0.000 A 
ATOM     17  C   UNL     1      39.004  10.861  11.654  0.00  0.00    +0.000 A 
ENDBRANCH   9  12
ENDBRANCH   7  10
ENDBRANCH   1   7
BRANCH   4  18
ATOM     18  C   UNL     1      46.039   5.739  12.972  0.00  0.00    +0.000 C 
BRANCH  18  19
ATOM     19  N   UNL     1      46.700   5.857  14.246  0.00  0.00    +0.000 N 
ATOM     20  C   UNL     1      48.065   5.991  14.323  0.00  0.00    +0.000 C 
ATOM     21  O   UNL     1      48.767   6.064  13.318  0.00  0.00    +0.000 OA
ATOM     22  H   UNL     1      46.179   5.572  15.069  0.00  0.00    +0.000 HD
BRANCH  20  23
ATOM     23  C   UNL     1      48.642   6.106  15.669  0.00  0.00    +0.000 A 
ATOM     24  C   UNL     1      49.551   7.121  15.941  0.00  0.00    +0.000 A 
ATOM     25  S   UNL     1      50.083   7.148  17.562  0.00  0.00    +0.000 S 
ATOM     26  C   UNL     1      49.158   5.772  17.944  0.00  0.00    +0.000 A 
ATOM     27  N   UNL     1      49.179   5.242  19.197  0.00  0.00    +0.000 NA
ATOM     28  C   UNL     1      48.459   4.180  19.339  0.00  0.00    +0.000 A 
ATOM     29  N   UNL     1      47.716   3.602  18.343  0.00  0.00    +0.000 N 
ATOM     30  C   UNL     1      47.640   4.119  17.071  0.00  0.00    +0.000 A 
ATOM     31  O   UNL     1      46.933   3.601  16.213  0.00  0.00    +0.000 OA
ATOM     32  C   UNL     1      48.441   5.308  16.855  0.00  0.00    +0.000 A 
ATOM     33  H   UNL     1      47.167   2.773  18.521  0.00  0.00    +0.000 HD
ENDBRANCH  20  23
ENDBRANCH  18  19
ENDBRANCH   4  18
TORSDOF 6
ENDMDL
