MODEL 1
REMARK VINA RESULT:    -7.673      0.000      0.000
REMARK INTER + INTRA:         -11.029
REMARK INTER:                  -9.916
REMARK INTRA:                  -1.113
REMARK UNBOUND:                -1.113
REMARK  Name = 
REMARK  6 active torsions:
REMARK  status: ('A' for Active; 'I' for Inactive)
REMARK    1  A    between atoms: C_1  and  C_2
REMARK    2  A    between atoms: C_7  and  C_8
REMARK    3  A    between atoms: C_8  and  C_9
REMARK    4  A    between atoms: C_12  and  C_13
REMARK    5  A    between atoms: C_13  and  N_14
REMARK    6  A    between atoms: C_15  and  C_17
REMARK                            x       y       z     vdW  Elec       q    Type
REMARK                         _______ _______ _______ _____ _____    ______ ____
ROOT
ATOM      1  C   UNL     1      47.734   8.551  14.012  0.00  0.00    +0.000 C 
ENDROOT
BRANCH   1   5
ATOM      2  C   UNL     1      45.114   6.555  11.286  0.00  0.00    +0.000 A 
ATOM      3  C   UNL     1      46.427   6.102  11.392  0.00  0.00    +0.000 A 
ATOM      4  C   UNL     1      47.310   6.767  12.248  0.00  0.00    +0.000 A 
ATOM      5  C   UNL     1      46.881   7.887  12.965  0.00  0.00    +0.000 A 
ATOM      6  C   UNL     1      45.589   8.334  12.706  0.00  0.00    +0.000 A 
ATOM      7  N   UNL     1      44.702   7.693  11.903  0.00  0.00    +0.000 NA
BRANCH   2   8
ATOM      8  C   UNL     1      44.056   5.691  10.611  0.00  0.00    +0.000 C 
BRANCH   8  15
ATOM      9  C   UNL     1      43.413   2.790  11.525  0.00  0.00    +0.000 C 
ATOM     10  C   UNL     1      44.225   3.123  10.302  0.00  0.00    +0.000 A 
ATOM     11  C   UNL     1      44.709   2.039   9.541  0.00  0.00    +0.000 A 
ATOM     12  C   UNL     1      45.437   2.243   8.372  0.00  0.00    +0.000 A 
ATOM     13  C   UNL     1      45.697   3.537   7.941  0.00  0.00    +0.000 A 
ATOM     14  C   UNL     1      45.253   4.623   8.695  0.00  0.00    +0.000 A 
ATOM     15  C   UNL     1      44.535   4.442   9.894  0.00  0.00    +0.000 A 
ENDBRANCH   8  15
ENDBRANCH   2   8
ENDBRANCH   1   5
BRANCH   1  16
ATOM     16  N   UNL     1      47.982   7.710  15.157  0.00  0.00    +0.000 N 
ATOM     17  C   UNL     1      49.157   7.003  15.261  0.00  0.00    +0.000 C 
ATOM     18  O   UNL     1      50.063   7.108  14.441  0.00  0.00    +0.000 OA
ATOM     19  H   UNL     1      47.178   7.416  15.703  0.00  0.00    +0.000 HD
BRANCH  17  20
ATOM     20  C   UNL     1      49.302   6.164  16.463  0.00  0.00    +0.000 A 
ATOM     21  C   UNL     1      50.291   6.454  17.392  0.00  0.00    +0.000 A 
ATOM     22  S   UNL     1      50.300   5.398  18.733  0.00  0.00    +0.000 S 
ATOM     23  C   UNL     1      49.018   4.483  18.091  0.00  0.00    +0.000 A 
ATOM     24  N   UNL     1      48.547   3.384  18.741  0.00  0.00    +0.000 NA
ATOM     25  C   UNL     1      47.596   2.766  18.128  0.00  0.00    +0.000 A 
ATOM     26  N   UNL     1      47.060   3.156  16.923  0.00  0.00    +0.000 N 
ATOM     27  C   UNL     1      47.482   4.275  16.247  0.00  0.00    +0.000 A 
ATOM     28  O   UNL     1      46.949   4.633  15.202  0.00  0.00    +0.000 OA
ATOM     29  C   UNL     1      48.569   4.994  16.887  0.00  0.00    +0.000 A 
ATOM     30  H   UNL     1      46.302   2.639  16.503  0.00  0.00    +0.000 HD
ENDBRANCH  17  20
ENDBRANCH   1  16
TORSDOF 5
ENDMDL
MODEL 2
REMARK VINA RESULT:    -7.137      1.943      2.270
REMARK INTER + INTRA:         -10.336
REMARK INTER:                  -9.561
REMARK INTRA:                  -0.776
REMARK UNBOUND:                -1.113
REMARK  Name = 
REMARK  6 active torsions:
REMARK  status: ('A' for Active; 'I' for Inactive)
REMARK    1  A    between atoms: C_1  and  C_2
REMARK    2  A    between atoms: C_7  and  C_8
REMARK    3  A    between atoms: C_8  and  C_9
REMARK    4  A    between atoms: C_12  and  C_13
REMARK    5  A    between atoms: C_13  and  N_14
REMARK    6  A    between atoms: C_15  and  C_17
REMARK                            x       y       z     vdW  Elec       q    Type
REMARK                         _______ _______ _______ _____ _____    ______ ____
ROOT
ATOM      1  C   UNL     1      48.704   6.935  14.226  0.00  0.00    +0.000 C 
ENDROOT
BRANCH   1   5
ATOM      2  C   UNL     1      45.256   6.008  11.874  0.00  0.00    +0.000 A 
ATOM      3  C   UNL     1      45.945   7.189  11.602  0.00  0.00    +0.000 A 
ATOM      4  C   UNL     1      47.051   7.528  12.386  0.00  0.00    +0.000 A 
ATOM      5  C   UNL     1      47.439   6.704  13.445  0.00  0.00    +0.000 A 
ATOM      6  C   UNL     1      46.623   5.610  13.714  0.00  0.00    +0.000 A 
ATOM      7  N   UNL     1      45.561   5.241  12.953  0.00  0.00    +0.000 NA
BRANCH   2   8
ATOM      8  C   UNL     1      44.252   5.457  10.871  0.00  0.00    +0.000 C 
BRANCH   8  15
ATOM      9  C   UNL     1      43.573   2.450  11.280  0.00  0.00    +0.000 C 
ATOM     10  C   UNL     1      44.399   2.975  10.137  0.00  0.00    +0.000 A 
ATOM     11  C   UNL     1      44.880   2.029   9.208  0.00  0.00    +0.000 A 
ATOM     12  C   UNL     1      45.620   2.419   8.095  0.00  0.00    +0.000 A 
ATOM     13  C   UNL     1      45.895   3.764   7.889  0.00  0.00    +0.000 A 
ATOM     14  C   UNL     1      45.455   4.712   8.812  0.00  0.00    +0.000 A 
ATOM     15  C   UNL     1      44.725   4.341   9.958  0.00  0.00    +0.000 A 
ENDBRANCH   8  15
ENDBRANCH   2   8
ENDBRANCH   1   5
BRANCH   1  16
ATOM     16  N   UNL     1      48.469   7.167  15.630  0.00  0.00    +0.000 N 
ATOM     17  C   UNL     1      49.264   6.568  16.579  0.00  0.00    +0.000 C 
ATOM     18  O   UNL     1      50.238   5.882  16.283  0.00  0.00    +0.000 OA
ATOM     19  H   UNL     1      47.552   7.510  15.898  0.00  0.00    +0.000 HD
BRANCH  17  20
ATOM     20  C   UNL     1      48.928   6.861  17.982  0.00  0.00    +0.000 A 
ATOM     21  C   UNL     1      48.795   8.179  18.400  0.00  0.00    +0.000 A 
ATOM     22  S   UNL     1      48.379   8.333  20.048  0.00  0.00    +0.000 S 
ATOM     23  C   UNL     1      48.416   6.648  20.273  0.00  0.00    +0.000 A 
ATOM     24  N   UNL     1      48.180   6.099  21.496  0.00  0.00    +0.000 NA
ATOM     25  C   UNL     1      48.270   4.813  21.532  0.00  0.00    +0.000 A 
ATOM     26  N   UNL     1      48.565   4.020  20.448  0.00  0.00    +0.000 N 
ATOM     27  C   UNL     1      48.781   4.528  19.190  0.00  0.00    +0.000 A 
ATOM     28  O   UNL     1      48.986   3.795  18.228  0.00  0.00    +0.000 OA
ATOM     29  C   UNL     1      48.710   5.975  19.101  0.00  0.00    +0.000 A 
ATOM     30  H   UNL     1      48.603   3.016  20.538  0.00  0.00    +0.000 HD
ENDBRANCH  17  20
ENDBRANCH   1  16
TORSDOF 5
ENDMDL
MODEL 3
REMARK VINA RESULT:    -7.136      3.867      9.339
REMARK INTER + INTRA:         -10.334
REMARK INTER:                  -9.365
REMARK INTRA:                  -0.969
REMARK UNBOUND:                -1.113
REMARK  Name = 
REMARK  6 active torsions:
REMARK  status: ('A' for Active; 'I' for Inactive)
REMARK    1  A    between atoms: C_1  and  C_2
REMARK    2  A    between atoms: C_7  and  C_8
REMARK    3  A    between atoms: C_8  and  C_9
REMARK    4  A    between atoms: C_12  and  C_13
REMARK    5  A    between atoms: C_13  and  N_14
REMARK    6  A    between atoms: C_15  and  C_17
REMARK                            x       y       z     vdW  Elec       q    Type
REMARK                         _______ _______ _______ _____ _____    ______ ____
ROOT
ATOM      1  C   UNL     1      47.168   3.493  17.025  0.00  0.00    +0.000 C 
ENDROOT
BRANCH   1   5
ATOM      2  C   UNL     1      51.348   3.622  17.910  0.00  0.00    +0.000 A 
ATOM      3  C   UNL     1      50.822   2.449  17.375  0.00  0.00    +0.000 A 
ATOM      4  C   UNL     1      49.450   2.373  17.116  0.00  0.00    +0.000 A 
ATOM      5  C   UNL     1      48.619   3.456  17.418  0.00  0.00    +0.000 A 
ATOM      6  C   UNL     1      49.215   4.538  18.057  0.00  0.00    +0.000 A 
ATOM      7  N   UNL     1      50.547   4.650  18.295  0.00  0.00    +0.000 NA
BRANCH   2   8
ATOM      8  C   UNL     1      52.854   3.853  17.922  0.00  0.00    +0.000 C 
BRANCH   8  15
ATOM      9  C   UNL     1      54.568   1.346  17.260  0.00  0.00    +0.000 C 
ATOM     10  C   UNL     1      54.460   1.948  18.635  0.00  0.00    +0.000 A 
ATOM     11  C   UNL     1      55.191   1.323  19.667  0.00  0.00    +0.000 A 
ATOM     12  C   UNL     1      55.187   1.827  20.964  0.00  0.00    +0.000 A 
ATOM     13  C   UNL     1      54.452   2.967  21.257  0.00  0.00    +0.000 A 
ATOM     14  C   UNL     1      53.698   3.583  20.258  0.00  0.00    +0.000 A 
ATOM     15  C   UNL     1      53.666   3.079  18.943  0.00  0.00    +0.000 A 
ENDBRANCH   8  15
ENDBRANCH   2   8
ENDBRANCH   1   5
BRANCH   1  16
ATOM     16  N   UNL     1      46.881   4.472  16.006  0.00  0.00    +0.000 N 
ATOM     17  C   UNL     1      47.048   4.165  14.676  0.00  0.00    +0.000 C 
ATOM     18  O   UNL     1      47.368   3.043  14.296  0.00  0.00    +0.000 OA
ATOM     19  H   UNL     1      46.862   5.447  16.289  0.00  0.00    +0.000 HD
BRANCH  17  20
ATOM     20  C   UNL     1      46.741   5.242  13.719  0.00  0.00    +0.000 A 
ATOM     21  C   UNL     1      47.680   6.235  13.474  0.00  0.00    +0.000 A 
ATOM     22  S   UNL     1      47.170   7.386  12.322  0.00  0.00    +0.000 S 
ATOM     23  C   UNL     1      45.657   6.629  12.153  0.00  0.00    +0.000 A 
ATOM     24  N   UNL     1      44.706   7.141  11.325  0.00  0.00    +0.000 NA
ATOM     25  C   UNL     1      43.595   6.486  11.316  0.00  0.00    +0.000 A 
ATOM     26  N   UNL     1      43.350   5.352  12.054  0.00  0.00    +0.000 N 
ATOM     27  C   UNL     1      44.291   4.783  12.879  0.00  0.00    +0.000 A 
ATOM     28  O   UNL     1      44.067   3.739  13.483  0.00  0.00    +0.000 OA
ATOM     29  C   UNL     1      45.553   5.496  12.940  0.00  0.00    +0.000 A 
ATOM     30  H   UNL     1      42.465   4.874  11.989  0.00  0.00    +0.000 HD
ENDBRANCH  17  20
ENDBRANCH   1  16
TORSDOF 5
ENDMDL
MODEL 4
REMARK VINA RESULT:    -7.118      3.071      7.346
REMARK INTER + INTRA:         -10.311
REMARK INTER:                  -9.301
REMARK INTRA:                  -1.010
REMARK UNBOUND:                -1.113
REMARK  Name = 
REMARK  6 active torsions:
REMARK  status: ('A' for Active; 'I' for Inactive)
REMARK    1  A    between atoms: C_1  and  C_2
REMARK    2  A    between atoms: C_7  and  C_8
REMARK    3  A    between atoms: C_8  and  C_9
REMARK    4  A    between atoms: C_12  and  C_13
REMARK    5  A    between atoms: C_13  and  N_14
REMARK    6  A    between atoms: C_15  and  C_17
REMARK                            x       y       z     vdW  Elec       q    Type
REMARK                         _______ _______ _______ _____ _____    ______ ____
ROOT
ATOM      1  C   UNL     1      47.857   8.424  12.347  0.00  0.00    +0.000 C 
ENDROOT
BRANCH   1   5
ATOM      2  C   UNL     1      49.291   7.201  16.185  0.00  0.00    +0.000 A 
ATOM      3  C   UNL     1      48.527   8.363  16.103  0.00  0.00    +0.000 A 
ATOM      4  C   UNL     1      48.083   8.801  14.852  0.00  0.00    +0.000 A 
ATOM      5  C   UNL     1      48.427   8.091  13.699  0.00  0.00    +0.000 A 
ATOM      6  C   UNL     1      49.288   7.011  13.866  0.00  0.00    +0.000 A 
ATOM      7  N   UNL     1      49.711   6.547  15.070  0.00  0.00    +0.000 NA
BRANCH   2   8
ATOM      8  C   UNL     1      49.532   6.533  17.532  0.00  0.00    +0.000 C 
BRANCH   8  15
ATOM      9  C   UNL     1      47.343   4.361  17.136  0.00  0.00    +0.000 C 
ATOM     10  C   UNL     1      48.803   4.054  17.329  0.00  0.00    +0.000 A 
ATOM     11  C   UNL     1      49.177   2.694  17.324  0.00  0.00    +0.000 A 
ATOM     12  C   UNL     1      50.508   2.309  17.456  0.00  0.00    +0.000 A 
ATOM     13  C   UNL     1      51.494   3.276  17.597  0.00  0.00    +0.000 A 
ATOM     14  C   UNL     1      51.142   4.625  17.635  0.00  0.00    +0.000 A 
ATOM     15  C   UNL     1      49.800   5.040  17.528  0.00  0.00    +0.000 A 
ENDBRANCH   8  15
ENDBRANCH   2   8
ENDBRANCH   1   5
BRANCH   1  16
ATOM     16  N   UNL     1      47.314   7.276  11.663  0.00  0.00    +0.000 N 
ATOM     17  C   UNL     1      45.958   7.044  11.658  0.00  0.00    +0.000 C 
ATOM     18  O   UNL     1      45.156   7.825  12.159  0.00  0.00    +0.000 OA
ATOM     19  H   UNL     1      47.947   6.507  11.467  0.00  0.00    +0.000 HD
BRANCH  17  20
ATOM     20  C   UNL     1      45.511   5.836  10.944  0.00  0.00    +0.000 A 
ATOM     21  C   UNL     1      45.780   5.696   9.589  0.00  0.00    +0.000 A 
ATOM     22  S   UNL     1      45.214   4.227   8.929  0.00  0.00    +0.000 S 
ATOM     23  C   UNL     1      44.541   3.754  10.418  0.00  0.00    +0.000 A 
ATOM     24  N   UNL     1      43.862   2.581  10.538  0.00  0.00    +0.000 NA
ATOM     25  C   UNL     1      43.378   2.360  11.712  0.00  0.00    +0.000 A 
ATOM     26  N   UNL     1      43.522   3.205  12.788  0.00  0.00    +0.000 N 
ATOM     27  C   UNL     1      44.225   4.383  12.721  0.00  0.00    +0.000 A 
ATOM     28  O   UNL     1      44.387   5.091  13.710  0.00  0.00    +0.000 OA
ATOM     29  C   UNL     1      44.772   4.687  11.412  0.00  0.00    +0.000 A 
ATOM     30  H   UNL     1      43.134   2.966  13.688  0.00  0.00    +0.000 HD
ENDBRANCH  17  20
ENDBRANCH   1  16
TORSDOF 5
ENDMDL
MODEL 5
REMARK VINA RESULT:    -7.025      2.546      4.311
REMARK INTER + INTRA:         -10.190
REMARK INTER:                  -9.222
REMARK INTRA:                  -0.969
REMARK UNBOUND:                -1.113
REMARK  Name = 
REMARK  6 active torsions:
REMARK  status: ('A' for Active; 'I' for Inactive)
REMARK    1  A    between atoms: C_1  and  C_2
REMARK    2  A    between atoms: C_7  and  C_8
REMARK    3  A    between atoms: C_8  and  C_9
REMARK    4  A    between atoms: C_12  and  C_13
REMARK    5  A    between atoms: C_13  and  N_14
REMARK    6  A    between atoms: C_15  and  C_17
REMARK                            x       y       z     vdW  Elec       q    Type
REMARK                         _______ _______ _______ _____ _____    ______ ____
ROOT
ATOM      1  C   UNL     1      46.698   5.241  14.195  0.00  0.00    +0.000 C 
ENDROOT
BRANCH   1   5
ATOM      2  C   UNL     1      45.154   4.734  10.240  0.00  0.00    +0.000 A 
ATOM      3  C   UNL     1      45.873   5.893  10.526  0.00  0.00    +0.000 A 
ATOM      4  C   UNL     1      46.351   6.096  11.824  0.00  0.00    +0.000 A 
ATOM      5  C   UNL     1      46.085   5.156  12.823  0.00  0.00    +0.000 A 
ATOM      6  C   UNL     1      45.262   4.091  12.472  0.00  0.00    +0.000 A 
ATOM      7  N   UNL     1      44.808   3.854  11.215  0.00  0.00    +0.000 NA
BRANCH   2   8
ATOM      8  C   UNL     1      44.883   4.336   8.795  0.00  0.00    +0.000 C 
BRANCH   8  15
ATOM      9  C   UNL     1      44.548   1.268   9.170  0.00  0.00    +0.000 C 
ATOM     10  C   UNL     1      45.632   1.897   8.338  0.00  0.00    +0.000 A 
ATOM     11  C   UNL     1      46.536   1.024   7.698  0.00  0.00    +0.000 A 
ATOM     12  C   UNL     1      47.550   1.506   6.875  0.00  0.00    +0.000 A 
ATOM     13  C   UNL     1      47.681   2.874   6.676  0.00  0.00    +0.000 A 
ATOM     14  C   UNL     1      46.817   3.756   7.324  0.00  0.00    +0.000 A 
ATOM     15  C   UNL     1      45.798   3.294   8.180  0.00  0.00    +0.000 A 
ENDBRANCH   8  15
ENDBRANCH   2   8
ENDBRANCH   1   5
BRANCH   1  16
ATOM     16  N   UNL     1      47.511   6.418  14.380  0.00  0.00    +0.000 N 
ATOM     17  C   UNL     1      48.543   6.417  15.288  0.00  0.00    +0.000 C 
ATOM     18  O   UNL     1      48.865   5.414  15.916  0.00  0.00    +0.000 OA
ATOM     19  H   UNL     1      47.123   7.305  14.073  0.00  0.00    +0.000 HD
BRANCH  17  20
ATOM     20  C   UNL     1      49.300   7.675  15.409  0.00  0.00    +0.000 A 
ATOM     21  C   UNL     1      49.444   8.278  16.651  0.00  0.00    +0.000 A 
ATOM     22  S   UNL     1      50.370   9.711  16.611  0.00  0.00    +0.000 S 
ATOM     23  C   UNL     1      50.562   9.606  14.925  0.00  0.00    +0.000 A 
ATOM     24  N   UNL     1      51.240  10.563  14.236  0.00  0.00    +0.000 NA
ATOM     25  C   UNL     1      51.284  10.376  12.960  0.00  0.00    +0.000 A 
ATOM     26  N   UNL     1      50.718   9.306  12.308  0.00  0.00    +0.000 N 
ATOM     27  C   UNL     1      50.051   8.301  12.966  0.00  0.00    +0.000 A 
ATOM     28  O   UNL     1      49.604   7.328  12.367  0.00  0.00    +0.000 OA
ATOM     29  C   UNL     1      49.956   8.477  14.403  0.00  0.00    +0.000 A 
ATOM     30  H   UNL     1      50.803   9.207  11.308  0.00  0.00    +0.000 HD
ENDBRANCH  17  20
ENDBRANCH   1  16
TORSDOF 5
ENDMDL
MODEL 6
REMARK VINA RESULT:    -7.014      1.191      2.115
REMARK INTER + INTRA:         -10.177
REMARK INTER:                  -9.585
REMARK INTRA:                  -0.592
REMARK UNBOUND:                -1.113
REMARK  Name = 
REMARK  6 active torsions:
REMARK  status: ('A' for Active; 'I' for Inactive)
REMARK    1  A    between atoms: C_1  and  C_2
REMARK    2  A    between atoms: C_7  and  C_8
REMARK    3  A    between atoms: C_8  and  C_9
REMARK    4  A    between atoms: C_12  and  C_13
REMARK    5  A    between atoms: C_13  and  N_14
REMARK    6  A    between atoms: C_15  and  C_17
REMARK                            x       y       z     vdW  Elec       q    Type
REMARK                         _______ _______ _______ _____ _____    ______ ____
ROOT
ATOM      1  C   UNL     1      46.706   7.572  13.139  0.00  0.00    +0.000 C 
ENDROOT
BRANCH   1   5
ATOM      2  C   UNL     1      44.540   4.561  11.012  0.00  0.00    +0.000 A 
ATOM      3  C   UNL     1      44.035   5.859  11.019  0.00  0.00    +0.000 A 
ATOM      4  C   UNL     1      44.707   6.849  11.742  0.00  0.00    +0.000 A 
ATOM      5  C   UNL     1      45.856   6.527  12.468  0.00  0.00    +0.000 A 
ATOM      6  C   UNL     1      46.218   5.184  12.497  0.00  0.00    +0.000 A 
ATOM      7  N   UNL     1      45.602   4.208  11.783  0.00  0.00    +0.000 NA
BRANCH   2   8
ATOM      8  C   UNL     1      44.021   3.539  10.009  0.00  0.00    +0.000 C 
BRANCH   8  15
ATOM      9  C   UNL     1      46.067   5.197   8.356  0.00  0.00    +0.000 C 
ATOM     10  C   UNL     1      45.970   3.696   8.308  0.00  0.00    +0.000 A 
ATOM     11  C   UNL     1      46.873   3.024   7.458  0.00  0.00    +0.000 A 
ATOM     12  C   UNL     1      46.890   1.635   7.373  0.00  0.00    +0.000 A 
ATOM     13  C   UNL     1      46.003   0.888   8.136  0.00  0.00    +0.000 A 
ATOM     14  C   UNL     1      45.081   1.535   8.960  0.00  0.00    +0.000 A 
ATOM     15  C   UNL     1      45.028   2.940   9.045  0.00  0.00    +0.000 A 
ENDBRANCH   8  15
ENDBRANCH   2   8
ENDBRANCH   1   5
BRANCH   1  16
ATOM     16  N   UNL     1      47.234   7.142  14.410  0.00  0.00    +0.000 N 
ATOM     17  C   UNL     1      48.523   6.671  14.506  0.00  0.00    +0.000 C 
ATOM     18  O   UNL     1      49.294   6.666  13.552  0.00  0.00    +0.000 OA
ATOM     19  H   UNL     1      46.566   6.904  15.137  0.00  0.00    +0.000 HD
BRANCH  17  20
ATOM     20  C   UNL     1      48.957   6.245  15.848  0.00  0.00    +0.000 A 
ATOM     21  C   UNL     1      49.960   6.945  16.504  0.00  0.00    +0.000 A 
ATOM     22  S   UNL     1      50.318   6.330  18.056  0.00  0.00    +0.000 S 
ATOM     23  C   UNL     1      49.186   5.073  17.880  0.00  0.00    +0.000 A 
ATOM     24  N   UNL     1      49.015   4.143  18.858  0.00  0.00    +0.000 NA
ATOM     25  C   UNL     1      48.148   3.229  18.582  0.00  0.00    +0.000 A 
ATOM     26  N   UNL     1      47.422   3.167  17.415  0.00  0.00    +0.000 N 
ATOM     27  C   UNL     1      47.540   4.101  16.414  0.00  0.00    +0.000 A 
ATOM     28  O   UNL     1      46.841   4.055  15.408  0.00  0.00    +0.000 OA
ATOM     29  C   UNL     1      48.521   5.140  16.669  0.00  0.00    +0.000 A 
ATOM     30  H   UNL     1      46.744   2.436  17.267  0.00  0.00    +0.000 HD
ENDBRANCH  17  20
ENDBRANCH   1  16
TORSDOF 5
ENDMDL
MODEL 7
REMARK VINA RESULT:    -6.949      2.113      2.489
REMARK INTER + INTRA:         -10.092
REMARK INTER:                  -9.150
REMARK INTRA:                  -0.943
REMARK UNBOUND:                -1.113
REMARK  Name = 
REMARK  6 active torsions:
REMARK  status: ('A' for Active; 'I' for Inactive)
REMARK    1  A    between atoms: C_1  and  C_2
REMARK    2  A    between atoms: C_7  and  C_8
REMARK    3  A    between atoms: C_8  and  C_9
REMARK    4  A    between atoms: C_12  and  C_13
REMARK    5  A    between atoms: C_13  and  N_14
REMARK    6  A    between atoms: C_15  and  C_17
REMARK                            x       y       z     vdW  Elec       q    Type
REMARK                         _______ _______ _______ _____ _____    ______ ____
ROOT
ATOM      1  C   UNL     1      48.218   8.304  14.503  0.00  0.00    +0.000 C 
ENDROOT
BRANCH   1   5
ATOM      2  C   UNL     1      45.614   6.385  11.707  0.00  0.00    +0.000 A 
ATOM      3  C   UNL     1      46.592   5.616  12.336  0.00  0.00    +0.000 A 
ATOM      4  C   UNL     1      47.478   6.234  13.222  0.00  0.00    +0.000 A 
ATOM      5  C   UNL     1      47.396   7.610  13.451  0.00  0.00    +0.000 A 
ATOM      6  C   UNL     1      46.466   8.312  12.691  0.00  0.00    +0.000 A 
ATOM      7  N   UNL     1      45.574   7.736  11.845  0.00  0.00    +0.000 NA
BRANCH   2   8
ATOM      8  C   UNL     1      44.456   5.711  10.983  0.00  0.00    +0.000 C 
BRANCH   8  15
ATOM      9  C   UNL     1      43.445   2.810  11.460  0.00  0.00    +0.000 C 
ATOM     10  C   UNL     1      44.312   3.215  10.299  0.00  0.00    +0.000 A 
ATOM     11  C   UNL     1      44.673   2.203   9.386  0.00  0.00    +0.000 A 
ATOM     12  C   UNL     1      45.440   2.484   8.259  0.00  0.00    +0.000 A 
ATOM     13  C   UNL     1      45.863   3.784   8.022  0.00  0.00    +0.000 A 
ATOM     14  C   UNL     1      45.544   4.794   8.929  0.00  0.00    +0.000 A 
ATOM     15  C   UNL     1      44.789   4.531  10.089  0.00  0.00    +0.000 A 
ENDBRANCH   8  15
ENDBRANCH   2   8
ENDBRANCH   1   5
BRANCH   1  16
ATOM     16  N   UNL     1      48.094   7.701  15.807  0.00  0.00    +0.000 N 
ATOM     17  C   UNL     1      49.041   6.812  16.258  0.00  0.00    +0.000 C 
ATOM     18  O   UNL     1      50.056   6.551  15.618  0.00  0.00    +0.000 OA
ATOM     19  H   UNL     1      47.173   7.701  16.235  0.00  0.00    +0.000 HD
BRANCH  17  20
ATOM     20  C   UNL     1      48.810   6.245  17.598  0.00  0.00    +0.000 A 
ATOM     21  C   UNL     1      49.045   4.896  17.826  0.00  0.00    +0.000 A 
ATOM     22  S   UNL     1      48.751   4.415  19.437  0.00  0.00    +0.000 S 
ATOM     23  C   UNL     1      48.247   5.981  19.871  0.00  0.00    +0.000 A 
ATOM     24  N   UNL     1      47.816   6.254  21.132  0.00  0.00    +0.000 NA
ATOM     25  C   UNL     1      47.434   7.471  21.316  0.00  0.00    +0.000 A 
ATOM     26  N   UNL     1      47.454   8.451  20.351  0.00  0.00    +0.000 N 
ATOM     27  C   UNL     1      47.909   8.228  19.073  0.00  0.00    +0.000 A 
ATOM     28  O   UNL     1      47.970   9.133  18.247  0.00  0.00    +0.000 OA
ATOM     29  C   UNL     1      48.331   6.865  18.811  0.00  0.00    +0.000 A 
ATOM     30  H   UNL     1      47.159   9.391  20.563  0.00  0.00    +0.000 HD
ENDBRANCH  17  20
ENDBRANCH   1  16
TORSDOF 5
ENDMDL
MODEL 8
REMARK VINA RESULT:    -6.914      3.692      9.078
REMARK INTER + INTRA:         -10.047
REMARK INTER:                  -9.264
REMARK INTRA:                  -0.783
REMARK UNBOUND:                -1.113
REMARK  Name = 
REMARK  6 active torsions:
REMARK  status: ('A' for Active; 'I' for Inactive)
REMARK    1  A    between atoms: C_1  and  C_2
REMARK    2  A    between atoms: C_7  and  C_8
REMARK    3  A    between atoms: C_8  and  C_9
REMARK    4  A    between atoms: C_12  and  C_13
REMARK    5  A    between atoms: C_13  and  N_14
REMARK    6  A    between atoms: C_15  and  C_17
REMARK                            x       y       z     vdW  Elec       q    Type
REMARK                         _______ _______ _______ _____ _____    ______ ____
ROOT
ATOM      1  C   UNL     1      47.480   3.700  16.399  0.00  0.00    +0.000 C 
ENDROOT
BRANCH   1   5
ATOM      2  C   UNL     1      48.599   5.920  19.878  0.00  0.00    +0.000 A 
ATOM      3  C   UNL     1      49.576   5.164  19.233  0.00  0.00    +0.000 A 
ATOM      4  C   UNL     1      49.220   4.400  18.118  0.00  0.00    +0.000 A 
ATOM      5  C   UNL     1      47.895   4.379  17.677  0.00  0.00    +0.000 A 
ATOM      6  C   UNL     1      46.969   5.070  18.452  0.00  0.00    +0.000 A 
ATOM      7  N   UNL     1      47.290   5.843  19.522  0.00  0.00    +0.000 NA
BRANCH   2   8
ATOM      8  C   UNL     1      48.996   6.985  20.891  0.00  0.00    +0.000 C 
BRANCH   8  15
ATOM      9  C   UNL     1      48.759   9.147  18.669  0.00  0.00    +0.000 C 
ATOM     10  C   UNL     1      47.994   9.189  19.965  0.00  0.00    +0.000 A 
ATOM     11  C   UNL     1      47.123  10.281  20.159  0.00  0.00    +0.000 A 
ATOM     12  C   UNL     1      46.343  10.390  21.306  0.00  0.00    +0.000 A 
ATOM     13  C   UNL     1      46.418   9.409  22.285  0.00  0.00    +0.000 A 
ATOM     14  C   UNL     1      47.296   8.336  22.127  0.00  0.00    +0.000 A 
ATOM     15  C   UNL     1      48.114   8.216  20.986  0.00  0.00    +0.000 A 
ENDBRANCH   8  15
ENDBRANCH   2   8
ENDBRANCH   1   5
BRANCH   1  16
ATOM     16  N   UNL     1      46.767   4.574  15.500  0.00  0.00    +0.000 N 
ATOM     17  C   UNL     1      46.882   4.417  14.138  0.00  0.00    +0.000 C 
ATOM     18  O   UNL     1      47.522   3.500  13.633  0.00  0.00    +0.000 OA
ATOM     19  H   UNL     1      46.447   5.464  15.869  0.00  0.00    +0.000 HD
BRANCH  17  20
ATOM     20  C   UNL     1      46.124   5.371  13.311  0.00  0.00    +0.000 A 
ATOM     21  C   UNL     1      46.645   6.633  13.059  0.00  0.00    +0.000 A 
ATOM     22  S   UNL     1      45.647   7.597  12.064  0.00  0.00    +0.000 S 
ATOM     23  C   UNL     1      44.460   6.382  11.983  0.00  0.00    +0.000 A 
ATOM     24  N   UNL     1      43.300   6.582  11.299  0.00  0.00    +0.000 NA
ATOM     25  C   UNL     1      42.475   5.592  11.345  0.00  0.00    +0.000 A 
ATOM     26  N   UNL     1      42.710   4.408  12.005  0.00  0.00    +0.000 N 
ATOM     27  C   UNL     1      43.878   4.152  12.682  0.00  0.00    +0.000 A 
ATOM     28  O   UNL     1      44.087   3.067  13.215  0.00  0.00    +0.000 OA
ATOM     29  C   UNL     1      44.832   5.246  12.677  0.00  0.00    +0.000 A 
ATOM     30  H   UNL     1      42.031   3.663  11.988  0.00  0.00    +0.000 HD
ENDBRANCH  17  20
ENDBRANCH   1  16
TORSDOF 5
ENDMDL
MODEL 9
REMARK VINA RESULT:    -6.776      3.139      7.878
REMARK INTER + INTRA:          -9.870
REMARK INTER:                  -8.730
REMARK INTRA:                  -1.139
REMARK UNBOUND:                -1.113
REMARK  Name = 
REMARK  6 active torsions:
REMARK  status: ('A' for Active; 'I' for Inactive)
REMARK    1  A    between atoms: C_1  and  C_2
REMARK    2  A    between atoms: C_7  and  C_8
REMARK    3  A    between atoms: C_8  and  C_9
REMARK    4  A    between atoms: C_12  and  C_13
REMARK    5  A    between atoms: C_13  and  N_14
REMARK    6  A    between atoms: C_15  and  C_17
REMARK                            x       y       z     vdW  Elec       q    Type
REMARK                         _______ _______ _______ _____ _____    ______ ____
ROOT
ATOM      1  C   UNL     1      47.448   7.995  11.893  0.00  0.00    +0.000 C 
ENDROOT
BRANCH   1   5
ATOM      2  C   UNL     1      49.688   7.661  15.519  0.00  0.00    +0.000 A 
ATOM      3  C   UNL     1      48.520   8.421  15.531  0.00  0.00    +0.000 A 
ATOM      4  C   UNL     1      47.796   8.575  14.345  0.00  0.00    +0.000 A 
ATOM      5  C   UNL     1      48.257   7.993  13.161  0.00  0.00    +0.000 A 
ATOM      6  C   UNL     1      49.491   7.353  13.222  0.00  0.00    +0.000 A 
ATOM      7  N   UNL     1      50.202   7.164  14.363  0.00  0.00    +0.000 NA
BRANCH   2   8
ATOM      8  C   UNL     1      50.332   7.222  16.828  0.00  0.00    +0.000 C 
BRANCH   8  15
ATOM      9  C   UNL     1      52.960   5.645  17.350  0.00  0.00    +0.000 C 
ATOM     10  C   UNL     1      51.591   5.020  17.359  0.00  0.00    +0.000 A 
ATOM     11  C   UNL     1      51.521   3.637  17.626  0.00  0.00    +0.000 A 
ATOM     12  C   UNL     1      50.298   2.974  17.695  0.00  0.00    +0.000 A 
ATOM     13  C   UNL     1      49.120   3.681  17.498  0.00  0.00    +0.000 A 
ATOM     14  C   UNL     1      49.169   5.043  17.203  0.00  0.00    +0.000 A 
ATOM     15  C   UNL     1      50.394   5.732  17.104  0.00  0.00    +0.000 A 
ENDBRANCH   8  15
ENDBRANCH   2   8
ENDBRANCH   1   5
BRANCH   1  16
ATOM     16  N   UNL     1      46.777   6.742  11.647  0.00  0.00    +0.000 N 
ATOM     17  C   UNL     1      45.459   6.576  12.001  0.00  0.00    +0.000 C 
ATOM     18  O   UNL     1      44.782   7.489  12.463  0.00  0.00    +0.000 OA
ATOM     19  H   UNL     1      47.359   5.921  11.507  0.00  0.00    +0.000 HD
BRANCH  17  20
ATOM     20  C   UNL     1      44.875   5.253  11.719  0.00  0.00    +0.000 A 
ATOM     21  C   UNL     1      44.186   4.576  12.715  0.00  0.00    +0.000 A 
ATOM     22  S   UNL     1      43.556   3.072  12.208  0.00  0.00    +0.000 S 
ATOM     23  C   UNL     1      44.231   3.250  10.658  0.00  0.00    +0.000 A 
ATOM     24  N   UNL     1      44.092   2.275   9.718  0.00  0.00    +0.000 NA
ATOM     25  C   UNL     1      44.679   2.525   8.597  0.00  0.00    +0.000 A 
ATOM     26  N   UNL     1      45.386   3.673   8.324  0.00  0.00    +0.000 N 
ATOM     27  C   UNL     1      45.526   4.695   9.231  0.00  0.00    +0.000 A 
ATOM     28  O   UNL     1      46.113   5.733   8.943  0.00  0.00    +0.000 OA
ATOM     29  C   UNL     1      44.900   4.452  10.517  0.00  0.00    +0.000 A 
ATOM     30  H   UNL     1      45.807   3.817   7.419  0.00  0.00    +0.000 HD
ENDBRANCH  17  20
ENDBRANCH   1  16
TORSDOF 5
ENDMDL
