MODEL 1
REMARK VINA RESULT:    -8.011      0.000      0.000
REMARK INTER + INTRA:         -12.245
REMARK INTER:                 -11.289
REMARK INTRA:                  -0.956
REMARK UNBOUND:                -0.956
REMARK  Name = 
REMARK  9 active torsions:
REMARK  status: ('A' for Active; 'I' for Inactive)
REMARK    1  A    between atoms: C_1  and  C_2
REMARK    2  A    between atoms: C_2  and  N_3
REMARK    3  A    between atoms: C_2  and  C_11
REMARK    4  A    between atoms: N_3  and  C_4
REMARK    5  A    between atoms: C_4  and  C_5
REMARK    6  A    between atoms: C_14  and  C_15
REMARK    7  A    between atoms: C_15  and  N_16
REMARK    8  A    between atoms: N_16  and  C_17
REMARK    9  A    between atoms: C_18  and  C_20
REMARK                            x       y       z     vdW  Elec       q    Type
REMARK                         _______ _______ _______ _____ _____    ______ ____
ROOT
ATOM      1  C   UNL     1      44.514   5.374  11.112  0.00  0.00    +0.000 A 
ATOM      2  C   UNL     1      44.233   5.998  12.336  0.00  0.00    +0.000 A 
ATOM      3  C   UNL     1      45.138   6.895  12.919  0.00  0.00    +0.000 A 
ATOM      4  C   UNL     1      46.351   7.220  12.291  0.00  0.00    +0.000 A 
ATOM      5  C   UNL     1      46.615   6.643  11.044  0.00  0.00    +0.000 A 
ATOM      6  C   UNL     1      45.702   5.744  10.458  0.00  0.00    +0.000 A 
ENDROOT
BRANCH   1   8
ATOM      7  C   UNL     1      43.521   3.105  11.635  0.00  0.00    +0.000 C 
ATOM      8  C   UNL     1      43.586   4.257  10.618  0.00  0.00    +0.000 C 
BRANCH   8   9
ATOM      9  N   UNL     1      43.906   3.790   9.250  0.00  0.00    +0.000 NA
ATOM     10  H   UNL     1      43.030   3.678   8.739  0.00  0.00    +0.000 HD
BRANCH   9  11
ATOM     11  C   UNL     1      44.588   2.481   9.274  0.00  0.00    +0.000 C 
BRANCH  11  12
ATOM     12  C   UNL     1      45.718   2.312   8.283  0.00  0.00    +0.000 A 
ATOM     13  C   UNL     1      46.350   3.396   7.670  0.00  0.00    +0.000 A 
ATOM     14  C   UNL     1      47.459   3.160   6.869  0.00  0.00    +0.000 A 
ATOM     15  N   UNL     1      47.984   1.936   6.645  0.00  0.00    +0.000 NA
ATOM     16  C   UNL     1      47.376   0.900   7.256  0.00  0.00    +0.000 A 
ATOM     17  C   UNL     1      46.261   1.034   8.071  0.00  0.00    +0.000 A 
ENDBRANCH  11  12
ENDBRANCH   9  11
ENDBRANCH   8   9
ENDBRANCH   1   8
BRANCH   4  18
ATOM     18  C   UNL     1      47.302   8.219  12.928  0.00  0.00    +0.000 C 
BRANCH  18  19
ATOM     19  N   UNL     1      47.845   7.904  14.262  0.00  0.00    +0.000 N 
ATOM     20  C   UNL     1      47.768   8.926  15.299  0.00  0.00    +0.000 C 
ATOM     21  C   UNL     1      48.664   6.755  14.345  0.00  0.00    +0.000 C 
ATOM     22  O   UNL     1      48.843   6.044  13.357  0.00  0.00    +0.000 OA
BRANCH  21  23
ATOM     23  C   UNL     1      49.273   6.366  15.635  0.00  0.00    +0.000 A 
ATOM     24  C   UNL     1      50.400   6.967  16.176  0.00  0.00    +0.000 A 
ATOM     25  S   UNL     1      50.863   6.335  17.691  0.00  0.00    +0.000 S 
ATOM     26  C   UNL     1      49.482   5.348  17.760  0.00  0.00    +0.000 A 
ATOM     27  N   UNL     1      49.215   4.614  18.870  0.00  0.00    +0.000 NA
ATOM     28  C   UNL     1      48.106   3.956  18.815  0.00  0.00    +0.000 A 
ATOM     29  N   UNL     1      47.257   3.946  17.738  0.00  0.00    +0.000 N 
ATOM     30  C   UNL     1      47.553   4.569  16.541  0.00  0.00    +0.000 A 
ATOM     31  O   UNL     1      46.889   4.340  15.537  0.00  0.00    +0.000 OA
ATOM     32  C   UNL     1      48.734   5.420  16.597  0.00  0.00    +0.000 A 
ATOM     33  H   UNL     1      46.435   3.360  17.736  0.00  0.00    +0.000 HD
ENDBRANCH  21  23
ENDBRANCH  18  19
ENDBRANCH   4  18
TORSDOF 7
ENDMDL
MODEL 2
REMARK VINA RESULT:    -7.887      1.782      2.151
REMARK INTER + INTRA:         -12.070
REMARK INTER:                 -10.916
REMARK INTRA:                  -1.154
REMARK UNBOUND:                -0.956
REMARK  Name = 
REMARK  9 active torsions:
REMARK  status: ('A' for Active; 'I' for Inactive)
REMARK    1  A    between atoms: C_1  and  C_2
REMARK    2  A    between atoms: C_2  and  N_3
REMARK    3  A    between atoms: C_2  and  C_11
REMARK    4  A    between atoms: N_3  and  C_4
REMARK    5  A    between atoms: C_4  and  C_5
REMARK    6  A    between atoms: C_14  and  C_15
REMARK    7  A    between atoms: C_15  and  N_16
REMARK    8  A    between atoms: N_16  and  C_17
REMARK    9  A    between atoms: C_18  and  C_20
REMARK                            x       y       z     vdW  Elec       q    Type
REMARK                         _______ _______ _______ _____ _____    ______ ____
ROOT
ATOM      1  C   UNL     1      45.142   4.982  11.460  0.00  0.00    +0.000 A 
ATOM      2  C   UNL     1      45.861   6.012  10.837  0.00  0.00    +0.000 A 
ATOM      3  C   UNL     1      46.950   6.625  11.471  0.00  0.00    +0.000 A 
ATOM      4  C   UNL     1      47.377   6.217  12.744  0.00  0.00    +0.000 A 
ATOM      5  C   UNL     1      46.700   5.154  13.350  0.00  0.00    +0.000 A 
ATOM      6  C   UNL     1      45.607   4.537  12.710  0.00  0.00    +0.000 A 
ENDROOT
BRANCH   1   8
ATOM      7  C   UNL     1      43.254   3.301  11.595  0.00  0.00    +0.000 C 
ATOM      8  C   UNL     1      43.845   4.485  10.811  0.00  0.00    +0.000 C 
BRANCH   8   9
ATOM      9  N   UNL     1      43.986   4.194   9.365  0.00  0.00    +0.000 NA
ATOM     10  H   UNL     1      43.078   4.341   8.921  0.00  0.00    +0.000 HD
BRANCH   9  11
ATOM     11  C   UNL     1      44.381   2.791   9.135  0.00  0.00    +0.000 C 
BRANCH  11  12
ATOM     12  C   UNL     1      45.659   2.591   8.349  0.00  0.00    +0.000 A 
ATOM     13  C   UNL     1      46.210   1.329   8.119  0.00  0.00    +0.000 A 
ATOM     14  C   UNL     1      47.314   1.222   7.284  0.00  0.00    +0.000 A 
ATOM     15  N   UNL     1      47.895   2.270   6.660  0.00  0.00    +0.000 NA
ATOM     16  C   UNL     1      47.343   3.480   6.877  0.00  0.00    +0.000 A 
ATOM     17  C   UNL     1      46.243   3.689   7.697  0.00  0.00    +0.000 A 
ENDBRANCH  11  12
ENDBRANCH   9  11
ENDBRANCH   8   9
ENDBRANCH   1   8
BRANCH   4  18
ATOM     18  C   UNL     1      48.580   6.876  13.399  0.00  0.00    +0.000 C 
BRANCH  18  19
ATOM     19  N   UNL     1      48.391   7.508  14.716  0.00  0.00    +0.000 N 
ATOM     20  C   UNL     1      47.654   8.764  14.782  0.00  0.00    +0.000 C 
ATOM     21  C   UNL     1      49.194   7.008  15.767  0.00  0.00    +0.000 C 
ATOM     22  O   UNL     1      49.951   6.058  15.576  0.00  0.00    +0.000 OA
BRANCH  21  23
ATOM     23  C   UNL     1      49.093   7.590  17.123  0.00  0.00    +0.000 A 
ATOM     24  C   UNL     1      49.504   8.874  17.451  0.00  0.00    +0.000 A 
ATOM     25  S   UNL     1      49.241   9.289  19.084  0.00  0.00    +0.000 S 
ATOM     26  C   UNL     1      48.418   7.832  19.377  0.00  0.00    +0.000 A 
ATOM     27  N   UNL     1      47.832   7.602  20.579  0.00  0.00    +0.000 NA
ATOM     28  C   UNL     1      47.189   6.485  20.649  0.00  0.00    +0.000 A 
ATOM     29  N   UNL     1      47.107   5.566  19.633  0.00  0.00    +0.000 N 
ATOM     30  C   UNL     1      47.797   5.698  18.445  0.00  0.00    +0.000 A 
ATOM     31  O   UNL     1      47.887   4.754  17.668  0.00  0.00    +0.000 OA
ATOM     32  C   UNL     1      48.437   6.995  18.274  0.00  0.00    +0.000 A 
ATOM     33  H   UNL     1      46.640   4.683  19.775  0.00  0.00    +0.000 HD
ENDBRANCH  21  23
ENDBRANCH  18  19
ENDBRANCH   4  18
TORSDOF 7
ENDMDL
MODEL 3
REMARK VINA RESULT:    -7.625      2.122      3.009
REMARK INTER + INTRA:         -11.700
REMARK INTER:                 -10.315
REMARK INTRA:                  -1.385
REMARK UNBOUND:                -0.956
REMARK  Name = 
REMARK  9 active torsions:
REMARK  status: ('A' for Active; 'I' for Inactive)
REMARK    1  A    between atoms: C_1  and  C_2
REMARK    2  A    between atoms: C_2  and  N_3
REMARK    3  A    between atoms: C_2  and  C_11
REMARK    4  A    between atoms: N_3  and  C_4
REMARK    5  A    between atoms: C_4  and  C_5
REMARK    6  A    between atoms: C_14  and  C_15
REMARK    7  A    between atoms: C_15  and  N_16
REMARK    8  A    between atoms: N_16  and  C_17
REMARK    9  A    between atoms: C_18  and  C_20
REMARK                            x       y       z     vdW  Elec       q    Type
REMARK                         _______ _______ _______ _____ _____    ______ ____
ROOT
ATOM      1  C   UNL     1      44.907   5.762  11.888  0.00  0.00    +0.000 A 
ATOM      2  C   UNL     1      45.903   6.660  11.481  0.00  0.00    +0.000 A 
ATOM      3  C   UNL     1      47.083   6.820  12.219  0.00  0.00    +0.000 A 
ATOM      4  C   UNL     1      47.324   6.073  13.383  0.00  0.00    +0.000 A 
ATOM      5  C   UNL     1      46.359   5.135  13.766  0.00  0.00    +0.000 A 
ATOM      6  C   UNL     1      45.174   4.973  13.020  0.00  0.00    +0.000 A 
ENDROOT
BRANCH   1   8
ATOM      7  C   UNL     1      42.433   5.262  12.075  0.00  0.00    +0.000 C 
ATOM      8  C   UNL     1      43.558   5.770  11.158  0.00  0.00    +0.000 C 
BRANCH   8   9
ATOM      9  N   UNL     1      43.591   5.066   9.855  0.00  0.00    +0.000 NA
ATOM     10  H   UNL     1      42.646   5.067   9.470  0.00  0.00    +0.000 HD
BRANCH   9  11
ATOM     11  C   UNL     1      44.015   3.661  10.014  0.00  0.00    +0.000 C 
BRANCH  11  12
ATOM     12  C   UNL     1      45.113   3.199   9.081  0.00  0.00    +0.000 A 
ATOM     13  C   UNL     1      45.444   1.852   8.918  0.00  0.00    +0.000 A 
ATOM     14  C   UNL     1      46.377   1.503   7.951  0.00  0.00    +0.000 A 
ATOM     15  N   UNL     1      46.990   2.390   7.137  0.00  0.00    +0.000 NA
ATOM     16  C   UNL     1      46.649   3.684   7.292  0.00  0.00    +0.000 A 
ATOM     17  C   UNL     1      45.731   4.131   8.232  0.00  0.00    +0.000 A 
ENDBRANCH  11  12
ENDBRANCH   9  11
ENDBRANCH   8   9
ENDBRANCH   1   8
BRANCH   4  18
ATOM     18  C   UNL     1      48.624   6.242  14.150  0.00  0.00    +0.000 C 
BRANCH  18  19
ATOM     19  N   UNL     1      48.550   6.723  15.541  0.00  0.00    +0.000 N 
ATOM     20  C   UNL     1      48.648   8.157  15.783  0.00  0.00    +0.000 C 
ATOM     21  C   UNL     1      48.693   5.741  16.548  0.00  0.00    +0.000 C 
ATOM     22  O   UNL     1      48.808   4.553  16.248  0.00  0.00    +0.000 OA
BRANCH  21  23
ATOM     23  C   UNL     1      48.653   6.126  17.975  0.00  0.00    +0.000 A 
ATOM     24  C   UNL     1      47.518   6.053  18.768  0.00  0.00    +0.000 A 
ATOM     25  S   UNL     1      47.771   6.534  20.385  0.00  0.00    +0.000 S 
ATOM     26  C   UNL     1      49.442   6.701  20.129  0.00  0.00    +0.000 A 
ATOM     27  N   UNL     1      50.271   6.993  21.163  0.00  0.00    +0.000 NA
ATOM     28  C   UNL     1      51.521   7.032  20.844  0.00  0.00    +0.000 A 
ATOM     29  N   UNL     1      52.010   6.833  19.578  0.00  0.00    +0.000 N 
ATOM     30  C   UNL     1      51.196   6.666  18.476  0.00  0.00    +0.000 A 
ATOM     31  O   UNL     1      51.659   6.730  17.343  0.00  0.00    +0.000 OA
ATOM     32  C   UNL     1      49.787   6.496  18.804  0.00  0.00    +0.000 A 
ATOM     33  H   UNL     1      52.995   6.939  19.385  0.00  0.00    +0.000 HD
ENDBRANCH  21  23
ENDBRANCH  18  19
ENDBRANCH   4  18
TORSDOF 7
ENDMDL
MODEL 4
REMARK VINA RESULT:    -7.092      3.260      4.723
REMARK INTER + INTRA:         -10.949
REMARK INTER:                  -9.678
REMARK INTRA:                  -1.272
REMARK UNBOUND:                -0.956
REMARK  Name = 
REMARK  9 active torsions:
REMARK  status: ('A' for Active; 'I' for Inactive)
REMARK    1  A    between atoms: C_1  and  C_2
REMARK    2  A    between atoms: C_2  and  N_3
REMARK    3  A    between atoms: C_2  and  C_11
REMARK    4  A    between atoms: N_3  and  C_4
REMARK    5  A    between atoms: C_4  and  C_5
REMARK    6  A    between atoms: C_14  and  C_15
REMARK    7  A    between atoms: C_15  and  N_16
REMARK    8  A    between atoms: N_16  and  C_17
REMARK    9  A    between atoms: C_18  and  C_20
REMARK                            x       y       z     vdW  Elec       q    Type
REMARK                         _______ _______ _______ _____ _____    ______ ____
ROOT
ATOM      1  C   UNL     1      44.576   5.142  11.503  0.00  0.00    +0.000 A 
ATOM      2  C   UNL     1      44.318   6.519  11.452  0.00  0.00    +0.000 A 
ATOM      3  C   UNL     1      45.142   7.438  12.116  0.00  0.00    +0.000 A 
ATOM      4  C   UNL     1      46.270   7.017  12.839  0.00  0.00    +0.000 A 
ATOM      5  C   UNL     1      46.565   5.650  12.850  0.00  0.00    +0.000 A 
ATOM      6  C   UNL     1      45.737   4.728  12.179  0.00  0.00    +0.000 A 
ENDROOT
BRANCH   1   8
ATOM      7  C   UNL     1      43.388   2.930  11.824  0.00  0.00    +0.000 C 
ATOM      8  C   UNL     1      43.536   4.171  10.929  0.00  0.00    +0.000 C 
BRANCH   8   9
ATOM      9  N   UNL     1      43.780   3.823   9.510  0.00  0.00    +0.000 NA
ATOM     10  H   UNL     1      42.877   3.756   9.039  0.00  0.00    +0.000 HD
BRANCH   9  11
ATOM     11  C   UNL     1      44.454   2.516   9.385  0.00  0.00    +0.000 C 
BRANCH  11  12
ATOM     12  C   UNL     1      45.576   2.450   8.373  0.00  0.00    +0.000 A 
ATOM     13  C   UNL     1      46.110   3.590   7.767  0.00  0.00    +0.000 A 
ATOM     14  C   UNL     1      47.220   3.453   6.944  0.00  0.00    +0.000 A 
ATOM     15  N   UNL     1      47.835   2.277   6.692  0.00  0.00    +0.000 NA
ATOM     16  C   UNL     1      47.320   1.188   7.296  0.00  0.00    +0.000 A 
ATOM     17  C   UNL     1      46.213   1.222   8.131  0.00  0.00    +0.000 A 
ENDBRANCH  11  12
ENDBRANCH   9  11
ENDBRANCH   8   9
ENDBRANCH   1   8
BRANCH   4  18
ATOM     18  C   UNL     1      47.166   8.035  13.525  0.00  0.00    +0.000 C 
BRANCH  18  19
ATOM     19  N   UNL     1      48.317   8.562  12.771  0.00  0.00    +0.000 N 
ATOM     20  C   UNL     1      48.068   9.554  11.732  0.00  0.00    +0.000 C 
ATOM     21  C   UNL     1      49.529   7.846  12.904  0.00  0.00    +0.000 C 
ATOM     22  O   UNL     1      49.603   6.881  13.663  0.00  0.00    +0.000 OA
BRANCH  21  23
ATOM     23  C   UNL     1      50.736   8.283  12.171  0.00  0.00    +0.000 A 
ATOM     24  C   UNL     1      51.160   7.731  10.971  0.00  0.00    +0.000 A 
ATOM     25  S   UNL     1      52.570   8.452  10.337  0.00  0.00    +0.000 S 
ATOM     26  C   UNL     1      52.576   9.636  11.555  0.00  0.00    +0.000 A 
ATOM     27  N   UNL     1      53.483  10.645  11.529  0.00  0.00    +0.000 NA
ATOM     28  C   UNL     1      53.339  11.510  12.478  0.00  0.00    +0.000 A 
ATOM     29  N   UNL     1      52.389  11.436  13.464  0.00  0.00    +0.000 N 
ATOM     30  C   UNL     1      51.535  10.360  13.605  0.00  0.00    +0.000 A 
ATOM     31  O   UNL     1      50.871  10.221  14.626  0.00  0.00    +0.000 OA
ATOM     32  C   UNL     1      51.579   9.422  12.492  0.00  0.00    +0.000 A 
ATOM     33  H   UNL     1      52.371  12.112  14.212  0.00  0.00    +0.000 HD
ENDBRANCH  21  23
ENDBRANCH  18  19
ENDBRANCH   4  18
TORSDOF 7
ENDMDL
MODEL 5
REMARK VINA RESULT:    -7.057      2.933      4.209
REMARK INTER + INTRA:         -10.901
REMARK INTER:                 -10.227
REMARK INTRA:                  -0.674
REMARK UNBOUND:                -0.956
REMARK  Name = 
REMARK  9 active torsions:
REMARK  status: ('A' for Active; 'I' for Inactive)
REMARK    1  A    between atoms: C_1  and  C_2
REMARK    2  A    between atoms: C_2  and  N_3
REMARK    3  A    between atoms: C_2  and  C_11
REMARK    4  A    between atoms: N_3  and  C_4
REMARK    5  A    between atoms: C_4  and  C_5
REMARK    6  A    between atoms: C_14  and  C_15
REMARK    7  A    between atoms: C_15  and  N_16
REMARK    8  A    between atoms: N_16  and  C_17
REMARK    9  A    between atoms: C_18  and  C_20
REMARK                            x       y       z     vdW  Elec       q    Type
REMARK                         _______ _______ _______ _____ _____    ______ ____
ROOT
ATOM      1  C   UNL     1      47.027   5.253  13.531  0.00  0.00    +0.000 A 
ATOM      2  C   UNL     1      47.752   6.415  13.833  0.00  0.00    +0.000 A 
ATOM      3  C   UNL     1      48.261   6.640  15.119  0.00  0.00    +0.000 A 
ATOM      4  C   UNL     1      48.085   5.702  16.149  0.00  0.00    +0.000 A 
ATOM      5  C   UNL     1      47.410   4.515  15.842  0.00  0.00    +0.000 A 
ATOM      6  C   UNL     1      46.901   4.290  14.548  0.00  0.00    +0.000 A 
ENDROOT
BRANCH   1   8
ATOM      7  C   UNL     1      46.189   6.532  11.514  0.00  0.00    +0.000 C 
ATOM      8  C   UNL     1      46.325   5.149  12.171  0.00  0.00    +0.000 C 
BRANCH   8   9
ATOM      9  N   UNL     1      45.039   4.417  12.229  0.00  0.00    +0.000 NA
ATOM     10  H   UNL     1      45.243   3.425  12.356  0.00  0.00    +0.000 HD
BRANCH   9  11
ATOM     11  C   UNL     1      44.279   4.567  10.973  0.00  0.00    +0.000 C 
BRANCH  11  12
ATOM     12  C   UNL     1      44.846   3.841   9.773  0.00  0.00    +0.000 A 
ATOM     13  C   UNL     1      45.472   4.507   8.718  0.00  0.00    +0.000 A 
ATOM     14  C   UNL     1      46.075   3.758   7.716  0.00  0.00    +0.000 A 
ATOM     15  N   UNL     1      46.107   2.408   7.696  0.00  0.00    +0.000 NA
ATOM     16  C   UNL     1      45.514   1.777   8.729  0.00  0.00    +0.000 A 
ATOM     17  C   UNL     1      44.882   2.437   9.774  0.00  0.00    +0.000 A 
ENDBRANCH  11  12
ENDBRANCH   9  11
ENDBRANCH   8   9
ENDBRANCH   1   8
BRANCH   4  18
ATOM     18  C   UNL     1      48.674   5.954  17.526  0.00  0.00    +0.000 C 
BRANCH  18  19
ATOM     19  N   UNL     1      49.707   5.025  18.018  0.00  0.00    +0.000 N 
ATOM     20  C   UNL     1      49.462   4.318  19.269  0.00  0.00    +0.000 C 
ATOM     21  C   UNL     1      50.975   5.121  17.401  0.00  0.00    +0.000 C 
ATOM     22  O   UNL     1      51.156   5.900  16.466  0.00  0.00    +0.000 OA
BRANCH  21  23
ATOM     23  C   UNL     1      52.084   4.245  17.837  0.00  0.00    +0.000 A 
ATOM     24  C   UNL     1      53.225   4.699  18.482  0.00  0.00    +0.000 A 
ATOM     25  S   UNL     1      54.324   3.463  18.896  0.00  0.00    +0.000 S 
ATOM     26  C   UNL     1      53.245   2.257  18.379  0.00  0.00    +0.000 A 
ATOM     27  N   UNL     1      53.541   0.945  18.560  0.00  0.00    +0.000 NA
ATOM     28  C   UNL     1      52.610   0.136  18.177  0.00  0.00    +0.000 A 
ATOM     29  N   UNL     1      51.425   0.523  17.605  0.00  0.00    +0.000 N 
ATOM     30  C   UNL     1      51.141   1.835  17.281  0.00  0.00    +0.000 A 
ATOM     31  O   UNL     1      50.186   2.107  16.562  0.00  0.00    +0.000 OA
ATOM     32  C   UNL     1      52.107   2.793  17.801  0.00  0.00    +0.000 A 
ATOM     33  H   UNL     1      50.766  -0.165  17.271  0.00  0.00    +0.000 HD
ENDBRANCH  21  23
ENDBRANCH  18  19
ENDBRANCH   4  18
TORSDOF 7
ENDMDL
MODEL 6
REMARK VINA RESULT:    -6.871      3.247      4.685
REMARK INTER + INTRA:         -10.638
REMARK INTER:                  -9.369
REMARK INTRA:                  -1.268
REMARK UNBOUND:                -0.956
REMARK  Name = 
REMARK  9 active torsions:
REMARK  status: ('A' for Active; 'I' for Inactive)
REMARK    1  A    between atoms: C_1  and  C_2
REMARK    2  A    between atoms: C_2  and  N_3
REMARK    3  A    between atoms: C_2  and  C_11
REMARK    4  A    between atoms: N_3  and  C_4
REMARK    5  A    between atoms: C_4  and  C_5
REMARK    6  A    between atoms: C_14  and  C_15
REMARK    7  A    between atoms: C_15  and  N_16
REMARK    8  A    between atoms: N_16  and  C_17
REMARK    9  A    between atoms: C_18  and  C_20
REMARK                            x       y       z     vdW  Elec       q    Type
REMARK                         _______ _______ _______ _____ _____    ______ ____
ROOT
ATOM      1  C   UNL     1      45.075   6.057  11.399  0.00  0.00    +0.000 A 
ATOM      2  C   UNL     1      44.716   7.393  11.627  0.00  0.00    +0.000 A 
ATOM      3  C   UNL     1      45.481   8.219  12.461  0.00  0.00    +0.000 A 
ATOM      4  C   UNL     1      46.649   7.749  13.082  0.00  0.00    +0.000 A 
ATOM      5  C   UNL     1      47.044   6.434  12.816  0.00  0.00    +0.000 A 
ATOM      6  C   UNL     1      46.275   5.606  11.975  0.00  0.00    +0.000 A 
ENDROOT
BRANCH   1   8
ATOM      7  C   UNL     1      42.816   4.918  11.455  0.00  0.00    +0.000 C 
ATOM      8  C   UNL     1      44.101   5.146  10.642  0.00  0.00    +0.000 C 
BRANCH   8   9
ATOM      9  N   UNL     1      44.718   3.878  10.186  0.00  0.00    +0.000 NA
ATOM     10  H   UNL     1      45.675   3.846  10.538  0.00  0.00    +0.000 HD
BRANCH   9  11
ATOM     11  C   UNL     1      44.772   3.807   8.713  0.00  0.00    +0.000 C 
BRANCH  11  12
ATOM     12  C   UNL     1      45.875   2.945   8.139  0.00  0.00    +0.000 A 
ATOM     13  C   UNL     1      45.927   1.562   8.332  0.00  0.00    +0.000 A 
ATOM     14  C   UNL     1      46.901   0.829   7.668  0.00  0.00    +0.000 A 
ATOM     15  N   UNL     1      47.811   1.367   6.827  0.00  0.00    +0.000 NA
ATOM     16  C   UNL     1      47.740   2.699   6.636  0.00  0.00    +0.000 A 
ATOM     17  C   UNL     1      46.806   3.517   7.256  0.00  0.00    +0.000 A 
ENDBRANCH  11  12
ENDBRANCH   9  11
ENDBRANCH   8   9
ENDBRANCH   1   8
BRANCH   4  18
ATOM     18  C   UNL     1      47.479   8.673  13.957  0.00  0.00    +0.000 C 
BRANCH  18  19
ATOM     19  N   UNL     1      48.717   9.235  13.390  0.00  0.00    +0.000 N 
ATOM     20  C   UNL     1      48.607  10.171  12.277  0.00  0.00    +0.000 C 
ATOM     21  C   UNL     1      49.921   8.595  13.766  0.00  0.00    +0.000 C 
ATOM     22  O   UNL     1      49.907   7.666  14.572  0.00  0.00    +0.000 OA
BRANCH  21  23
ATOM     23  C   UNL     1      51.215   9.071  13.233  0.00  0.00    +0.000 A 
ATOM     24  C   UNL     1      52.083   9.902  13.927  0.00  0.00    +0.000 A 
ATOM     25  S   UNL     1      53.518  10.266  13.081  0.00  0.00    +0.000 S 
ATOM     26  C   UNL     1      53.111   9.198  11.824  0.00  0.00    +0.000 A 
ATOM     27  N   UNL     1      53.984   8.959  10.813  0.00  0.00    +0.000 NA
ATOM     28  C   UNL     1      53.576   8.083   9.957  0.00  0.00    +0.000 A 
ATOM     29  N   UNL     1      52.361   7.449  10.009  0.00  0.00    +0.000 N 
ATOM     30  C   UNL     1      51.391   7.759  10.941  0.00  0.00    +0.000 A 
ATOM     31  O   UNL     1      50.244   7.345  10.810  0.00  0.00    +0.000 OA
ATOM     32  C   UNL     1      51.850   8.652  11.996  0.00  0.00    +0.000 A 
ATOM     33  H   UNL     1      52.078   6.819   9.273  0.00  0.00    +0.000 HD
ENDBRANCH  21  23
ENDBRANCH  18  19
ENDBRANCH   4  18
TORSDOF 7
ENDMDL
MODEL 7
REMARK VINA RESULT:    -6.739      4.544      7.713
REMARK INTER + INTRA:         -10.453
REMARK INTER:                  -9.291
REMARK INTRA:                  -1.162
REMARK UNBOUND:                -0.956
REMARK  Name = 
REMARK  9 active torsions:
REMARK  status: ('A' for Active; 'I' for Inactive)
REMARK    1  A    between atoms: C_1  and  C_2
REMARK    2  A    between atoms: C_2  and  N_3
REMARK    3  A    between atoms: C_2  and  C_11
REMARK    4  A    between atoms: N_3  and  C_4
REMARK    5  A    between atoms: C_4  and  C_5
REMARK    6  A    between atoms: C_14  and  C_15
REMARK    7  A    between atoms: C_15  and  N_16
REMARK    8  A    between atoms: N_16  and  C_17
REMARK    9  A    between atoms: C_18  and  C_20
REMARK                            x       y       z     vdW  Elec       q    Type
REMARK                         _______ _______ _______ _____ _____    ______ ____
ROOT
ATOM      1  C   UNL     1      51.227   8.819  12.130  0.00  0.00    +0.000 A 
ATOM      2  C   UNL     1      50.433   8.083  11.239  0.00  0.00    +0.000 A 
ATOM      3  C   UNL     1      49.076   7.848  11.497  0.00  0.00    +0.000 A 
ATOM      4  C   UNL     1      48.453   8.359  12.647  0.00  0.00    +0.000 A 
ATOM      5  C   UNL     1      49.224   9.140  13.514  0.00  0.00    +0.000 A 
ATOM      6  C   UNL     1      50.588   9.377  13.251  0.00  0.00    +0.000 A 
ENDROOT
BRANCH   1   8
ATOM      7  C   UNL     1      53.098   9.929  10.837  0.00  0.00    +0.000 C 
ATOM      8  C   UNL     1      52.742   8.877  11.900  0.00  0.00    +0.000 C 
BRANCH   8   9
ATOM      9  N   UNL     1      53.344   7.555  11.615  0.00  0.00    +0.000 NA
ATOM     10  H   UNL     1      53.951   7.306  12.397  0.00  0.00    +0.000 HD
BRANCH   9  11
ATOM     11  C   UNL     1      54.172   7.593  10.393  0.00  0.00    +0.000 C 
BRANCH  11  12
ATOM     12  C   UNL     1      53.648   6.794   9.221  0.00  0.00    +0.000 A 
ATOM     13  C   UNL     1      52.599   7.241   8.414  0.00  0.00    +0.000 A 
ATOM     14  C   UNL     1      52.262   6.506   7.285  0.00  0.00    +0.000 A 
ATOM     15  N   UNL     1      52.895   5.376   6.901  0.00  0.00    +0.000 NA
ATOM     16  C   UNL     1      53.915   4.965   7.679  0.00  0.00    +0.000 A 
ATOM     17  C   UNL     1      54.324   5.628   8.827  0.00  0.00    +0.000 A 
ENDBRANCH  11  12
ENDBRANCH   9  11
ENDBRANCH   8   9
ENDBRANCH   1   8
BRANCH   4  18
ATOM     18  C   UNL     1      46.973   8.117  12.890  0.00  0.00    +0.000 C 
BRANCH  18  19
ATOM     19  N   UNL     1      46.473   6.734  12.795  0.00  0.00    +0.000 N 
ATOM     20  C   UNL     1      47.264   5.670  13.403  0.00  0.00    +0.000 C 
ATOM     21  C   UNL     1      45.430   6.510  11.868  0.00  0.00    +0.000 C 
ATOM     22  O   UNL     1      44.945   7.448  11.238  0.00  0.00    +0.000 OA
BRANCH  21  23
ATOM     23  C   UNL     1      44.874   5.152  11.685  0.00  0.00    +0.000 A 
ATOM     24  C   UNL     1      44.109   4.491  12.634  0.00  0.00    +0.000 A 
ATOM     25  S   UNL     1      43.576   2.948  12.142  0.00  0.00    +0.000 S 
ATOM     26  C   UNL     1      44.208   3.170  10.581  0.00  0.00    +0.000 A 
ATOM     27  N   UNL     1      43.995   2.242   9.613  0.00  0.00    +0.000 NA
ATOM     28  C   UNL     1      44.477   2.561   8.459  0.00  0.00    +0.000 A 
ATOM     29  N   UNL     1      45.176   3.712   8.196  0.00  0.00    +0.000 N 
ATOM     30  C   UNL     1      45.530   4.617   9.177  0.00  0.00    +0.000 A 
ATOM     31  O   UNL     1      46.348   5.499   8.946  0.00  0.00    +0.000 OA
ATOM     32  C   UNL     1      44.907   4.360  10.468  0.00  0.00    +0.000 A 
ATOM     33  H   UNL     1      45.580   3.871   7.285  0.00  0.00    +0.000 HD
ENDBRANCH  21  23
ENDBRANCH  18  19
ENDBRANCH   4  18
TORSDOF 7
ENDMDL
MODEL 8
REMARK VINA RESULT:    -6.605      3.096      8.186
REMARK INTER + INTRA:         -10.264
REMARK INTER:                  -8.993
REMARK INTRA:                  -1.270
REMARK UNBOUND:                -0.956
REMARK  Name = 
REMARK  9 active torsions:
REMARK  status: ('A' for Active; 'I' for Inactive)
REMARK    1  A    between atoms: C_1  and  C_2
REMARK    2  A    between atoms: C_2  and  N_3
REMARK    3  A    between atoms: C_2  and  C_11
REMARK    4  A    between atoms: N_3  and  C_4
REMARK    5  A    between atoms: C_4  and  C_5
REMARK    6  A    between atoms: C_14  and  C_15
REMARK    7  A    between atoms: C_15  and  N_16
REMARK    8  A    between atoms: N_16  and  C_17
REMARK    9  A    between atoms: C_18  and  C_20
REMARK                            x       y       z     vdW  Elec       q    Type
REMARK                         _______ _______ _______ _____ _____    ______ ____
ROOT
ATOM      1  C   UNL     1      50.327   7.517  16.740  0.00  0.00    +0.000 A 
ATOM      2  C   UNL     1      50.615   7.185  15.409  0.00  0.00    +0.000 A 
ATOM      3  C   UNL     1      49.659   7.344  14.398  0.00  0.00    +0.000 A 
ATOM      4  C   UNL     1      48.384   7.862  14.673  0.00  0.00    +0.000 A 
ATOM      5  C   UNL     1      48.107   8.247  15.989  0.00  0.00    +0.000 A 
ATOM      6  C   UNL     1      49.071   8.089  17.005  0.00  0.00    +0.000 A 
ENDROOT
BRANCH   1   8
ATOM      7  C   UNL     1      52.534   6.383  17.241  0.00  0.00    +0.000 C 
ATOM      8  C   UNL     1      51.335   7.140  17.834  0.00  0.00    +0.000 C 
BRANCH   8   9
ATOM      9  N   UNL     1      50.721   6.426  18.977  0.00  0.00    +0.000 NA
ATOM     10  H   UNL     1      51.268   6.635  19.813  0.00  0.00    +0.000 HD
BRANCH   9  11
ATOM     11  C   UNL     1      50.744   4.965  18.772  0.00  0.00    +0.000 C 
BRANCH  11  12
ATOM     12  C   UNL     1      49.477   4.361  18.207  0.00  0.00    +0.000 A 
ATOM     13  C   UNL     1      48.225   4.958  18.364  0.00  0.00    +0.000 A 
ATOM     14  C   UNL     1      47.133   4.406  17.709  0.00  0.00    +0.000 A 
ATOM     15  N   UNL     1      47.200   3.320  16.909  0.00  0.00    +0.000 NA
ATOM     16  C   UNL     1      48.417   2.764  16.751  0.00  0.00    +0.000 A 
ATOM     17  C   UNL     1      49.566   3.240  17.367  0.00  0.00    +0.000 A 
ENDBRANCH  11  12
ENDBRANCH   9  11
ENDBRANCH   8   9
ENDBRANCH   1   8
BRANCH   4  18
ATOM     18  C   UNL     1      47.374   8.054  13.554  0.00  0.00    +0.000 C 
BRANCH  18  19
ATOM     19  N   UNL     1      46.909   6.858  12.829  0.00  0.00    +0.000 N 
ATOM     20  C   UNL     1      47.613   5.600  13.046  0.00  0.00    +0.000 C 
ATOM     21  C   UNL     1      46.016   7.087  11.757  0.00  0.00    +0.000 C 
ATOM     22  O   UNL     1      45.619   8.225  11.510  0.00  0.00    +0.000 OA
BRANCH  21  23
ATOM     23  C   UNL     1      45.509   5.954  10.955  0.00  0.00    +0.000 A 
ATOM     24  C   UNL     1      45.897   5.688   9.651  0.00  0.00    +0.000 A 
ATOM     25  S   UNL     1      45.173   4.298   8.981  0.00  0.00    +0.000 S 
ATOM     26  C   UNL     1      44.438   3.903  10.461  0.00  0.00    +0.000 A 
ATOM     27  N   UNL     1      43.745   2.745  10.599  0.00  0.00    +0.000 NA
ATOM     28  C   UNL     1      43.289   2.539  11.789  0.00  0.00    +0.000 A 
ATOM     29  N   UNL     1      43.442   3.403  12.844  0.00  0.00    +0.000 N 
ATOM     30  C   UNL     1      44.023   4.649  12.715  0.00  0.00    +0.000 A 
ATOM     31  O   UNL     1      43.927   5.477  13.614  0.00  0.00    +0.000 OA
ATOM     32  C   UNL     1      44.656   4.875  11.424  0.00  0.00    +0.000 A 
ATOM     33  H   UNL     1      43.007   3.210  13.734  0.00  0.00    +0.000 HD
ENDBRANCH  21  23
ENDBRANCH  18  19
ENDBRANCH   4  18
TORSDOF 7
ENDMDL
MODEL 9
REMARK VINA RESULT:    -6.453      3.345      8.113
REMARK INTER + INTRA:         -10.049
REMARK INTER:                  -8.051
REMARK INTRA:                  -1.998
REMARK UNBOUND:                -0.956
REMARK  Name = 
REMARK  9 active torsions:
REMARK  status: ('A' for Active; 'I' for Inactive)
REMARK    1  A    between atoms: C_1  and  C_2
REMARK    2  A    between atoms: C_2  and  N_3
REMARK    3  A    between atoms: C_2  and  C_11
REMARK    4  A    between atoms: N_3  and  C_4
REMARK    5  A    between atoms: C_4  and  C_5
REMARK    6  A    between atoms: C_14  and  C_15
REMARK    7  A    between atoms: C_15  and  N_16
REMARK    8  A    between atoms: N_16  and  C_17
REMARK    9  A    between atoms: C_18  and  C_20
REMARK                            x       y       z     vdW  Elec       q    Type
REMARK                         _______ _______ _______ _____ _____    ______ ____
ROOT
ATOM      1  C   UNL     1      51.341   7.475  17.495  0.00  0.00    +0.000 A 
ATOM      2  C   UNL     1      51.858   7.080  16.253  0.00  0.00    +0.000 A 
ATOM      3  C   UNL     1      51.282   7.519  15.053  0.00  0.00    +0.000 A 
ATOM      4  C   UNL     1      50.179   8.388  15.048  0.00  0.00    +0.000 A 
ATOM      5  C   UNL     1      49.691   8.830  16.282  0.00  0.00    +0.000 A 
ATOM      6  C   UNL     1      50.274   8.391  17.487  0.00  0.00    +0.000 A 
ENDROOT
BRANCH   1   8
ATOM      7  C   UNL     1      53.250   6.160  18.512  0.00  0.00    +0.000 C 
ATOM      8  C   UNL     1      51.882   6.813  18.768  0.00  0.00    +0.000 C 
BRANCH   8   9
ATOM      9  N   UNL     1      50.918   5.882  19.400  0.00  0.00    +0.000 NA
ATOM     10  H   UNL     1      51.244   5.682  20.347  0.00  0.00    +0.000 HD
BRANCH   9  11
ATOM     11  C   UNL     1      50.844   4.604  18.666  0.00  0.00    +0.000 C 
BRANCH  11  12
ATOM     12  C   UNL     1      49.485   4.247  18.107  0.00  0.00    +0.000 A 
ATOM     13  C   UNL     1      49.228   3.029  17.474  0.00  0.00    +0.000 A 
ATOM     14  C   UNL     1      47.924   2.729  17.102  0.00  0.00    +0.000 A 
ATOM     15  N   UNL     1      46.868   3.542  17.321  0.00  0.00    +0.000 NA
ATOM     16  C   UNL     1      47.127   4.707  17.948  0.00  0.00    +0.000 A 
ATOM     17  C   UNL     1      48.395   5.098  18.355  0.00  0.00    +0.000 A 
ENDBRANCH  11  12
ENDBRANCH   9  11
ENDBRANCH   8   9
ENDBRANCH   1   8
BRANCH   4  18
ATOM     18  C   UNL     1      49.591   8.874  13.734  0.00  0.00    +0.000 C 
BRANCH  18  19
ATOM     19  N   UNL     1      48.627   8.001  13.042  0.00  0.00    +0.000 N 
ATOM     20  C   UNL     1      49.050   7.341  11.812  0.00  0.00    +0.000 C 
ATOM     21  C   UNL     1      47.280   8.109  13.456  0.00  0.00    +0.000 C 
ATOM     22  O   UNL     1      46.972   8.851  14.386  0.00  0.00    +0.000 OA
BRANCH  21  23
ATOM     23  C   UNL     1      46.234   7.289  12.809  0.00  0.00    +0.000 A 
ATOM     24  C   UNL     1      45.308   7.783  11.902  0.00  0.00    +0.000 A 
ATOM     25  S   UNL     1      44.237   6.604  11.292  0.00  0.00    +0.000 S 
ATOM     26  C   UNL     1      45.072   5.358  12.089  0.00  0.00    +0.000 A 
ATOM     27  N   UNL     1      44.723   4.061  11.894  0.00  0.00    +0.000 NA
ATOM     28  C   UNL     1      45.476   3.212  12.510  0.00  0.00    +0.000 A 
ATOM     29  N   UNL     1      46.527   3.548  13.325  0.00  0.00    +0.000 N 
ATOM     30  C   UNL     1      46.833   4.853  13.657  0.00  0.00    +0.000 A 
ATOM     31  O   UNL     1      47.618   5.099  14.565  0.00  0.00    +0.000 OA
ATOM     32  C   UNL     1      46.089   5.845  12.893  0.00  0.00    +0.000 A 
ATOM     33  H   UNL     1      47.037   2.837  13.827  0.00  0.00    +0.000 HD
ENDBRANCH  21  23
ENDBRANCH  18  19
ENDBRANCH   4  18
TORSDOF 7
ENDMDL
