MODEL 1
REMARK VINA RESULT:    -8.223      0.000      0.000
REMARK INTER + INTRA:         -11.658
REMARK INTER:                 -10.626
REMARK INTRA:                  -1.032
REMARK UNBOUND:                -1.032
REMARK  Name = 
REMARK  5 active torsions:
REMARK  status: ('A' for Active; 'I' for Inactive)
REMARK    1  A    between atoms: C_2  and  C_18
REMARK    2  A    between atoms: N_3  and  C_4
REMARK    3  A    between atoms: C_4  and  C_5
REMARK    4  A    between atoms: C_8  and  C_9
REMARK    5  A    between atoms: C_9  and  C_10
REMARK                            x       y       z     vdW  Elec       q    Type
REMARK                         _______ _______ _______ _____ _____    ______ ____
ROOT
ATOM      1  O   UNL     1      42.956   5.451  11.348  0.00  0.00    +0.000 OA
ATOM      2  C   UNL     1      44.169   5.586  11.206  0.00  0.00    +0.000 C 
ATOM      3  N   UNL     1      44.924   4.722  10.456  0.00  0.00    +0.000 N 
ATOM      4  H   UNL     1      45.933   4.764  10.525  0.00  0.00    +0.000 HD
ENDROOT
BRANCH   2   5
ATOM      5  C   UNL     1      44.883   6.727  11.791  0.00  0.00    +0.000 A 
ATOM      6  C   UNL     1      44.515   8.021  11.454  0.00  0.00    +0.000 A 
ATOM      7  S   UNL     1      45.471   9.220  12.199  0.00  0.00    +0.000 S 
ATOM      8  C   UNL     1      46.376   8.053  13.043  0.00  0.00    +0.000 A 
ATOM      9  N   UNL     1      47.370   8.421  13.895  0.00  0.00    +0.000 NA
ATOM     10  C   UNL     1      47.949   7.438  14.499  0.00  0.00    +0.000 A 
ATOM     11  N   UNL     1      47.628   6.116  14.321  0.00  0.00    +0.000 N 
ATOM     12  C   UNL     1      46.687   5.693  13.413  0.00  0.00    +0.000 A 
ATOM     13  O   UNL     1      46.519   4.499  13.188  0.00  0.00    +0.000 OA
ATOM     14  C   UNL     1      45.977   6.764  12.739  0.00  0.00    +0.000 A 
ATOM     15  H   UNL     1      48.135   5.391  14.807  0.00  0.00    +0.000 HD
ENDBRANCH   2   5
BRANCH   3  16
ATOM     16  C   UNL     1      44.387   3.514   9.882  0.00  0.00    +0.000 C 
BRANCH  16  17
ATOM     17  C   UNL     1      45.271   2.997   8.778  0.00  0.00    +0.000 A 
ATOM     18  C   UNL     1      45.706   3.859   7.764  0.00  0.00    +0.000 A 
ATOM     19  C   UNL     1      46.529   3.391   6.737  0.00  0.00    +0.000 A 
ATOM     20  C   UNL     1      46.922   2.047   6.693  0.00  0.00    +0.000 A 
ATOM     21  C   UNL     1      46.470   1.179   7.697  0.00  0.00    +0.000 A 
ATOM     22  C   UNL     1      45.644   1.648   8.724  0.00  0.00    +0.000 A 
BRANCH  20  23
ATOM     23  C   UNL     1      47.796   1.541   5.572  0.00  0.00    +0.000 C 
BRANCH  23  24
ATOM     24  C   UNL     1      47.066   0.841   4.456  0.00  0.00    +0.000 A 
ATOM     25  C   UNL     1      46.262   1.540   3.550  0.00  0.00    +0.000 A 
ATOM     26  C   UNL     1      45.546   0.846   2.579  0.00  0.00    +0.000 A 
ATOM     27  C   UNL     1      45.664  -0.533   2.536  0.00  0.00    +0.000 A 
ATOM     28  N   UNL     1      46.450  -1.243   3.373  0.00  0.00    +0.000 NA
ATOM     29  C   UNL     1      47.135  -0.541   4.306  0.00  0.00    +0.000 A 
ENDBRANCH  23  24
ENDBRANCH  20  23
ENDBRANCH  16  17
ENDBRANCH   3  16
TORSDOF 5
ENDMDL
MODEL 2
REMARK VINA RESULT:    -8.080      2.756      4.716
REMARK INTER + INTRA:         -11.474
REMARK INTER:                 -10.715
REMARK INTRA:                  -0.758
REMARK UNBOUND:                -1.032
REMARK  Name = 
REMARK  5 active torsions:
REMARK  status: ('A' for Active; 'I' for Inactive)
REMARK    1  A    between atoms: C_2  and  C_18
REMARK    2  A    between atoms: N_3  and  C_4
REMARK    3  A    between atoms: C_4  and  C_5
REMARK    4  A    between atoms: C_8  and  C_9
REMARK    5  A    between atoms: C_9  and  C_10
REMARK                            x       y       z     vdW  Elec       q    Type
REMARK                         _______ _______ _______ _____ _____    ______ ____
ROOT
ATOM      1  O   UNL     1      48.662   6.785  12.833  0.00  0.00    +0.000 OA
ATOM      2  C   UNL     1      47.937   6.638  13.815  0.00  0.00    +0.000 C 
ATOM      3  N   UNL     1      46.574   6.769  13.751  0.00  0.00    +0.000 N 
ATOM      4  H   UNL     1      46.046   6.827  14.613  0.00  0.00    +0.000 HD
ENDROOT
BRANCH   2   5
ATOM      5  C   UNL     1      48.489   6.251  15.118  0.00  0.00    +0.000 A 
ATOM      6  C   UNL     1      49.445   7.048  15.730  0.00  0.00    +0.000 A 
ATOM      7  S   UNL     1      49.999   6.431  17.219  0.00  0.00    +0.000 S 
ATOM      8  C   UNL     1      48.940   5.103  17.126  0.00  0.00    +0.000 A 
ATOM      9  N   UNL     1      48.896   4.174  18.118  0.00  0.00    +0.000 NA
ATOM     10  C   UNL     1      48.021   3.241  17.939  0.00  0.00    +0.000 A 
ATOM     11  N   UNL     1      47.191   3.149  16.851  0.00  0.00    +0.000 N 
ATOM     12  C   UNL     1      47.257   4.018  15.789  0.00  0.00    +0.000 A 
ATOM     13  O   UNL     1      46.589   3.829  14.776  0.00  0.00    +0.000 OA
ATOM     14  C   UNL     1      48.195   5.111  15.961  0.00  0.00    +0.000 A 
ATOM     15  H   UNL     1      46.543   2.380  16.758  0.00  0.00    +0.000 HD
ENDBRANCH   2   5
BRANCH   3  16
ATOM     16  C   UNL     1      45.889   7.219  12.567  0.00  0.00    +0.000 C 
BRANCH  16  17
ATOM     17  C   UNL     1      45.571   6.066  11.651  0.00  0.00    +0.000 A 
ATOM     18  C   UNL     1      45.879   6.146  10.288  0.00  0.00    +0.000 A 
ATOM     19  C   UNL     1      45.593   5.082   9.430  0.00  0.00    +0.000 A 
ATOM     20  C   UNL     1      44.976   3.921   9.914  0.00  0.00    +0.000 A 
ATOM     21  C   UNL     1      44.648   3.848  11.275  0.00  0.00    +0.000 A 
ATOM     22  C   UNL     1      44.934   4.915  12.133  0.00  0.00    +0.000 A 
BRANCH  20  23
ATOM     23  C   UNL     1      44.650   2.780   8.981  0.00  0.00    +0.000 C 
BRANCH  23  24
ATOM     24  C   UNL     1      45.720   2.450   7.974  0.00  0.00    +0.000 A 
ATOM     25  C   UNL     1      46.005   3.297   6.898  0.00  0.00    +0.000 A 
ATOM     26  C   UNL     1      46.950   2.918   5.949  0.00  0.00    +0.000 A 
ATOM     27  C   UNL     1      47.593   1.703   6.112  0.00  0.00    +0.000 A 
ATOM     28  N   UNL     1      47.369   0.870   7.150  0.00  0.00    +0.000 NA
ATOM     29  C   UNL     1      46.446   1.265   8.057  0.00  0.00    +0.000 A 
ENDBRANCH  23  24
ENDBRANCH  20  23
ENDBRANCH  16  17
ENDBRANCH   3  16
TORSDOF 5
ENDMDL
MODEL 3
REMARK VINA RESULT:    -7.681      3.412      5.181
REMARK INTER + INTRA:         -10.958
REMARK INTER:                 -10.157
REMARK INTRA:                  -0.802
REMARK UNBOUND:                -1.032
REMARK  Name = 
REMARK  5 active torsions:
REMARK  status: ('A' for Active; 'I' for Inactive)
REMARK    1  A    between atoms: C_2  and  C_18
REMARK    2  A    between atoms: N_3  and  C_4
REMARK    3  A    between atoms: C_4  and  C_5
REMARK    4  A    between atoms: C_8  and  C_9
REMARK    5  A    between atoms: C_9  and  C_10
REMARK                            x       y       z     vdW  Elec       q    Type
REMARK                         _______ _______ _______ _____ _____    ______ ____
ROOT
ATOM      1  O   UNL     1      48.755   6.259  14.111  0.00  0.00    +0.000 OA
ATOM      2  C   UNL     1      47.794   5.742  14.678  0.00  0.00    +0.000 C 
ATOM      3  N   UNL     1      46.518   5.819  14.183  0.00  0.00    +0.000 N 
ATOM      4  H   UNL     1      45.744   5.546  14.777  0.00  0.00    +0.000 HD
ENDROOT
BRANCH   2   5
ATOM      5  C   UNL     1      47.966   4.954  15.904  0.00  0.00    +0.000 A 
ATOM      6  C   UNL     1      47.617   3.612  15.919  0.00  0.00    +0.000 A 
ATOM      7  S   UNL     1      47.851   2.861  17.432  0.00  0.00    +0.000 S 
ATOM      8  C   UNL     1      48.481   4.291  18.106  0.00  0.00    +0.000 A 
ATOM      9  N   UNL     1      48.902   4.327  19.398  0.00  0.00    +0.000 NA
ATOM     10  C   UNL     1      49.394   5.462  19.769  0.00  0.00    +0.000 A 
ATOM     11  N   UNL     1      49.493   6.569  18.965  0.00  0.00    +0.000 N 
ATOM     12  C   UNL     1      49.008   6.602  17.680  0.00  0.00    +0.000 A 
ATOM     13  O   UNL     1      48.997   7.646  17.035  0.00  0.00    +0.000 OA
ATOM     14  C   UNL     1      48.485   5.336  17.201  0.00  0.00    +0.000 A 
ATOM     15  H   UNL     1      49.867   7.436  19.322  0.00  0.00    +0.000 HD
ENDBRANCH   2   5
BRANCH   3  16
ATOM     16  C   UNL     1      46.173   6.618  13.035  0.00  0.00    +0.000 C 
BRANCH  16  17
ATOM     17  C   UNL     1      45.770   5.751  11.871  0.00  0.00    +0.000 A 
ATOM     18  C   UNL     1      46.056   6.156  10.562  0.00  0.00    +0.000 A 
ATOM     19  C   UNL     1      45.689   5.359   9.475  0.00  0.00    +0.000 A 
ATOM     20  C   UNL     1      45.014   4.148   9.673  0.00  0.00    +0.000 A 
ATOM     21  C   UNL     1      44.708   3.753  10.983  0.00  0.00    +0.000 A 
ATOM     22  C   UNL     1      45.074   4.552  12.071  0.00  0.00    +0.000 A 
BRANCH  20  23
ATOM     23  C   UNL     1      44.602   3.299   8.496  0.00  0.00    +0.000 C 
BRANCH  23  24
ATOM     24  C   UNL     1      45.737   2.700   7.709  0.00  0.00    +0.000 A 
ATOM     25  C   UNL     1      46.229   3.306   6.549  0.00  0.00    +0.000 A 
ATOM     26  C   UNL     1      47.230   2.681   5.811  0.00  0.00    +0.000 A 
ATOM     27  C   UNL     1      47.719   1.467   6.263  0.00  0.00    +0.000 A 
ATOM     28  N   UNL     1      47.292   0.861   7.391  0.00  0.00    +0.000 NA
ATOM     29  C   UNL     1      46.319   1.493   8.089  0.00  0.00    +0.000 A 
ENDBRANCH  23  24
ENDBRANCH  20  23
ENDBRANCH  16  17
ENDBRANCH   3  16
TORSDOF 5
ENDMDL
MODEL 4
REMARK VINA RESULT:    -7.671      2.710      4.278
REMARK INTER + INTRA:         -10.945
REMARK INTER:                 -10.748
REMARK INTRA:                  -0.196
REMARK UNBOUND:                -1.032
REMARK  Name = 
REMARK  5 active torsions:
REMARK  status: ('A' for Active; 'I' for Inactive)
REMARK    1  A    between atoms: C_2  and  C_18
REMARK    2  A    between atoms: N_3  and  C_4
REMARK    3  A    between atoms: C_4  and  C_5
REMARK    4  A    between atoms: C_8  and  C_9
REMARK    5  A    between atoms: C_9  and  C_10
REMARK                            x       y       z     vdW  Elec       q    Type
REMARK                         _______ _______ _______ _____ _____    ______ ____
ROOT
ATOM      1  O   UNL     1      46.714   3.100  13.781  0.00  0.00    +0.000 OA
ATOM      2  C   UNL     1      46.414   4.222  14.183  0.00  0.00    +0.000 C 
ATOM      3  N   UNL     1      45.171   4.766  13.988  0.00  0.00    +0.000 N 
ATOM      4  H   UNL     1      45.034   5.753  14.166  0.00  0.00    +0.000 HD
ENDROOT
BRANCH   2   5
ATOM      5  C   UNL     1      47.361   5.033  14.957  0.00  0.00    +0.000 A 
ATOM      6  C   UNL     1      48.044   6.073  14.344  0.00  0.00    +0.000 A 
ATOM      7  S   UNL     1      49.126   6.885  15.381  0.00  0.00    +0.000 S 
ATOM      8  C   UNL     1      48.679   5.910  16.702  0.00  0.00    +0.000 A 
ATOM      9  N   UNL     1      49.234   6.099  17.929  0.00  0.00    +0.000 NA
ATOM     10  C   UNL     1      48.777   5.317  18.849  0.00  0.00    +0.000 A 
ATOM     11  N   UNL     1      47.819   4.355  18.650  0.00  0.00    +0.000 N 
ATOM     12  C   UNL     1      47.290   4.075  17.413  0.00  0.00    +0.000 A 
ATOM     13  O   UNL     1      46.533   3.123  17.250  0.00  0.00    +0.000 OA
ATOM     14  C   UNL     1      47.740   4.957  16.352  0.00  0.00    +0.000 A 
ATOM     15  H   UNL     1      47.520   3.758  19.407  0.00  0.00    +0.000 HD
ENDBRANCH   2   5
BRANCH   3  16
ATOM     16  C   UNL     1      44.159   4.130  13.184  0.00  0.00    +0.000 C 
BRANCH  16  17
ATOM     17  C   UNL     1      44.519   4.170  11.722  0.00  0.00    +0.000 A 
ATOM     18  C   UNL     1      44.045   3.179  10.854  0.00  0.00    +0.000 A 
ATOM     19  C   UNL     1      44.370   3.208   9.497  0.00  0.00    +0.000 A 
ATOM     20  C   UNL     1      45.190   4.220   8.980  0.00  0.00    +0.000 A 
ATOM     21  C   UNL     1      45.683   5.200   9.853  0.00  0.00    +0.000 A 
ATOM     22  C   UNL     1      45.359   5.170  11.213  0.00  0.00    +0.000 A 
BRANCH  20  23
ATOM     23  C   UNL     1      45.555   4.237   7.516  0.00  0.00    +0.000 C 
BRANCH  23  24
ATOM     24  C   UNL     1      46.214   2.984   7.005  0.00  0.00    +0.000 A 
ATOM     25  C   UNL     1      46.421   1.873   7.829  0.00  0.00    +0.000 A 
ATOM     26  C   UNL     1      47.101   0.762   7.337  0.00  0.00    +0.000 A 
ATOM     27  C   UNL     1      47.546   0.791   6.026  0.00  0.00    +0.000 A 
ATOM     28  N   UNL     1      47.343   1.831   5.190  0.00  0.00    +0.000 NA
ATOM     29  C   UNL     1      46.678   2.897   5.695  0.00  0.00    +0.000 A 
ENDBRANCH  23  24
ENDBRANCH  20  23
ENDBRANCH  16  17
ENDBRANCH   3  16
TORSDOF 5
ENDMDL
MODEL 5
REMARK VINA RESULT:    -7.336      2.520      3.814
REMARK INTER + INTRA:         -10.513
REMARK INTER:                  -9.570
REMARK INTRA:                  -0.942
REMARK UNBOUND:                -1.032
REMARK  Name = 
REMARK  5 active torsions:
REMARK  status: ('A' for Active; 'I' for Inactive)
REMARK    1  A    between atoms: C_2  and  C_18
REMARK    2  A    between atoms: N_3  and  C_4
REMARK    3  A    between atoms: C_4  and  C_5
REMARK    4  A    between atoms: C_8  and  C_9
REMARK    5  A    between atoms: C_9  and  C_10
REMARK                            x       y       z     vdW  Elec       q    Type
REMARK                         _______ _______ _______ _____ _____    ______ ____
ROOT
ATOM      1  O   UNL     1      44.956   7.975  11.133  0.00  0.00    +0.000 OA
ATOM      2  C   UNL     1      45.661   7.880  12.135  0.00  0.00    +0.000 C 
ATOM      3  N   UNL     1      45.430   6.948  13.113  0.00  0.00    +0.000 N 
ATOM      4  H   UNL     1      45.915   7.035  13.998  0.00  0.00    +0.000 HD
ENDROOT
BRANCH   2   5
ATOM      5  C   UNL     1      46.842   8.732  12.319  0.00  0.00    +0.000 A 
ATOM      6  C   UNL     1      46.742  10.103  12.139  0.00  0.00    +0.000 A 
ATOM      7  S   UNL     1      48.215  10.932  12.359  0.00  0.00    +0.000 S 
ATOM      8  C   UNL     1      49.029   9.492  12.758  0.00  0.00    +0.000 A 
ATOM      9  N   UNL     1      50.350   9.503  13.081  0.00  0.00    +0.000 NA
ATOM     10  C   UNL     1      50.832   8.349  13.400  0.00  0.00    +0.000 A 
ATOM     11  N   UNL     1      50.113   7.180  13.417  0.00  0.00    +0.000 N 
ATOM     12  C   UNL     1      48.798   7.109  13.021  0.00  0.00    +0.000 A 
ATOM     13  O   UNL     1      48.226   6.028  12.926  0.00  0.00    +0.000 OA
ATOM     14  C   UNL     1      48.198   8.389  12.695  0.00  0.00    +0.000 A 
ATOM     15  H   UNL     1      50.554   6.304  13.654  0.00  0.00    +0.000 HD
ENDBRANCH   2   5
BRANCH   3  16
ATOM     16  C   UNL     1      44.271   6.093  13.118  0.00  0.00    +0.000 C 
BRANCH  16  17
ATOM     17  C   UNL     1      44.384   5.019  12.068  0.00  0.00    +0.000 A 
ATOM     18  C   UNL     1      45.318   3.987  12.216  0.00  0.00    +0.000 A 
ATOM     19  C   UNL     1      45.429   2.983  11.251  0.00  0.00    +0.000 A 
ATOM     20  C   UNL     1      44.619   2.999  10.108  0.00  0.00    +0.000 A 
ATOM     21  C   UNL     1      43.698   4.044   9.949  0.00  0.00    +0.000 A 
ATOM     22  C   UNL     1      43.589   5.050  10.915  0.00  0.00    +0.000 A 
BRANCH  20  23
ATOM     23  C   UNL     1      44.755   1.924   9.058  0.00  0.00    +0.000 C 
BRANCH  23  24
ATOM     24  C   UNL     1      45.883   2.122   8.081  0.00  0.00    +0.000 A 
ATOM     25  C   UNL     1      46.043   3.318   7.374  0.00  0.00    +0.000 A 
ATOM     26  C   UNL     1      47.056   3.432   6.425  0.00  0.00    +0.000 A 
ATOM     27  C   UNL     1      47.888   2.345   6.219  0.00  0.00    +0.000 A 
ATOM     28  N   UNL     1      47.786   1.183   6.899  0.00  0.00    +0.000 NA
ATOM     29  C   UNL     1      46.793   1.102   7.816  0.00  0.00    +0.000 A 
ENDBRANCH  23  24
ENDBRANCH  20  23
ENDBRANCH  16  17
ENDBRANCH   3  16
TORSDOF 5
ENDMDL
MODEL 6
REMARK VINA RESULT:    -7.294      3.331      6.127
REMARK INTER + INTRA:         -10.458
REMARK INTER:                  -9.481
REMARK INTRA:                  -0.977
REMARK UNBOUND:                -1.032
REMARK  Name = 
REMARK  5 active torsions:
REMARK  status: ('A' for Active; 'I' for Inactive)
REMARK    1  A    between atoms: C_2  and  C_18
REMARK    2  A    between atoms: N_3  and  C_4
REMARK    3  A    between atoms: C_4  and  C_5
REMARK    4  A    between atoms: C_8  and  C_9
REMARK    5  A    between atoms: C_9  and  C_10
REMARK                            x       y       z     vdW  Elec       q    Type
REMARK                         _______ _______ _______ _____ _____    ______ ____
ROOT
ATOM      1  O   UNL     1      49.909   7.083  14.173  0.00  0.00    +0.000 OA
ATOM      2  C   UNL     1      49.055   7.013  15.055  0.00  0.00    +0.000 C 
ATOM      3  N   UNL     1      47.769   7.447  14.871  0.00  0.00    +0.000 N 
ATOM      4  H   UNL     1      47.164   7.544  15.678  0.00  0.00    +0.000 HD
ENDROOT
BRANCH   2   5
ATOM      5  C   UNL     1      49.352   6.401  16.356  0.00  0.00    +0.000 A 
ATOM      6  C   UNL     1      50.236   7.020  17.227  0.00  0.00    +0.000 A 
ATOM      7  S   UNL     1      50.489   6.154  18.674  0.00  0.00    +0.000 S 
ATOM      8  C   UNL     1      49.383   4.947  18.210  0.00  0.00    +0.000 A 
ATOM      9  N   UNL     1      49.114   3.894  19.028  0.00  0.00    +0.000 NA
ATOM     10  C   UNL     1      48.228   3.074  18.570  0.00  0.00    +0.000 A 
ATOM     11  N   UNL     1      47.592   3.207  17.362  0.00  0.00    +0.000 N 
ATOM     12  C   UNL     1      47.891   4.209  16.470  0.00  0.00    +0.000 A 
ATOM     13  O   UNL     1      47.396   4.222  15.347  0.00  0.00    +0.000 OA
ATOM     14  C   UNL     1      48.850   5.182  16.956  0.00  0.00    +0.000 A 
ATOM     15  H   UNL     1      46.924   2.518  17.050  0.00  0.00    +0.000 HD
ENDBRANCH   2   5
BRANCH   3  16
ATOM     16  C   UNL     1      47.341   8.140  13.683  0.00  0.00    +0.000 C 
BRANCH  16  17
ATOM     17  C   UNL     1      46.549   7.231  12.780  0.00  0.00    +0.000 A 
ATOM     18  C   UNL     1      45.499   7.747  12.011  0.00  0.00    +0.000 A 
ATOM     19  C   UNL     1      44.759   6.915  11.167  0.00  0.00    +0.000 A 
ATOM     20  C   UNL     1      45.044   5.546  11.086  0.00  0.00    +0.000 A 
ATOM     21  C   UNL     1      46.082   5.025  11.872  0.00  0.00    +0.000 A 
ATOM     22  C   UNL     1      46.821   5.858  12.718  0.00  0.00    +0.000 A 
BRANCH  20  23
ATOM     23  C   UNL     1      44.231   4.646  10.188  0.00  0.00    +0.000 C 
BRANCH  23  24
ATOM     24  C   UNL     1      45.032   3.738   9.294  0.00  0.00    +0.000 A 
ATOM     25  C   UNL     1      45.767   4.232   8.212  0.00  0.00    +0.000 A 
ATOM     26  C   UNL     1      46.434   3.349   7.366  0.00  0.00    +0.000 A 
ATOM     27  C   UNL     1      46.355   1.994   7.637  0.00  0.00    +0.000 A 
ATOM     28  N   UNL     1      45.681   1.478   8.687  0.00  0.00    +0.000 NA
ATOM     29  C   UNL     1      45.043   2.360   9.492  0.00  0.00    +0.000 A 
ENDBRANCH  23  24
ENDBRANCH  20  23
ENDBRANCH  16  17
ENDBRANCH   3  16
TORSDOF 5
ENDMDL
MODEL 7
REMARK VINA RESULT:    -7.266      2.702      4.475
REMARK INTER + INTRA:         -10.422
REMARK INTER:                  -9.563
REMARK INTRA:                  -0.858
REMARK UNBOUND:                -1.032
REMARK  Name = 
REMARK  5 active torsions:
REMARK  status: ('A' for Active; 'I' for Inactive)
REMARK    1  A    between atoms: C_2  and  C_18
REMARK    2  A    between atoms: N_3  and  C_4
REMARK    3  A    between atoms: C_4  and  C_5
REMARK    4  A    between atoms: C_8  and  C_9
REMARK    5  A    between atoms: C_9  and  C_10
REMARK                            x       y       z     vdW  Elec       q    Type
REMARK                         _______ _______ _______ _____ _____    ______ ____
ROOT
ATOM      1  O   UNL     1      47.869   4.952  13.907  0.00  0.00    +0.000 OA
ATOM      2  C   UNL     1      47.784   6.141  13.607  0.00  0.00    +0.000 C 
ATOM      3  N   UNL     1      46.586   6.748  13.334  0.00  0.00    +0.000 N 
ATOM      4  H   UNL     1      46.587   7.667  12.910  0.00  0.00    +0.000 HD
ENDROOT
BRANCH   2   5
ATOM      5  C   UNL     1      48.970   7.006  13.577  0.00  0.00    +0.000 A 
ATOM      6  C   UNL     1      49.426   7.514  12.370  0.00  0.00    +0.000 A 
ATOM      7  S   UNL     1      50.830   8.469  12.517  0.00  0.00    +0.000 S 
ATOM      8  C   UNL     1      50.847   8.283  14.208  0.00  0.00    +0.000 A 
ATOM      9  N   UNL     1      51.804   8.879  14.968  0.00  0.00    +0.000 NA
ATOM     10  C   UNL     1      51.676   8.688  16.238  0.00  0.00    +0.000 A 
ATOM     11  N   UNL     1      50.680   7.945  16.818  0.00  0.00    +0.000 N 
ATOM     12  C   UNL     1      49.739   7.260  16.086  0.00  0.00    +0.000 A 
ATOM     13  O   UNL     1      48.943   6.502  16.632  0.00  0.00    +0.000 OA
ATOM     14  C   UNL     1      49.814   7.478  14.654  0.00  0.00    +0.000 A 
ATOM     15  H   UNL     1      50.647   7.813  17.818  0.00  0.00    +0.000 HD
ENDBRANCH   2   5
BRANCH   3  16
ATOM     16  C   UNL     1      45.346   6.021  13.247  0.00  0.00    +0.000 C 
BRANCH  16  17
ATOM     17  C   UNL     1      45.163   5.417  11.880  0.00  0.00    +0.000 A 
ATOM     18  C   UNL     1      44.348   4.292  11.712  0.00  0.00    +0.000 A 
ATOM     19  C   UNL     1      44.169   3.725  10.448  0.00  0.00    +0.000 A 
ATOM     20  C   UNL     1      44.815   4.263   9.327  0.00  0.00    +0.000 A 
ATOM     21  C   UNL     1      45.648   5.377   9.498  0.00  0.00    +0.000 A 
ATOM     22  C   UNL     1      45.828   5.943  10.764  0.00  0.00    +0.000 A 
BRANCH  20  23
ATOM     23  C   UNL     1      44.634   3.636   7.966  0.00  0.00    +0.000 C 
BRANCH  23  24
ATOM     24  C   UNL     1      45.808   2.837   7.467  0.00  0.00    +0.000 A 
ATOM     25  C   UNL     1      46.590   3.271   6.391  0.00  0.00    +0.000 A 
ATOM     26  C   UNL     1      47.621   2.466   5.914  0.00  0.00    +0.000 A 
ATOM     27  C   UNL     1      47.847   1.251   6.537  0.00  0.00    +0.000 A 
ATOM     28  N   UNL     1      47.135   0.808   7.595  0.00  0.00    +0.000 NA
ATOM     29  C   UNL     1      46.140   1.612   8.037  0.00  0.00    +0.000 A 
ENDBRANCH  23  24
ENDBRANCH  20  23
ENDBRANCH  16  17
ENDBRANCH   3  16
TORSDOF 5
ENDMDL
MODEL 8
REMARK VINA RESULT:    -7.110      2.832      4.611
REMARK INTER + INTRA:         -10.220
REMARK INTER:                  -9.478
REMARK INTRA:                  -0.742
REMARK UNBOUND:                -1.032
REMARK  Name = 
REMARK  5 active torsions:
REMARK  status: ('A' for Active; 'I' for Inactive)
REMARK    1  A    between atoms: C_2  and  C_18
REMARK    2  A    between atoms: N_3  and  C_4
REMARK    3  A    between atoms: C_4  and  C_5
REMARK    4  A    between atoms: C_8  and  C_9
REMARK    5  A    between atoms: C_9  and  C_10
REMARK                            x       y       z     vdW  Elec       q    Type
REMARK                         _______ _______ _______ _____ _____    ______ ____
ROOT
ATOM      1  O   UNL     1      48.394   5.265  15.576  0.00  0.00    +0.000 OA
ATOM      2  C   UNL     1      48.091   6.205  14.845  0.00  0.00    +0.000 C 
ATOM      3  N   UNL     1      46.939   6.220  14.102  0.00  0.00    +0.000 N 
ATOM      4  H   UNL     1      46.829   6.921  13.381  0.00  0.00    +0.000 HD
ENDROOT
BRANCH   2   5
ATOM      5  C   UNL     1      48.925   7.411  14.769  0.00  0.00    +0.000 A 
ATOM      6  C   UNL     1      49.301   8.067  15.931  0.00  0.00    +0.000 A 
ATOM      7  S   UNL     1      50.238   9.464  15.654  0.00  0.00    +0.000 S 
ATOM      8  C   UNL     1      50.222   9.209  13.972  0.00  0.00    +0.000 A 
ATOM      9  N   UNL     1      50.873  10.057  13.130  0.00  0.00    +0.000 NA
ATOM     10  C   UNL     1      50.812   9.725  11.885  0.00  0.00    +0.000 A 
ATOM     11  N   UNL     1      50.150   8.624  11.402  0.00  0.00    +0.000 N 
ATOM     12  C   UNL     1      49.414   7.786  12.205  0.00  0.00    +0.000 A 
ATOM     13  O   UNL     1      48.731   6.888  11.722  0.00  0.00    +0.000 OA
ATOM     14  C   UNL     1      49.486   8.092  13.621  0.00  0.00    +0.000 A 
ATOM     15  H   UNL     1      50.121   8.431  10.412  0.00  0.00    +0.000 HD
ENDBRANCH   2   5
BRANCH   3  16
ATOM     16  C   UNL     1      46.056   5.085  14.010  0.00  0.00    +0.000 C 
BRANCH  16  17
ATOM     17  C   UNL     1      45.740   4.758  12.575  0.00  0.00    +0.000 A 
ATOM     18  C   UNL     1      45.847   5.745  11.588  0.00  0.00    +0.000 A 
ATOM     19  C   UNL     1      45.559   5.452  10.254  0.00  0.00    +0.000 A 
ATOM     20  C   UNL     1      45.142   4.168   9.879  0.00  0.00    +0.000 A 
ATOM     21  C   UNL     1      45.013   3.184  10.869  0.00  0.00    +0.000 A 
ATOM     22  C   UNL     1      45.300   3.479  12.206  0.00  0.00    +0.000 A 
BRANCH  20  23
ATOM     23  C   UNL     1      44.813   3.860   8.438  0.00  0.00    +0.000 C 
BRANCH  23  24
ATOM     24  C   UNL     1      45.825   3.010   7.717  0.00  0.00    +0.000 A 
ATOM     25  C   UNL     1      46.519   3.483   6.598  0.00  0.00    +0.000 A 
ATOM     26  C   UNL     1      47.391   2.639   5.916  0.00  0.00    +0.000 A 
ATOM     27  C   UNL     1      47.554   1.346   6.383  0.00  0.00    +0.000 A 
ATOM     28  N   UNL     1      46.926   0.859   7.475  0.00  0.00    +0.000 NA
ATOM     29  C   UNL     1      46.085   1.702   8.118  0.00  0.00    +0.000 A 
ENDBRANCH  23  24
ENDBRANCH  20  23
ENDBRANCH  16  17
ENDBRANCH   3  16
TORSDOF 5
ENDMDL
MODEL 9
REMARK VINA RESULT:    -6.937      4.030      6.985
REMARK INTER + INTRA:          -9.996
REMARK INTER:                  -8.991
REMARK INTRA:                  -1.005
REMARK UNBOUND:                -1.032
REMARK  Name = 
REMARK  5 active torsions:
REMARK  status: ('A' for Active; 'I' for Inactive)
REMARK    1  A    between atoms: C_2  and  C_18
REMARK    2  A    between atoms: N_3  and  C_4
REMARK    3  A    between atoms: C_4  and  C_5
REMARK    4  A    between atoms: C_8  and  C_9
REMARK    5  A    between atoms: C_9  and  C_10
REMARK                            x       y       z     vdW  Elec       q    Type
REMARK                         _______ _______ _______ _____ _____    ______ ____
ROOT
ATOM      1  O   UNL     1      50.502   6.351  16.039  0.00  0.00    +0.000 OA
ATOM      2  C   UNL     1      49.346   6.429  16.449  0.00  0.00    +0.000 C 
ATOM      3  N   UNL     1      48.299   6.783  15.639  0.00  0.00    +0.000 N 
ATOM      4  H   UNL     1      47.409   7.016  16.061  0.00  0.00    +0.000 HD
ENDROOT
BRANCH   2   5
ATOM      5  C   UNL     1      49.005   6.088  17.836  0.00  0.00    +0.000 A 
ATOM      6  C   UNL     1      49.301   4.827  18.332  0.00  0.00    +0.000 A 
ATOM      7  S   UNL     1      48.805   4.593  19.946  0.00  0.00    +0.000 S 
ATOM      8  C   UNL     1      48.226   6.189  20.057  0.00  0.00    +0.000 A 
ATOM      9  N   UNL     1      47.678   6.655  21.211  0.00  0.00    +0.000 NA
ATOM     10  C   UNL     1      47.316   7.893  21.171  0.00  0.00    +0.000 A 
ATOM     11  N   UNL     1      47.445   8.708  20.075  0.00  0.00    +0.000 N 
ATOM     12  C   UNL     1      47.919   8.259  18.865  0.00  0.00    +0.000 A 
ATOM     13  O   UNL     1      47.899   8.981  17.872  0.00  0.00    +0.000 OA
ATOM     14  C   UNL     1      48.380   6.884  18.871  0.00  0.00    +0.000 A 
ATOM     15  H   UNL     1      47.121   9.664  20.099  0.00  0.00    +0.000 HD
ENDBRANCH   2   5
BRANCH   3  16
ATOM     16  C   UNL     1      48.479   7.219  14.278  0.00  0.00    +0.000 C 
BRANCH  16  17
ATOM     17  C   UNL     1      47.438   6.618  13.371  0.00  0.00    +0.000 A 
ATOM     18  C   UNL     1      46.981   5.314  13.594  0.00  0.00    +0.000 A 
ATOM     19  C   UNL     1      46.013   4.747  12.762  0.00  0.00    +0.000 A 
ATOM     20  C   UNL     1      45.494   5.467  11.678  0.00  0.00    +0.000 A 
ATOM     21  C   UNL     1      45.967   6.765  11.441  0.00  0.00    +0.000 A 
ATOM     22  C   UNL     1      46.938   7.331  12.274  0.00  0.00    +0.000 A 
BRANCH  20  23
ATOM     23  C   UNL     1      44.462   4.844  10.769  0.00  0.00    +0.000 C 
BRANCH  23  24
ATOM     24  C   UNL     1      45.017   4.017   9.641  0.00  0.00    +0.000 A 
ATOM     25  C   UNL     1      44.978   2.619   9.665  0.00  0.00    +0.000 A 
ATOM     26  C   UNL     1      45.569   1.891   8.637  0.00  0.00    +0.000 A 
ATOM     27  C   UNL     1      46.175   2.586   7.604  0.00  0.00    +0.000 A 
ATOM     28  N   UNL     1      46.211   3.933   7.528  0.00  0.00    +0.000 NA
ATOM     29  C   UNL     1      45.628   4.614   8.542  0.00  0.00    +0.000 A 
ENDBRANCH  23  24
ENDBRANCH  20  23
ENDBRANCH  16  17
ENDBRANCH   3  16
TORSDOF 5
ENDMDL
