MODEL 1
REMARK VINA RESULT:    -7.993      0.000      0.000
REMARK INTER + INTRA:         -10.086
REMARK INTER:                  -9.862
REMARK INTRA:                  -0.224
REMARK UNBOUND:                -0.224
REMARK  Name = 
REMARK  6 active torsions:
REMARK  status: ('A' for Active; 'I' for Inactive)
REMARK    1  A    between atoms: C_1  and  C_2
REMARK    2  A    between atoms: C_2  and  C_3
REMARK    3  A    between atoms: C_2  and  C_4
REMARK    4  A    between atoms: C_7  and  C_8
REMARK    5  A    between atoms: C_8  and  N_9
REMARK    6  A    between atoms: C_13  and  C_14
REMARK                            x       y       z     vdW  Elec       q    Type
REMARK                         _______ _______ _______ _____ _____    ______ ____
ROOT
ATOM      1  N   UNL     1      44.777   5.942  10.498  0.00  0.00    +0.000 N 
ATOM      2  C   UNL     1      45.407   5.503  11.677  0.00  0.00    +0.000 A 
ATOM      3  C   UNL     1      46.245   6.388  12.353  0.00  0.00    +0.000 A 
ATOM      4  C   UNL     1      46.893   5.974  13.520  0.00  0.00    +0.000 A 
ATOM      5  C   UNL     1      46.682   4.678  13.989  0.00  0.00    +0.000 A 
ATOM      6  C   UNL     1      45.830   3.863  13.265  0.00  0.00    +0.000 A 
ATOM      7  N   UNL     1      45.210   4.245  12.121  0.00  0.00    +0.000 NA
ATOM      8  H   UNL     1      44.226   6.771  10.704  0.00  0.00    +0.000 HD
ENDROOT
BRANCH   5   9
ATOM      9  C   UNL     1      47.293   4.144  15.222  0.00  0.00    +0.000 C 
ATOM     10  N   UNL     1      47.317   4.960  16.318  0.00  0.00    +0.000 N 
ATOM     11  O   UNL     1      47.788   3.027  15.257  0.00  0.00    +0.000 OA
ATOM     12  H   UNL     1      47.142   5.953  16.267  0.00  0.00    +0.000 HD
ATOM     13  H   UNL     1      47.830   4.616  17.122  0.00  0.00    +0.000 HD
ENDBRANCH   5   9
BRANCH   1  14
ATOM     14  C   UNL     1      43.955   4.904   9.882  0.00  0.00    +0.000 C 
BRANCH  14  18
ATOM     15  C   UNL     1      46.402   2.012   7.762  0.00  0.00    +0.000 A 
ATOM     16  C   UNL     1      46.547   3.381   7.500  0.00  0.00    +0.000 A 
ATOM     17  C   UNL     1      45.752   4.326   8.159  0.00  0.00    +0.000 A 
ATOM     18  C   UNL     1      44.779   3.921   9.080  0.00  0.00    +0.000 A 
ATOM     19  C   UNL     1      44.636   2.550   9.343  0.00  0.00    +0.000 A 
ATOM     20  C   UNL     1      45.433   1.609   8.691  0.00  0.00    +0.000 A 
BRANCH  15  22
ATOM     21  C   UNL     1      46.856  -0.437   7.354  0.00  0.00    +0.000 C 
ATOM     22  C   UNL     1      47.288   1.002   7.056  0.00  0.00    +0.000 C 
ATOM     23  C   UNL     1      47.326   1.258   5.548  0.00  0.00    +0.000 C 
ENDBRANCH  15  22
ENDBRANCH  14  18
ENDBRANCH   1  14
TORSDOF 4
ENDMDL
MODEL 2
REMARK VINA RESULT:    -7.634      1.576      1.782
REMARK INTER + INTRA:          -9.643
REMARK INTER:                  -9.373
REMARK INTRA:                  -0.270
REMARK UNBOUND:                -0.224
REMARK  Name = 
REMARK  6 active torsions:
REMARK  status: ('A' for Active; 'I' for Inactive)
REMARK    1  A    between atoms: C_1  and  C_2
REMARK    2  A    between atoms: C_2  and  C_3
REMARK    3  A    between atoms: C_2  and  C_4
REMARK    4  A    between atoms: C_7  and  C_8
REMARK    5  A    between atoms: C_8  and  N_9
REMARK    6  A    between atoms: C_13  and  C_14
REMARK                            x       y       z     vdW  Elec       q    Type
REMARK                         _______ _______ _______ _____ _____    ______ ____
ROOT
ATOM      1  N   UNL     1      43.813   5.934  10.682  0.00  0.00    +0.000 N 
ATOM      2  C   UNL     1      44.863   6.256  11.561  0.00  0.00    +0.000 A 
ATOM      3  C   UNL     1      45.221   7.594  11.709  0.00  0.00    +0.000 A 
ATOM      4  C   UNL     1      46.268   7.940  12.567  0.00  0.00    +0.000 A 
ATOM      5  C   UNL     1      46.934   6.934  13.265  0.00  0.00    +0.000 A 
ATOM      6  C   UNL     1      46.515   5.630  13.069  0.00  0.00    +0.000 A 
ATOM      7  N   UNL     1      45.513   5.278  12.225  0.00  0.00    +0.000 NA
ATOM      8  H   UNL     1      42.975   6.433  10.968  0.00  0.00    +0.000 HD
ENDROOT
BRANCH   5   9
ATOM      9  C   UNL     1      48.035   7.188  14.215  0.00  0.00    +0.000 C 
ATOM     10  N   UNL     1      47.915   8.264  15.047  0.00  0.00    +0.000 N 
ATOM     11  O   UNL     1      49.033   6.481  14.238  0.00  0.00    +0.000 OA
ATOM     12  H   UNL     1      47.237   8.999  14.900  0.00  0.00    +0.000 HD
ATOM     13  H   UNL     1      48.723   8.482  15.619  0.00  0.00    +0.000 HD
ENDBRANCH   5   9
BRANCH   1  14
ATOM     14  C   UNL     1      43.568   4.496  10.605  0.00  0.00    +0.000 C 
BRANCH  14  18
ATOM     15  C   UNL     1      46.251   2.466   7.861  0.00  0.00    +0.000 A 
ATOM     16  C   UNL     1      46.111   3.860   7.804  0.00  0.00    +0.000 A 
ATOM     17  C   UNL     1      45.234   4.528   8.666  0.00  0.00    +0.000 A 
ATOM     18  C   UNL     1      44.464   3.816   9.593  0.00  0.00    +0.000 A 
ATOM     19  C   UNL     1      44.607   2.421   9.650  0.00  0.00    +0.000 A 
ATOM     20  C   UNL     1      45.485   1.755   8.795  0.00  0.00    +0.000 A 
BRANCH  15  22
ATOM     21  C   UNL     1      47.103   0.236   7.043  0.00  0.00    +0.000 C 
ATOM     22  C   UNL     1      47.223   1.759   6.934  0.00  0.00    +0.000 C 
ATOM     23  C   UNL     1      47.041   2.219   5.486  0.00  0.00    +0.000 C 
ENDBRANCH  15  22
ENDBRANCH  14  18
ENDBRANCH   1  14
TORSDOF 4
ENDMDL
MODEL 3
REMARK VINA RESULT:    -7.451      3.095      6.941
REMARK INTER + INTRA:          -9.417
REMARK INTER:                  -9.038
REMARK INTRA:                  -0.379
REMARK UNBOUND:                -0.224
REMARK  Name = 
REMARK  6 active torsions:
REMARK  status: ('A' for Active; 'I' for Inactive)
REMARK    1  A    between atoms: C_1  and  C_2
REMARK    2  A    between atoms: C_2  and  C_3
REMARK    3  A    between atoms: C_2  and  C_4
REMARK    4  A    between atoms: C_7  and  C_8
REMARK    5  A    between atoms: C_8  and  N_9
REMARK    6  A    between atoms: C_13  and  C_14
REMARK                            x       y       z     vdW  Elec       q    Type
REMARK                         _______ _______ _______ _____ _____    ______ ____
ROOT
ATOM      1  N   UNL     1      44.004   3.249  10.436  0.00  0.00    +0.000 N 
ATOM      2  C   UNL     1      44.867   3.040   9.345  0.00  0.00    +0.000 A 
ATOM      3  C   UNL     1      45.231   1.733   9.025  0.00  0.00    +0.000 A 
ATOM      4  C   UNL     1      46.097   1.497   7.955  0.00  0.00    +0.000 A 
ATOM      5  C   UNL     1      46.579   2.580   7.220  0.00  0.00    +0.000 A 
ATOM      6  C   UNL     1      46.166   3.846   7.596  0.00  0.00    +0.000 A 
ATOM      7  N   UNL     1      45.341   4.091   8.645  0.00  0.00    +0.000 NA
ATOM      8  H   UNL     1      43.142   2.733  10.281  0.00  0.00    +0.000 HD
ENDROOT
BRANCH   5   9
ATOM      9  C   UNL     1      47.477   2.446   6.056  0.00  0.00    +0.000 C 
ATOM     10  N   UNL     1      48.822   2.479   6.292  0.00  0.00    +0.000 N 
ATOM     11  O   UNL     1      47.037   2.340   4.920  0.00  0.00    +0.000 OA
ATOM     12  H   UNL     1      49.220   2.800   7.163  0.00  0.00    +0.000 HD
ATOM     13  H   UNL     1      49.420   2.488   5.473  0.00  0.00    +0.000 HD
ENDBRANCH   5   9
BRANCH   1  14
ATOM     14  C   UNL     1      43.733   4.665  10.672  0.00  0.00    +0.000 C 
BRANCH  14  18
ATOM     15  C   UNL     1      46.919   6.537  12.950  0.00  0.00    +0.000 A 
ATOM     16  C   UNL     1      46.407   5.295  13.349  0.00  0.00    +0.000 A 
ATOM     17  C   UNL     1      45.365   4.687  12.639  0.00  0.00    +0.000 A 
ATOM     18  C   UNL     1      44.799   5.317  11.524  0.00  0.00    +0.000 A 
ATOM     19  C   UNL     1      45.315   6.560  11.125  0.00  0.00    +0.000 A 
ATOM     20  C   UNL     1      46.357   7.163  11.829  0.00  0.00    +0.000 A 
BRANCH  15  22
ATOM     21  C   UNL     1      48.389   6.395  14.996  0.00  0.00    +0.000 C 
ATOM     22  C   UNL     1      48.064   7.173  13.718  0.00  0.00    +0.000 C 
ATOM     23  C   UNL     1      49.307   7.318  12.837  0.00  0.00    +0.000 C 
ENDBRANCH  15  22
ENDBRANCH  14  18
ENDBRANCH   1  14
TORSDOF 4
ENDMDL
MODEL 4
REMARK VINA RESULT:    -7.097      3.096      4.112
REMARK INTER + INTRA:          -8.980
REMARK INTER:                  -8.450
REMARK INTRA:                  -0.530
REMARK UNBOUND:                -0.224
REMARK  Name = 
REMARK  6 active torsions:
REMARK  status: ('A' for Active; 'I' for Inactive)
REMARK    1  A    between atoms: C_1  and  C_2
REMARK    2  A    between atoms: C_2  and  C_3
REMARK    3  A    between atoms: C_2  and  C_4
REMARK    4  A    between atoms: C_7  and  C_8
REMARK    5  A    between atoms: C_8  and  N_9
REMARK    6  A    between atoms: C_13  and  C_14
REMARK                            x       y       z     vdW  Elec       q    Type
REMARK                         _______ _______ _______ _____ _____    ______ ____
ROOT
ATOM      1  N   UNL     1      44.773   5.401  12.003  0.00  0.00    +0.000 N 
ATOM      2  C   UNL     1      44.900   6.802  11.978  0.00  0.00    +0.000 A 
ATOM      3  C   UNL     1      45.735   7.411  12.912  0.00  0.00    +0.000 A 
ATOM      4  C   UNL     1      45.870   8.802  12.918  0.00  0.00    +0.000 A 
ATOM      5  C   UNL     1      45.166   9.556  11.980  0.00  0.00    +0.000 A 
ATOM      6  C   UNL     1      44.361   8.876  11.083  0.00  0.00    +0.000 A 
ATOM      7  N   UNL     1      44.206   7.529  11.079  0.00  0.00    +0.000 NA
ATOM      8  H   UNL     1      45.692   4.982  11.893  0.00  0.00    +0.000 HD
ENDROOT
BRANCH   5   9
ATOM      9  C   UNL     1      45.253  11.026  11.879  0.00  0.00    +0.000 C 
ATOM     10  N   UNL     1      44.080  11.723  11.807  0.00  0.00    +0.000 N 
ATOM     11  O   UNL     1      46.332  11.599  11.831  0.00  0.00    +0.000 OA
ATOM     12  H   UNL     1      43.193  11.286  11.604  0.00  0.00    +0.000 HD
ATOM     13  H   UNL     1      44.161  12.719  11.636  0.00  0.00    +0.000 HD
ENDBRANCH   5   9
BRANCH   1  14
ATOM     14  C   UNL     1      43.844   4.905  10.991  0.00  0.00    +0.000 C 
BRANCH  14  18
ATOM     15  C   UNL     1      45.973   2.592   7.997  0.00  0.00    +0.000 A 
ATOM     16  C   UNL     1      46.075   3.990   8.008  0.00  0.00    +0.000 A 
ATOM     17  C   UNL     1      45.379   4.753   8.952  0.00  0.00    +0.000 A 
ATOM     18  C   UNL     1      44.549   4.136   9.895  0.00  0.00    +0.000 A 
ATOM     19  C   UNL     1      44.449   2.736   9.884  0.00  0.00    +0.000 A 
ATOM     20  C   UNL     1      45.148   1.975   8.947  0.00  0.00    +0.000 A 
BRANCH  15  22
ATOM     21  C   UNL     1      48.092   2.436   6.635  0.00  0.00    +0.000 C 
ATOM     22  C   UNL     1      46.753   1.778   6.980  0.00  0.00    +0.000 C 
ATOM     23  C   UNL     1      46.959   0.341   7.463  0.00  0.00    +0.000 C 
ENDBRANCH  15  22
ENDBRANCH  14  18
ENDBRANCH   1  14
TORSDOF 4
ENDMDL
MODEL 5
REMARK VINA RESULT:    -6.902      3.564      8.086
REMARK INTER + INTRA:          -8.740
REMARK INTER:                  -8.268
REMARK INTRA:                  -0.472
REMARK UNBOUND:                -0.224
REMARK  Name = 
REMARK  6 active torsions:
REMARK  status: ('A' for Active; 'I' for Inactive)
REMARK    1  A    between atoms: C_1  and  C_2
REMARK    2  A    between atoms: C_2  and  C_3
REMARK    3  A    between atoms: C_2  and  C_4
REMARK    4  A    between atoms: C_7  and  C_8
REMARK    5  A    between atoms: C_8  and  N_9
REMARK    6  A    between atoms: C_13  and  C_14
REMARK                            x       y       z     vdW  Elec       q    Type
REMARK                         _______ _______ _______ _____ _____    ______ ____
ROOT
ATOM      1  N   UNL     1      47.284   5.253  15.134  0.00  0.00    +0.000 N 
ATOM      2  C   UNL     1      46.604   5.006  13.928  0.00  0.00    +0.000 A 
ATOM      3  C   UNL     1      46.645   5.976  12.929  0.00  0.00    +0.000 A 
ATOM      4  C   UNL     1      45.969   5.762  11.726  0.00  0.00    +0.000 A 
ATOM      5  C   UNL     1      45.266   4.571  11.545  0.00  0.00    +0.000 A 
ATOM      6  C   UNL     1      45.279   3.654  12.582  0.00  0.00    +0.000 A 
ATOM      7  N   UNL     1      45.915   3.858  13.762  0.00  0.00    +0.000 NA
ATOM      8  H   UNL     1      48.265   5.428  14.933  0.00  0.00    +0.000 HD
ENDROOT
BRANCH   5   9
ATOM      9  C   UNL     1      44.539   4.229  10.307  0.00  0.00    +0.000 C 
ATOM     10  N   UNL     1      44.905   4.876   9.162  0.00  0.00    +0.000 N 
ATOM     11  O   UNL     1      43.622   3.419  10.309  0.00  0.00    +0.000 OA
ATOM     12  H   UNL     1      45.478   5.708   9.160  0.00  0.00    +0.000 HD
ATOM     13  H   UNL     1      44.328   4.704   8.346  0.00  0.00    +0.000 HD
ENDBRANCH   5   9
BRANCH   1  14
ATOM     14  C   UNL     1      47.130   4.165  16.097  0.00  0.00    +0.000 C 
BRANCH  14  18
ATOM     15  C   UNL     1      51.027   3.033  17.638  0.00  0.00    +0.000 A 
ATOM     16  C   UNL     1      50.168   2.057  17.116  0.00  0.00    +0.000 A 
ATOM     17  C   UNL     1      48.899   2.401  16.634  0.00  0.00    +0.000 A 
ATOM     18  C   UNL     1      48.454   3.727  16.683  0.00  0.00    +0.000 A 
ATOM     19  C   UNL     1      49.316   4.703  17.204  0.00  0.00    +0.000 A 
ATOM     20  C   UNL     1      50.583   4.362  17.678  0.00  0.00    +0.000 A 
BRANCH  15  22
ATOM     21  C   UNL     1      52.831   1.269  17.619  0.00  0.00    +0.000 C 
ATOM     22  C   UNL     1      52.408   2.647  18.135  0.00  0.00    +0.000 C 
ATOM     23  C   UNL     1      53.446   3.709  17.767  0.00  0.00    +0.000 C 
ENDBRANCH  15  22
ENDBRANCH  14  18
ENDBRANCH   1  14
TORSDOF 4
ENDMDL
MODEL 6
REMARK VINA RESULT:    -6.785      1.773      2.507
REMARK INTER + INTRA:          -8.596
REMARK INTER:                  -8.320
REMARK INTRA:                  -0.276
REMARK UNBOUND:                -0.224
REMARK  Name = 
REMARK  6 active torsions:
REMARK  status: ('A' for Active; 'I' for Inactive)
REMARK    1  A    between atoms: C_1  and  C_2
REMARK    2  A    between atoms: C_2  and  C_3
REMARK    3  A    between atoms: C_2  and  C_4
REMARK    4  A    between atoms: C_7  and  C_8
REMARK    5  A    between atoms: C_8  and  N_9
REMARK    6  A    between atoms: C_13  and  C_14
REMARK                            x       y       z     vdW  Elec       q    Type
REMARK                         _______ _______ _______ _____ _____    ______ ____
ROOT
ATOM      1  N   UNL     1      44.265   3.749  11.885  0.00  0.00    +0.000 N 
ATOM      2  C   UNL     1      45.314   4.554  12.364  0.00  0.00    +0.000 A 
ATOM      3  C   UNL     1      45.782   4.338  13.658  0.00  0.00    +0.000 A 
ATOM      4  C   UNL     1      46.815   5.132  14.164  0.00  0.00    +0.000 A 
ATOM      5  C   UNL     1      47.363   6.127  13.356  0.00  0.00    +0.000 A 
ATOM      6  C   UNL     1      46.849   6.275  12.080  0.00  0.00    +0.000 A 
ATOM      7  N   UNL     1      45.834   5.524  11.584  0.00  0.00    +0.000 NA
ATOM      8  H   UNL     1      44.545   2.773  11.938  0.00  0.00    +0.000 HD
ENDROOT
BRANCH   5   9
ATOM      9  C   UNL     1      48.472   7.005  13.777  0.00  0.00    +0.000 C 
ATOM     10  N   UNL     1      49.592   7.026  12.995  0.00  0.00    +0.000 N 
ATOM     11  O   UNL     1      48.407   7.668  14.804  0.00  0.00    +0.000 OA
ATOM     12  H   UNL     1      49.781   6.330  12.288  0.00  0.00    +0.000 HD
ATOM     13  H   UNL     1      50.380   7.554  13.353  0.00  0.00    +0.000 HD
ENDBRANCH   5   9
BRANCH   1  14
ATOM     14  C   UNL     1      43.860   4.107  10.528  0.00  0.00    +0.000 C 
BRANCH  14  18
ATOM     15  C   UNL     1      46.304   2.396   7.374  0.00  0.00    +0.000 A 
ATOM     16  C   UNL     1      45.833   1.585   8.415  0.00  0.00    +0.000 A 
ATOM     17  C   UNL     1      45.062   2.124   9.452  0.00  0.00    +0.000 A 
ATOM     18  C   UNL     1      44.761   3.491   9.480  0.00  0.00    +0.000 A 
ATOM     19  C   UNL     1      45.232   4.301   8.436  0.00  0.00    +0.000 A 
ATOM     20  C   UNL     1      45.995   3.763   7.400  0.00  0.00    +0.000 A 
BRANCH  15  22
ATOM     21  C   UNL     1      46.668   2.312   4.878  0.00  0.00    +0.000 C 
ATOM     22  C   UNL     1      47.120   1.792   6.245  0.00  0.00    +0.000 C 
ATOM     23  C   UNL     1      48.617   2.035   6.453  0.00  0.00    +0.000 C 
ENDBRANCH  15  22
ENDBRANCH  14  18
ENDBRANCH   1  14
TORSDOF 4
ENDMDL
MODEL 7
REMARK VINA RESULT:    -6.483      2.891      7.021
REMARK INTER + INTRA:          -8.223
REMARK INTER:                  -7.748
REMARK INTRA:                  -0.475
REMARK UNBOUND:                -0.224
REMARK  Name = 
REMARK  6 active torsions:
REMARK  status: ('A' for Active; 'I' for Inactive)
REMARK    1  A    between atoms: C_1  and  C_2
REMARK    2  A    between atoms: C_2  and  C_3
REMARK    3  A    between atoms: C_2  and  C_4
REMARK    4  A    between atoms: C_7  and  C_8
REMARK    5  A    between atoms: C_8  and  N_9
REMARK    6  A    between atoms: C_13  and  C_14
REMARK                            x       y       z     vdW  Elec       q    Type
REMARK                         _______ _______ _______ _____ _____    ______ ____
ROOT
ATOM      1  N   UNL     1      44.823   5.191   9.581  0.00  0.00    +0.000 N 
ATOM      2  C   UNL     1      45.397   4.107   8.893  0.00  0.00    +0.000 A 
ATOM      3  C   UNL     1      45.971   4.340   7.644  0.00  0.00    +0.000 A 
ATOM      4  C   UNL     1      46.537   3.279   6.933  0.00  0.00    +0.000 A 
ATOM      5  C   UNL     1      46.522   2.002   7.492  0.00  0.00    +0.000 A 
ATOM      6  C   UNL     1      45.940   1.854   8.739  0.00  0.00    +0.000 A 
ATOM      7  N   UNL     1      45.369   2.871   9.431  0.00  0.00    +0.000 NA
ATOM      8  H   UNL     1      45.527   5.912   9.710  0.00  0.00    +0.000 HD
ENDROOT
BRANCH   5   9
ATOM      9  C   UNL     1      47.113   0.816   6.842  0.00  0.00    +0.000 C 
ATOM     10  N   UNL     1      46.887  -0.399   7.424  0.00  0.00    +0.000 N 
ATOM     11  O   UNL     1      47.804   0.917   5.838  0.00  0.00    +0.000 OA
ATOM     12  H   UNL     1      46.535  -0.501   8.365  0.00  0.00    +0.000 HD
ATOM     13  H   UNL     1      47.384  -1.187   7.023  0.00  0.00    +0.000 HD
ENDBRANCH   5   9
BRANCH   1  14
ATOM     14  C   UNL     1      44.236   4.794  10.858  0.00  0.00    +0.000 C 
BRANCH  14  18
ATOM     15  C   UNL     1      47.152   5.351  14.026  0.00  0.00    +0.000 A 
ATOM     16  C   UNL     1      46.575   4.091  13.816  0.00  0.00    +0.000 A 
ATOM     17  C   UNL     1      45.617   3.898  12.813  0.00  0.00    +0.000 A 
ATOM     18  C   UNL     1      45.201   4.967  12.011  0.00  0.00    +0.000 A 
ATOM     19  C   UNL     1      45.780   6.227  12.221  0.00  0.00    +0.000 A 
ATOM     20  C   UNL     1      46.739   6.418  13.216  0.00  0.00    +0.000 A 
BRANCH  15  22
ATOM     21  C   UNL     1      48.559   7.015  15.298  0.00  0.00    +0.000 C 
ATOM     22  C   UNL     1      48.205   5.538  15.103  0.00  0.00    +0.000 C 
ATOM     23  C   UNL     1      47.766   4.903  16.423  0.00  0.00    +0.000 C 
ENDBRANCH  15  22
ENDBRANCH  14  18
ENDBRANCH   1  14
TORSDOF 4
ENDMDL
MODEL 8
REMARK VINA RESULT:    -6.345      3.636      8.883
REMARK INTER + INTRA:          -8.053
REMARK INTER:                  -7.643
REMARK INTRA:                  -0.410
REMARK UNBOUND:                -0.224
REMARK  Name = 
REMARK  6 active torsions:
REMARK  status: ('A' for Active; 'I' for Inactive)
REMARK    1  A    between atoms: C_1  and  C_2
REMARK    2  A    between atoms: C_2  and  C_3
REMARK    3  A    between atoms: C_2  and  C_4
REMARK    4  A    between atoms: C_7  and  C_8
REMARK    5  A    between atoms: C_8  and  N_9
REMARK    6  A    between atoms: C_13  and  C_14
REMARK                            x       y       z     vdW  Elec       q    Type
REMARK                         _______ _______ _______ _____ _____    ______ ____
ROOT
ATOM      1  N   UNL     1      47.056   5.250  14.657  0.00  0.00    +0.000 N 
ATOM      2  C   UNL     1      46.362   4.868  13.495  0.00  0.00    +0.000 A 
ATOM      3  C   UNL     1      46.137   5.826  12.508  0.00  0.00    +0.000 A 
ATOM      4  C   UNL     1      45.439   5.476  11.349  0.00  0.00    +0.000 A 
ATOM      5  C   UNL     1      44.983   4.167  11.201  0.00  0.00    +0.000 A 
ATOM      6  C   UNL     1      45.252   3.273  12.222  0.00  0.00    +0.000 A 
ATOM      7  N   UNL     1      45.911   3.604  13.361  0.00  0.00    +0.000 NA
ATOM      8  H   UNL     1      47.965   5.621  14.394  0.00  0.00    +0.000 HD
ENDROOT
BRANCH   5   9
ATOM      9  C   UNL     1      44.259   3.682  10.009  0.00  0.00    +0.000 C 
ATOM     10  N   UNL     1      43.990   4.589   9.023  0.00  0.00    +0.000 N 
ATOM     11  O   UNL     1      43.885   2.521   9.919  0.00  0.00    +0.000 OA
ATOM     12  H   UNL     1      44.064   5.587   9.159  0.00  0.00    +0.000 HD
ATOM     13  H   UNL     1      43.405   4.263   8.262  0.00  0.00    +0.000 HD
ENDBRANCH   5   9
BRANCH   1  14
ATOM     14  C   UNL     1      47.192   4.155  15.614  0.00  0.00    +0.000 C 
BRANCH  14  18
ATOM     15  C   UNL     1      49.638   5.121  19.068  0.00  0.00    +0.000 A 
ATOM     16  C   UNL     1      49.281   6.125  18.157  0.00  0.00    +0.000 A 
ATOM     17  C   UNL     1      48.511   5.828  17.027  0.00  0.00    +0.000 A 
ATOM     18  C   UNL     1      48.097   4.515  16.772  0.00  0.00    +0.000 A 
ATOM     19  C   UNL     1      48.453   3.512  17.685  0.00  0.00    +0.000 A 
ATOM     20  C   UNL     1      49.216   3.809  18.815  0.00  0.00    +0.000 A 
BRANCH  15  22
ATOM     21  C   UNL     1      49.684   5.170  21.590  0.00  0.00    +0.000 C 
ATOM     22  C   UNL     1      50.455   5.464  20.301  0.00  0.00    +0.000 C 
ATOM     23  C   UNL     1      51.802   4.738  20.292  0.00  0.00    +0.000 C 
ENDBRANCH  15  22
ENDBRANCH  14  18
ENDBRANCH   1  14
TORSDOF 4
ENDMDL
MODEL 9
REMARK VINA RESULT:    -6.086      3.367      4.318
REMARK INTER + INTRA:          -7.733
REMARK INTER:                  -7.406
REMARK INTRA:                  -0.327
REMARK UNBOUND:                -0.224
REMARK  Name = 
REMARK  6 active torsions:
REMARK  status: ('A' for Active; 'I' for Inactive)
REMARK    1  A    between atoms: C_1  and  C_2
REMARK    2  A    between atoms: C_2  and  C_3
REMARK    3  A    between atoms: C_2  and  C_4
REMARK    4  A    between atoms: C_7  and  C_8
REMARK    5  A    between atoms: C_8  and  N_9
REMARK    6  A    between atoms: C_13  and  C_14
REMARK                            x       y       z     vdW  Elec       q    Type
REMARK                         _______ _______ _______ _____ _____    ______ ____
ROOT
ATOM      1  N   UNL     1      43.980   7.518  11.463  0.00  0.00    +0.000 N 
ATOM      2  C   UNL     1      45.058   8.341  11.838  0.00  0.00    +0.000 A 
ATOM      3  C   UNL     1      45.064   9.667  11.410  0.00  0.00    +0.000 A 
ATOM      4  C   UNL     1      46.128  10.503  11.758  0.00  0.00    +0.000 A 
ATOM      5  C   UNL     1      47.165   9.992  12.536  0.00  0.00    +0.000 A 
ATOM      6  C   UNL     1      47.083   8.667  12.928  0.00  0.00    +0.000 A 
ATOM      7  N   UNL     1      46.066   7.840  12.581  0.00  0.00    +0.000 NA
ATOM      8  H   UNL     1      43.113   7.937  11.788  0.00  0.00    +0.000 HD
ENDROOT
BRANCH   5   9
ATOM      9  C   UNL     1      48.324  10.790  12.983  0.00  0.00    +0.000 C 
ATOM     10  N   UNL     1      48.067  11.940  13.675  0.00  0.00    +0.000 N 
ATOM     11  O   UNL     1      49.470  10.454  12.720  0.00  0.00    +0.000 OA
ATOM     12  H   UNL     1      47.155  12.372  13.704  0.00  0.00    +0.000 HD
ATOM     13  H   UNL     1      48.868  12.526  13.884  0.00  0.00    +0.000 HD
ENDBRANCH   5   9
BRANCH   1  14
ATOM     14  C   UNL     1      44.122   6.151  11.957  0.00  0.00    +0.000 C 
BRANCH  14  18
ATOM     15  C   UNL     1      45.313   3.540   8.700  0.00  0.00    +0.000 A 
ATOM     16  C   UNL     1      44.382   3.097   9.649  0.00  0.00    +0.000 A 
ATOM     17  C   UNL     1      44.002   3.918  10.718  0.00  0.00    +0.000 A 
ATOM     18  C   UNL     1      44.561   5.192  10.872  0.00  0.00    +0.000 A 
ATOM     19  C   UNL     1      45.492   5.634   9.919  0.00  0.00    +0.000 A 
ATOM     20  C   UNL     1      45.865   4.819   8.851  0.00  0.00    +0.000 A 
BRANCH  15  22
ATOM     21  C   UNL     1      46.611   3.371   6.542  0.00  0.00    +0.000 C 
ATOM     22  C   UNL     1      45.697   2.646   7.534  0.00  0.00    +0.000 C 
ATOM     23  C   UNL     1      46.341   1.347   8.022  0.00  0.00    +0.000 C 
ENDBRANCH  15  22
ENDBRANCH  14  18
ENDBRANCH   1  14
TORSDOF 4
ENDMDL
