MODEL 1
REMARK VINA RESULT:    -6.809      0.000      0.000
REMARK INTER + INTRA:          -7.896
REMARK INTER:                  -8.003
REMARK INTRA:                   0.107
REMARK UNBOUND:                 0.107
REMARK  Name = 
REMARK  5 active torsions:
REMARK  status: ('A' for Active; 'I' for Inactive)
REMARK    1  A    between atoms: C_1  and  C_2
REMARK    2  A    between atoms: C_2  and  C_3
REMARK    3  A    between atoms: C_2  and  N_9
REMARK    4  A    between atoms: N_9  and  C_10
REMARK    5  A    between atoms: C_11  and  C_13
REMARK                            x       y       z     vdW  Elec       q    Type
REMARK                         _______ _______ _______ _____ _____    ______ ____
ROOT
ATOM      1  N   UNL     1      45.114   5.795  12.092  0.00  0.00    +0.000 N 
ATOM      2  C   UNL     1      44.374   5.561  13.326  0.00  0.00    +0.000 C 
ATOM      3  C   UNL     1      46.468   6.177  12.037  0.00  0.00    +0.000 C 
ATOM      4  O   UNL     1      47.028   6.378  10.961  0.00  0.00    +0.000 OA
ENDROOT
BRANCH   3   5
ATOM      5  C   UNL     1      47.243   6.318  13.283  0.00  0.00    +0.000 A 
ATOM      6  C   UNL     1      47.756   7.507  13.770  0.00  0.00    +0.000 A 
ATOM      7  S   UNL     1      48.569   7.351  15.263  0.00  0.00    +0.000 S 
ATOM      8  C   UNL     1      48.141   5.710  15.385  0.00  0.00    +0.000 A 
ATOM      9  N   UNL     1      48.458   4.987  16.494  0.00  0.00    +0.000 NA
ATOM     10  C   UNL     1      48.010   3.775  16.476  0.00  0.00    +0.000 A 
ATOM     11  N   UNL     1      47.310   3.214  15.439  0.00  0.00    +0.000 N 
ATOM     12  C   UNL     1      47.088   3.863  14.242  0.00  0.00    +0.000 A 
ATOM     13  O   UNL     1      46.668   3.256  13.267  0.00  0.00    +0.000 OA
ATOM     14  C   UNL     1      47.467   5.268  14.259  0.00  0.00    +0.000 A 
ATOM     15  H   UNL     1      47.047   2.242  15.465  0.00  0.00    +0.000 HD
ENDBRANCH   3   5
BRANCH   1  17
ATOM     16  C   UNL     1      42.855   5.910  11.072  0.00  0.00    +0.000 C 
ATOM     17  C   UNL     1      44.360   5.725  10.819  0.00  0.00    +0.000 C 
BRANCH  17  18
ATOM     18  C   UNL     1      44.715   4.492   9.990  0.00  0.00    +0.000 A 
ATOM     19  C   UNL     1      44.344   3.189  10.361  0.00  0.00    +0.000 A 
ATOM     20  C   UNL     1      44.695   2.090   9.571  0.00  0.00    +0.000 A 
ATOM     21  C   UNL     1      45.415   2.274   8.394  0.00  0.00    +0.000 A 
ATOM     22  C   UNL     1      45.787   3.558   8.006  0.00  0.00    +0.000 A 
ATOM     23  C   UNL     1      45.446   4.657   8.801  0.00  0.00    +0.000 A 
ENDBRANCH  17  18
ENDBRANCH   1  17
TORSDOF 3
ENDMDL
MODEL 2
REMARK VINA RESULT:    -6.797      1.441      2.037
REMARK INTER + INTRA:          -7.882
REMARK INTER:                  -8.129
REMARK INTRA:                   0.247
REMARK UNBOUND:                 0.107
REMARK  Name = 
REMARK  5 active torsions:
REMARK  status: ('A' for Active; 'I' for Inactive)
REMARK    1  A    between atoms: C_1  and  C_2
REMARK    2  A    between atoms: C_2  and  C_3
REMARK    3  A    between atoms: C_2  and  N_9
REMARK    4  A    between atoms: N_9  and  C_10
REMARK    5  A    between atoms: C_11  and  C_13
REMARK                            x       y       z     vdW  Elec       q    Type
REMARK                         _______ _______ _______ _____ _____    ______ ____
ROOT
ATOM      1  N   UNL     1      45.211   5.553  12.549  0.00  0.00    +0.000 N 
ATOM      2  C   UNL     1      45.023   6.998  12.583  0.00  0.00    +0.000 C 
ATOM      3  C   UNL     1      46.366   4.889  13.005  0.00  0.00    +0.000 C 
ATOM      4  O   UNL     1      46.469   3.667  12.929  0.00  0.00    +0.000 OA
ENDROOT
BRANCH   3   5
ATOM      5  C   UNL     1      47.468   5.663  13.606  0.00  0.00    +0.000 A 
ATOM      6  C   UNL     1      48.229   6.611  12.943  0.00  0.00    +0.000 A 
ATOM      7  S   UNL     1      49.401   7.368  13.926  0.00  0.00    +0.000 S 
ATOM      8  C   UNL     1      48.840   6.558  15.311  0.00  0.00    +0.000 A 
ATOM      9  N   UNL     1      49.368   6.825  16.537  0.00  0.00    +0.000 NA
ATOM     10  C   UNL     1      48.799   6.186  17.506  0.00  0.00    +0.000 A 
ATOM     11  N   UNL     1      47.779   5.282  17.353  0.00  0.00    +0.000 N 
ATOM     12  C   UNL     1      47.309   4.878  16.121  0.00  0.00    +0.000 A 
ATOM     13  O   UNL     1      46.567   3.910  16.019  0.00  0.00    +0.000 OA
ATOM     14  C   UNL     1      47.834   5.656  15.010  0.00  0.00    +0.000 A 
ATOM     15  H   UNL     1      47.425   4.772  18.146  0.00  0.00    +0.000 HD
ENDBRANCH   3   5
BRANCH   1  17
ATOM     16  C   UNL     1      43.571   3.721  12.889  0.00  0.00    +0.000 C 
ATOM     17  C   UNL     1      44.157   4.741  11.898  0.00  0.00    +0.000 C 
BRANCH  17  18
ATOM     18  C   UNL     1      44.610   4.141  10.568  0.00  0.00    +0.000 A 
ATOM     19  C   UNL     1      45.292   4.881   9.588  0.00  0.00    +0.000 A 
ATOM     20  C   UNL     1      45.683   4.288   8.383  0.00  0.00    +0.000 A 
ATOM     21  C   UNL     1      45.407   2.946   8.140  0.00  0.00    +0.000 A 
ATOM     22  C   UNL     1      44.737   2.194   9.101  0.00  0.00    +0.000 A 
ATOM     23  C   UNL     1      44.336   2.788  10.301  0.00  0.00    +0.000 A 
ENDBRANCH  17  18
ENDBRANCH   1  17
TORSDOF 3
ENDMDL
MODEL 3
REMARK VINA RESULT:    -6.776      1.570      2.662
REMARK INTER + INTRA:          -7.857
REMARK INTER:                  -8.054
REMARK INTRA:                   0.197
REMARK UNBOUND:                 0.107
REMARK  Name = 
REMARK  5 active torsions:
REMARK  status: ('A' for Active; 'I' for Inactive)
REMARK    1  A    between atoms: C_1  and  C_2
REMARK    2  A    between atoms: C_2  and  C_3
REMARK    3  A    between atoms: C_2  and  N_9
REMARK    4  A    between atoms: N_9  and  C_10
REMARK    5  A    between atoms: C_11  and  C_13
REMARK                            x       y       z     vdW  Elec       q    Type
REMARK                         _______ _______ _______ _____ _____    ______ ____
ROOT
ATOM      1  N   UNL     1      44.709   4.666  12.548  0.00  0.00    +0.000 N 
ATOM      2  C   UNL     1      44.326   6.024  12.915  0.00  0.00    +0.000 C 
ATOM      3  C   UNL     1      45.846   3.999  13.042  0.00  0.00    +0.000 C 
ATOM      4  O   UNL     1      46.123   2.859  12.676  0.00  0.00    +0.000 OA
ENDROOT
BRANCH   3   5
ATOM      5  C   UNL     1      46.714   4.662  14.033  0.00  0.00    +0.000 A 
ATOM      6  C   UNL     1      46.861   4.268  15.351  0.00  0.00    +0.000 A 
ATOM      7  S   UNL     1      47.976   5.211  16.236  0.00  0.00    +0.000 S 
ATOM      8  C   UNL     1      48.410   6.093  14.850  0.00  0.00    +0.000 A 
ATOM      9  N   UNL     1      49.403   7.023  14.898  0.00  0.00    +0.000 NA
ATOM     10  C   UNL     1      49.671   7.565  13.755  0.00  0.00    +0.000 A 
ATOM     11  N   UNL     1      49.014   7.288  12.584  0.00  0.00    +0.000 N 
ATOM     12  C   UNL     1      47.914   6.459  12.516  0.00  0.00    +0.000 A 
ATOM     13  O   UNL     1      47.220   6.418  11.509  0.00  0.00    +0.000 OA
ATOM     14  C   UNL     1      47.650   5.734  13.749  0.00  0.00    +0.000 A 
ATOM     15  H   UNL     1      49.233   7.796  11.742  0.00  0.00    +0.000 HD
ENDBRANCH   3   5
BRANCH   1  17
ATOM     16  C   UNL     1      43.262   2.706  12.077  0.00  0.00    +0.000 C 
ATOM     17  C   UNL     1      43.901   3.985  11.510  0.00  0.00    +0.000 C 
BRANCH  17  18
ATOM     18  C   UNL     1      44.667   3.782  10.204  0.00  0.00    +0.000 A 
ATOM     19  C   UNL     1      44.837   2.523   9.604  0.00  0.00    +0.000 A 
ATOM     20  C   UNL     1      45.550   2.387   8.409  0.00  0.00    +0.000 A 
ATOM     21  C   UNL     1      46.100   3.506   7.790  0.00  0.00    +0.000 A 
ATOM     22  C   UNL     1      45.939   4.763   8.366  0.00  0.00    +0.000 A 
ATOM     23  C   UNL     1      45.235   4.899   9.566  0.00  0.00    +0.000 A 
ENDBRANCH  17  18
ENDBRANCH   1  17
TORSDOF 3
ENDMDL
MODEL 4
REMARK VINA RESULT:    -6.509      2.176      3.380
REMARK INTER + INTRA:          -7.543
REMARK INTER:                  -8.363
REMARK INTRA:                   0.820
REMARK UNBOUND:                 0.107
REMARK  Name = 
REMARK  5 active torsions:
REMARK  status: ('A' for Active; 'I' for Inactive)
REMARK    1  A    between atoms: C_1  and  C_2
REMARK    2  A    between atoms: C_2  and  C_3
REMARK    3  A    between atoms: C_2  and  N_9
REMARK    4  A    between atoms: N_9  and  C_10
REMARK    5  A    between atoms: C_11  and  C_13
REMARK                            x       y       z     vdW  Elec       q    Type
REMARK                         _______ _______ _______ _____ _____    ______ ____
ROOT
ATOM      1  N   UNL     1      45.001   5.053   9.958  0.00  0.00    +0.000 N 
ATOM      2  C   UNL     1      46.253   5.491   9.354  0.00  0.00    +0.000 C 
ATOM      3  C   UNL     1      44.360   5.711  11.025  0.00  0.00    +0.000 C 
ATOM      4  O   UNL     1      43.314   5.277  11.503  0.00  0.00    +0.000 OA
ENDROOT
BRANCH   3   5
ATOM      5  C   UNL     1      44.933   6.956  11.572  0.00  0.00    +0.000 A 
ATOM      6  C   UNL     1      44.457   8.229  11.314  0.00  0.00    +0.000 A 
ATOM      7  S   UNL     1      45.306   9.464  12.133  0.00  0.00    +0.000 S 
ATOM      8  C   UNL     1      46.252   8.329  12.973  0.00  0.00    +0.000 A 
ATOM      9  N   UNL     1      47.142   8.729  13.923  0.00  0.00    +0.000 NA
ATOM     10  C   UNL     1      47.740   7.756  14.526  0.00  0.00    +0.000 A 
ATOM     11  N   UNL     1      47.555   6.427  14.241  0.00  0.00    +0.000 N 
ATOM     12  C   UNL     1      46.771   5.983  13.197  0.00  0.00    +0.000 A 
ATOM     13  O   UNL     1      46.814   4.815  12.832  0.00  0.00    +0.000 OA
ATOM     14  C   UNL     1      45.985   7.032  12.567  0.00  0.00    +0.000 A 
ATOM     15  H   UNL     1      48.103   5.722  14.708  0.00  0.00    +0.000 HD
ENDBRANCH   3   5
BRANCH   1  17
ATOM     16  C   UNL     1      44.001   2.898  10.674  0.00  0.00    +0.000 C 
ATOM     17  C   UNL     1      44.423   3.775   9.483  0.00  0.00    +0.000 C 
BRANCH  17  18
ATOM     18  C   UNL     1      45.311   3.068   8.461  0.00  0.00    +0.000 A 
ATOM     19  C   UNL     1      45.715   3.665   7.256  0.00  0.00    +0.000 A 
ATOM     20  C   UNL     1      46.526   2.976   6.349  0.00  0.00    +0.000 A 
ATOM     21  C   UNL     1      46.953   1.683   6.633  0.00  0.00    +0.000 A 
ATOM     22  C   UNL     1      46.569   1.075   7.825  0.00  0.00    +0.000 A 
ATOM     23  C   UNL     1      45.749   1.759   8.727  0.00  0.00    +0.000 A 
ENDBRANCH  17  18
ENDBRANCH   1  17
TORSDOF 3
ENDMDL
MODEL 5
REMARK VINA RESULT:    -6.489      2.575      6.782
REMARK INTER + INTRA:          -7.520
REMARK INTER:                  -7.737
REMARK INTRA:                   0.217
REMARK UNBOUND:                 0.107
REMARK  Name = 
REMARK  5 active torsions:
REMARK  status: ('A' for Active; 'I' for Inactive)
REMARK    1  A    between atoms: C_1  and  C_2
REMARK    2  A    between atoms: C_2  and  C_3
REMARK    3  A    between atoms: C_2  and  N_9
REMARK    4  A    between atoms: N_9  and  C_10
REMARK    5  A    between atoms: C_11  and  C_13
REMARK                            x       y       z     vdW  Elec       q    Type
REMARK                         _______ _______ _______ _____ _____    ______ ____
ROOT
ATOM      1  N   UNL     1      47.717   4.305  15.930  0.00  0.00    +0.000 N 
ATOM      2  C   UNL     1      47.725   5.540  16.704  0.00  0.00    +0.000 C 
ATOM      3  C   UNL     1      47.356   4.221  14.571  0.00  0.00    +0.000 C 
ATOM      4  O   UNL     1      47.352   3.143  13.980  0.00  0.00    +0.000 OA
ENDROOT
BRANCH   3   5
ATOM      5  C   UNL     1      46.998   5.444  13.828  0.00  0.00    +0.000 A 
ATOM      6  C   UNL     1      47.846   6.514  13.603  0.00  0.00    +0.000 A 
ATOM      7  S   UNL     1      47.151   7.762  12.668  0.00  0.00    +0.000 S 
ATOM      8  C   UNL     1      45.737   6.855  12.411  0.00  0.00    +0.000 A 
ATOM      9  N   UNL     1      44.747   7.321  11.601  0.00  0.00    +0.000 NA
ATOM     10  C   UNL     1      43.764   6.496  11.444  0.00  0.00    +0.000 A 
ATOM     11  N   UNL     1      43.668   5.270  12.050  0.00  0.00    +0.000 N 
ATOM     12  C   UNL     1      44.577   4.818  12.983  0.00  0.00    +0.000 A 
ATOM     13  O   UNL     1      44.337   3.831  13.667  0.00  0.00    +0.000 OA
ATOM     14  C   UNL     1      45.760   5.656  13.103  0.00  0.00    +0.000 A 
ATOM     15  H   UNL     1      42.842   4.705  11.933  0.00  0.00    +0.000 HD
ENDBRANCH   3   5
BRANCH   1  17
ATOM     16  C   UNL     1      46.994   2.820  17.781  0.00  0.00    +0.000 C 
ATOM     17  C   UNL     1      48.010   3.044  16.649  0.00  0.00    +0.000 C 
BRANCH  17  18
ATOM     18  C   UNL     1      49.471   2.937  17.081  0.00  0.00    +0.000 A 
ATOM     19  C   UNL     1      50.203   4.028  17.579  0.00  0.00    +0.000 A 
ATOM     20  C   UNL     1      51.541   3.882  17.959  0.00  0.00    +0.000 A 
ATOM     21  C   UNL     1      52.168   2.643  17.855  0.00  0.00    +0.000 A 
ATOM     22  C   UNL     1      51.458   1.549  17.369  0.00  0.00    +0.000 A 
ATOM     23  C   UNL     1      50.124   1.696  16.978  0.00  0.00    +0.000 A 
ENDBRANCH  17  18
ENDBRANCH   1  17
TORSDOF 3
ENDMDL
MODEL 6
REMARK VINA RESULT:    -6.240      1.526      2.567
REMARK INTER + INTRA:          -7.227
REMARK INTER:                  -7.378
REMARK INTRA:                   0.151
REMARK UNBOUND:                 0.107
REMARK  Name = 
REMARK  5 active torsions:
REMARK  status: ('A' for Active; 'I' for Inactive)
REMARK    1  A    between atoms: C_1  and  C_2
REMARK    2  A    between atoms: C_2  and  C_3
REMARK    3  A    between atoms: C_2  and  N_9
REMARK    4  A    between atoms: N_9  and  C_10
REMARK    5  A    between atoms: C_11  and  C_13
REMARK                            x       y       z     vdW  Elec       q    Type
REMARK                         _______ _______ _______ _____ _____    ______ ____
ROOT
ATOM      1  N   UNL     1      45.117   5.228  12.341  0.00  0.00    +0.000 N 
ATOM      2  C   UNL     1      44.215   4.630  13.318  0.00  0.00    +0.000 C 
ATOM      3  C   UNL     1      46.443   5.613  12.614  0.00  0.00    +0.000 C 
ATOM      4  O   UNL     1      47.146   6.131  11.749  0.00  0.00    +0.000 OA
ENDROOT
BRANCH   3   5
ATOM      5  C   UNL     1      47.017   5.375  13.952  0.00  0.00    +0.000 A 
ATOM      6  C   UNL     1      46.998   4.164  14.621  0.00  0.00    +0.000 A 
ATOM      7  S   UNL     1      47.787   4.197  16.135  0.00  0.00    +0.000 S 
ATOM      8  C   UNL     1      48.307   5.796  15.888  0.00  0.00    +0.000 A 
ATOM      9  N   UNL     1      49.121   6.412  16.790  0.00  0.00    +0.000 NA
ATOM     10  C   UNL     1      49.491   7.600  16.438  0.00  0.00    +0.000 A 
ATOM     11  N   UNL     1      49.093   8.236  15.291  0.00  0.00    +0.000 N 
ATOM     12  C   UNL     1      48.162   7.707  14.421  0.00  0.00    +0.000 A 
ATOM     13  O   UNL     1      47.664   8.395  13.540  0.00  0.00    +0.000 OA
ATOM     14  C   UNL     1      47.809   6.326  14.709  0.00  0.00    +0.000 A 
ATOM     15  H   UNL     1      49.369   9.188  15.111  0.00  0.00    +0.000 HD
ENDBRANCH   3   5
BRANCH   1  17
ATOM     16  C   UNL     1      43.051   5.794  11.090  0.00  0.00    +0.000 C 
ATOM     17  C   UNL     1      44.565   5.542  11.003  0.00  0.00    +0.000 C 
BRANCH  17  18
ATOM     18  C   UNL     1      44.975   4.523   9.941  0.00  0.00    +0.000 A 
ATOM     19  C   UNL     1      45.735   4.862   8.810  0.00  0.00    +0.000 A 
ATOM     20  C   UNL     1      46.084   3.895   7.862  0.00  0.00    +0.000 A 
ATOM     21  C   UNL     1      45.685   2.572   8.031  0.00  0.00    +0.000 A 
ATOM     22  C   UNL     1      44.936   2.215   9.149  0.00  0.00    +0.000 A 
ATOM     23  C   UNL     1      44.578   3.183  10.091  0.00  0.00    +0.000 A 
ENDBRANCH  17  18
ENDBRANCH   1  17
TORSDOF 3
ENDMDL
MODEL 7
REMARK VINA RESULT:    -6.124      2.129      3.272
REMARK INTER + INTRA:          -7.091
REMARK INTER:                  -6.808
REMARK INTRA:                  -0.283
REMARK UNBOUND:                 0.107
REMARK  Name = 
REMARK  5 active torsions:
REMARK  status: ('A' for Active; 'I' for Inactive)
REMARK    1  A    between atoms: C_1  and  C_2
REMARK    2  A    between atoms: C_2  and  C_3
REMARK    3  A    between atoms: C_2  and  N_9
REMARK    4  A    between atoms: N_9  and  C_10
REMARK    5  A    between atoms: C_11  and  C_13
REMARK                            x       y       z     vdW  Elec       q    Type
REMARK                         _______ _______ _______ _____ _____    ______ ____
ROOT
ATOM      1  N   UNL     1      45.936   5.005  12.848  0.00  0.00    +0.000 N 
ATOM      2  C   UNL     1      46.686   3.818  13.238  0.00  0.00    +0.000 C 
ATOM      3  C   UNL     1      46.285   6.321  13.207  0.00  0.00    +0.000 C 
ATOM      4  O   UNL     1      45.597   7.279  12.860  0.00  0.00    +0.000 OA
ENDROOT
BRANCH   3   5
ATOM      5  C   UNL     1      47.509   6.568  13.992  0.00  0.00    +0.000 A 
ATOM      6  C   UNL     1      47.781   6.020  15.234  0.00  0.00    +0.000 A 
ATOM      7  S   UNL     1      49.304   6.462  15.866  0.00  0.00    +0.000 S 
ATOM      8  C   UNL     1      49.716   7.289  14.440  0.00  0.00    +0.000 A 
ATOM      9  N   UNL     1      50.951   7.841  14.285  0.00  0.00    +0.000 NA
ATOM     10  C   UNL     1      51.145   8.377  13.126  0.00  0.00    +0.000 A 
ATOM     11  N   UNL     1      50.208   8.443  12.127  0.00  0.00    +0.000 N 
ATOM     12  C   UNL     1      48.905   8.023  12.289  0.00  0.00    +0.000 A 
ATOM     13  O   UNL     1      48.046   8.307  11.463  0.00  0.00    +0.000 OA
ATOM     14  C   UNL     1      48.671   7.304  13.531  0.00  0.00    +0.000 A 
ATOM     15  H   UNL     1      50.407   8.934  11.270  0.00  0.00    +0.000 HD
ENDBRANCH   3   5
BRANCH   1  17
ATOM     16  C   UNL     1      43.676   3.987  12.959  0.00  0.00    +0.000 C 
ATOM     17  C   UNL     1      44.667   4.801  12.111  0.00  0.00    +0.000 C 
BRANCH  17  18
ATOM     18  C   UNL     1      44.884   4.259  10.700  0.00  0.00    +0.000 A 
ATOM     19  C   UNL     1      45.486   5.010   9.676  0.00  0.00    +0.000 A 
ATOM     20  C   UNL     1      45.660   4.472   8.397  0.00  0.00    +0.000 A 
ATOM     21  C   UNL     1      45.244   3.173   8.121  0.00  0.00    +0.000 A 
ATOM     22  C   UNL     1      44.650   2.410   9.123  0.00  0.00    +0.000 A 
ATOM     23  C   UNL     1      44.465   2.951  10.399  0.00  0.00    +0.000 A 
ENDBRANCH  17  18
ENDBRANCH   1  17
TORSDOF 3
ENDMDL
MODEL 8
REMARK VINA RESULT:    -5.965      3.212      6.670
REMARK INTER + INTRA:          -6.904
REMARK INTER:                  -6.066
REMARK INTRA:                  -0.838
REMARK UNBOUND:                 0.107
REMARK  Name = 
REMARK  5 active torsions:
REMARK  status: ('A' for Active; 'I' for Inactive)
REMARK    1  A    between atoms: C_1  and  C_2
REMARK    2  A    between atoms: C_2  and  C_3
REMARK    3  A    between atoms: C_2  and  N_9
REMARK    4  A    between atoms: N_9  and  C_10
REMARK    5  A    between atoms: C_11  and  C_13
REMARK                            x       y       z     vdW  Elec       q    Type
REMARK                         _______ _______ _______ _____ _____    ______ ____
ROOT
ATOM      1  N   UNL     1      49.174   7.959  13.456  0.00  0.00    +0.000 N 
ATOM      2  C   UNL     1      49.576   7.262  12.241  0.00  0.00    +0.000 C 
ATOM      3  C   UNL     1      47.843   8.087  13.896  0.00  0.00    +0.000 C 
ATOM      4  O   UNL     1      47.569   8.707  14.922  0.00  0.00    +0.000 OA
ENDROOT
BRANCH   3   5
ATOM      5  C   UNL     1      46.752   7.451  13.134  0.00  0.00    +0.000 A 
ATOM      6  C   UNL     1      45.968   8.087  12.187  0.00  0.00    +0.000 A 
ATOM      7  S   UNL     1      44.818   7.068  11.444  0.00  0.00    +0.000 S 
ATOM      8  C   UNL     1      45.421   5.704  12.258  0.00  0.00    +0.000 A 
ATOM      9  N   UNL     1      44.925   4.462  12.002  0.00  0.00    +0.000 NA
ATOM     10  C   UNL     1      45.525   3.513  12.643  0.00  0.00    +0.000 A 
ATOM     11  N   UNL     1      46.546   3.699  13.539  0.00  0.00    +0.000 N 
ATOM     12  C   UNL     1      46.985   4.946  13.933  0.00  0.00    +0.000 A 
ATOM     13  O   UNL     1      47.730   5.074  14.895  0.00  0.00    +0.000 OA
ATOM     14  C   UNL     1      46.425   6.038  13.152  0.00  0.00    +0.000 A 
ATOM     15  H   UNL     1      46.925   2.919  14.052  0.00  0.00    +0.000 HD
ENDBRANCH   3   5
BRANCH   1  17
ATOM     16  C   UNL     1      51.085   9.532  13.283  0.00  0.00    +0.000 C 
ATOM     17  C   UNL     1      50.228   8.665  14.220  0.00  0.00    +0.000 C 
BRANCH  17  18
ATOM     18  C   UNL     1      51.029   7.730  15.124  0.00  0.00    +0.000 A 
ATOM     19  C   UNL     1      50.428   6.849  16.038  0.00  0.00    +0.000 A 
ATOM     20  C   UNL     1      51.204   6.014  16.848  0.00  0.00    +0.000 A 
ATOM     21  C   UNL     1      52.592   6.039  16.753  0.00  0.00    +0.000 A 
ATOM     22  C   UNL     1      53.207   6.901  15.849  0.00  0.00    +0.000 A 
ATOM     23  C   UNL     1      52.433   7.744  15.048  0.00  0.00    +0.000 A 
ENDBRANCH  17  18
ENDBRANCH   1  17
TORSDOF 3
ENDMDL
MODEL 9
REMARK VINA RESULT:    -5.862      2.051      3.094
REMARK INTER + INTRA:          -6.783
REMARK INTER:                  -6.359
REMARK INTRA:                  -0.424
REMARK UNBOUND:                 0.107
REMARK  Name = 
REMARK  5 active torsions:
REMARK  status: ('A' for Active; 'I' for Inactive)
REMARK    1  A    between atoms: C_1  and  C_2
REMARK    2  A    between atoms: C_2  and  C_3
REMARK    3  A    between atoms: C_2  and  N_9
REMARK    4  A    between atoms: N_9  and  C_10
REMARK    5  A    between atoms: C_11  and  C_13
REMARK                            x       y       z     vdW  Elec       q    Type
REMARK                         _______ _______ _______ _____ _____    ______ ____
ROOT
ATOM      1  N   UNL     1      47.372   7.590  13.517  0.00  0.00    +0.000 N 
ATOM      2  C   UNL     1      47.144   8.709  14.422  0.00  0.00    +0.000 C 
ATOM      3  C   UNL     1      48.219   6.501  13.796  0.00  0.00    +0.000 C 
ATOM      4  O   UNL     1      48.382   5.597  12.978  0.00  0.00    +0.000 OA
ENDROOT
BRANCH   3   5
ATOM      5  C   UNL     1      48.908   6.420  15.097  0.00  0.00    +0.000 A 
ATOM      6  C   UNL     1      49.976   7.213  15.481  0.00  0.00    +0.000 A 
ATOM      7  S   UNL     1      50.526   6.910  17.069  0.00  0.00    +0.000 S 
ATOM      8  C   UNL     1      49.266   5.806  17.352  0.00  0.00    +0.000 A 
ATOM      9  N   UNL     1      49.102   5.233  18.576  0.00  0.00    +0.000 NA
ATOM     10  C   UNL     1      48.064   4.469  18.664  0.00  0.00    +0.000 A 
ATOM     11  N   UNL     1      47.201   4.199  17.633  0.00  0.00    +0.000 N 
ATOM     12  C   UNL     1      47.406   4.644  16.344  0.00  0.00    +0.000 A 
ATOM     13  O   UNL     1      46.749   4.196  15.413  0.00  0.00    +0.000 OA
ATOM     14  C   UNL     1      48.492   5.604  16.221  0.00  0.00    +0.000 A 
ATOM     15  H   UNL     1      46.448   3.541  17.755  0.00  0.00    +0.000 HD
ENDBRANCH   3   5
BRANCH   1  17
ATOM     16  C   UNL     1      46.263   9.087  11.878  0.00  0.00    +0.000 C 
ATOM     17  C   UNL     1      46.749   7.659  12.175  0.00  0.00    +0.000 C 
BRANCH  17  18
ATOM     18  C   UNL     1      45.694   6.574  11.957  0.00  0.00    +0.000 A 
ATOM     19  C   UNL     1      44.751   6.218  12.935  0.00  0.00    +0.000 A 
ATOM     20  C   UNL     1      43.807   5.216  12.691  0.00  0.00    +0.000 A 
ATOM     21  C   UNL     1      43.784   4.558  11.465  0.00  0.00    +0.000 A 
ATOM     22  C   UNL     1      44.707   4.901  10.480  0.00  0.00    +0.000 A 
ATOM     23  C   UNL     1      45.658   5.894  10.727  0.00  0.00    +0.000 A 
ENDBRANCH  17  18
ENDBRANCH   1  17
TORSDOF 3
ENDMDL
