MODEL 1
REMARK VINA RESULT:    -7.759      0.000      0.000
REMARK INTER + INTRA:         -11.039
REMARK INTER:                 -10.027
REMARK INTRA:                  -1.012
REMARK UNBOUND:                -1.012
REMARK  Name = 
REMARK  6 active torsions:
REMARK  status: ('A' for Active; 'I' for Inactive)
REMARK    1  A    between atoms: C_1  and  C_2
REMARK    2  A    between atoms: C_6  and  C_7
REMARK    3  A    between atoms: C_7  and  C_8
REMARK    4  A    between atoms: C_11  and  C_12
REMARK    5  A    between atoms: C_12  and  N_13
REMARK    6  A    between atoms: C_14  and  C_16
REMARK                            x       y       z     vdW  Elec       q    Type
REMARK                         _______ _______ _______ _____ _____    ______ ____
ROOT
ATOM      1  C   UNL     1      47.350   8.268  13.671  0.00  0.00    +0.000 C 
ENDROOT
BRANCH   1   5
ATOM      2  C   UNL     1      44.784   5.941  11.076  0.00  0.00    +0.000 A 
ATOM      3  C   UNL     1      46.004   5.416  11.527  0.00  0.00    +0.000 A 
ATOM      4  C   UNL     1      46.844   6.172  12.350  0.00  0.00    +0.000 A 
ATOM      5  C   UNL     1      46.485   7.470  12.732  0.00  0.00    +0.000 A 
ATOM      6  C   UNL     1      45.303   8.021  12.219  0.00  0.00    +0.000 A 
ATOM      7  C   UNL     1      44.454   7.260  11.410  0.00  0.00    +0.000 A 
BRANCH   2   8
ATOM      8  C   UNL     1      43.822   5.084  10.283  0.00  0.00    +0.000 C 
BRANCH   8  14
ATOM      9  C   UNL     1      46.670   3.802   6.534  0.00  0.00    +0.000 C 
ATOM     10  C   UNL     1      45.869   3.362   7.722  0.00  0.00    +0.000 A 
ATOM     11  C   UNL     1      45.793   2.018   8.068  0.00  0.00    +0.000 A 
ATOM     12  C   UNL     1      45.016   1.654   9.160  0.00  0.00    +0.000 A 
ATOM     13  C   UNL     1      44.348   2.638   9.880  0.00  0.00    +0.000 A 
ATOM     14  C   UNL     1      44.474   3.970   9.487  0.00  0.00    +0.000 A 
ATOM     15  N   UNL     1      45.228   4.334   8.418  0.00  0.00    +0.000 NA
ENDBRANCH   8  14
ENDBRANCH   2   8
ENDBRANCH   1   5
BRANCH   1  16
ATOM     16  N   UNL     1      47.714   7.506  14.836  0.00  0.00    +0.000 N 
ATOM     17  C   UNL     1      48.982   7.003  14.981  0.00  0.00    +0.000 C 
ATOM     18  O   UNL     1      49.869   7.226  14.162  0.00  0.00    +0.000 OA
ATOM     19  H   UNL     1      46.955   7.119  15.389  0.00  0.00    +0.000 HD
BRANCH  17  20
ATOM     20  C   UNL     1      49.246   6.231  16.201  0.00  0.00    +0.000 A 
ATOM     21  C   UNL     1      50.276   6.618  17.049  0.00  0.00    +0.000 A 
ATOM     22  S   UNL     1      50.430   5.632  18.432  0.00  0.00    +0.000 S 
ATOM     23  C   UNL     1      49.155   4.627  17.926  0.00  0.00    +0.000 A 
ATOM     24  N   UNL     1      48.785   3.543  18.658  0.00  0.00    +0.000 NA
ATOM     25  C   UNL     1      47.823   2.853  18.143  0.00  0.00    +0.000 A 
ATOM     26  N   UNL     1      47.189   3.156  16.965  0.00  0.00    +0.000 N 
ATOM     27  C   UNL     1      47.511   4.255  16.206  0.00  0.00    +0.000 A 
ATOM     28  O   UNL     1      46.892   4.523  15.179  0.00  0.00    +0.000 OA
ATOM     29  C   UNL     1      48.601   5.052  16.729  0.00  0.00    +0.000 A 
ATOM     30  H   UNL     1      46.431   2.584  16.624  0.00  0.00    +0.000 HD
ENDBRANCH  17  20
ENDBRANCH   1  16
TORSDOF 5
ENDMDL
MODEL 2
REMARK VINA RESULT:    -7.369      1.468      2.088
REMARK INTER + INTRA:         -10.535
REMARK INTER:                  -9.715
REMARK INTRA:                  -0.820
REMARK UNBOUND:                -1.012
REMARK  Name = 
REMARK  6 active torsions:
REMARK  status: ('A' for Active; 'I' for Inactive)
REMARK    1  A    between atoms: C_1  and  C_2
REMARK    2  A    between atoms: C_6  and  C_7
REMARK    3  A    between atoms: C_7  and  C_8
REMARK    4  A    between atoms: C_11  and  C_12
REMARK    5  A    between atoms: C_12  and  N_13
REMARK    6  A    between atoms: C_14  and  C_16
REMARK                            x       y       z     vdW  Elec       q    Type
REMARK                         _______ _______ _______ _____ _____    ______ ____
ROOT
ATOM      1  C   UNL     1      46.929   7.322  13.499  0.00  0.00    +0.000 C 
ENDROOT
BRANCH   1   5
ATOM      2  C   UNL     1      44.978   4.394  10.978  0.00  0.00    +0.000 A 
ATOM      3  C   UNL     1      45.043   5.739  10.587  0.00  0.00    +0.000 A 
ATOM      4  C   UNL     1      45.655   6.691  11.407  0.00  0.00    +0.000 A 
ATOM      5  C   UNL     1      46.208   6.318  12.638  0.00  0.00    +0.000 A 
ATOM      6  C   UNL     1      46.077   4.989  13.061  0.00  0.00    +0.000 A 
ATOM      7  C   UNL     1      45.480   4.033  12.234  0.00  0.00    +0.000 A 
BRANCH   2   8
ATOM      8  C   UNL     1      44.421   3.344  10.041  0.00  0.00    +0.000 C 
BRANCH   8  14
ATOM      9  C   UNL     1      46.841  -0.162   7.663  0.00  0.00    +0.000 C 
ATOM     10  C   UNL     1      46.459   1.285   7.734  0.00  0.00    +0.000 A 
ATOM     11  C   UNL     1      46.896   2.183   6.767  0.00  0.00    +0.000 A 
ATOM     12  C   UNL     1      46.539   3.520   6.890  0.00  0.00    +0.000 A 
ATOM     13  C   UNL     1      45.752   3.920   7.964  0.00  0.00    +0.000 A 
ATOM     14  C   UNL     1      45.338   2.968   8.893  0.00  0.00    +0.000 A 
ATOM     15  N   UNL     1      45.685   1.660   8.784  0.00  0.00    +0.000 NA
ENDBRANCH   8  14
ENDBRANCH   2   8
ENDBRANCH   1   5
BRANCH   1  16
ATOM     16  N   UNL     1      47.940   6.698  14.311  0.00  0.00    +0.000 N 
ATOM     17  C   UNL     1      48.583   7.400  15.298  0.00  0.00    +0.000 C 
ATOM     18  O   UNL     1      48.290   8.562  15.569  0.00  0.00    +0.000 OA
ATOM     19  H   UNL     1      48.352   5.841  13.956  0.00  0.00    +0.000 HD
BRANCH  17  20
ATOM     20  C   UNL     1      49.604   6.673  16.062  0.00  0.00    +0.000 A 
ATOM     21  C   UNL     1      50.871   7.221  16.211  0.00  0.00    +0.000 A 
ATOM     22  S   UNL     1      51.926   6.262  17.147  0.00  0.00    +0.000 S 
ATOM     23  C   UNL     1      50.741   5.058  17.350  0.00  0.00    +0.000 A 
ATOM     24  N   UNL     1      51.011   3.920  18.041  0.00  0.00    +0.000 NA
ATOM     25  C   UNL     1      50.031   3.081  18.093  0.00  0.00    +0.000 A 
ATOM     26  N   UNL     1      48.800   3.283  17.523  0.00  0.00    +0.000 N 
ATOM     27  C   UNL     1      48.474   4.428  16.839  0.00  0.00    +0.000 A 
ATOM     28  O   UNL     1      47.346   4.596  16.380  0.00  0.00    +0.000 OA
ATOM     29  C   UNL     1      49.547   5.395  16.733  0.00  0.00    +0.000 A 
ATOM     30  H   UNL     1      48.069   2.593  17.614  0.00  0.00    +0.000 HD
ENDBRANCH  17  20
ENDBRANCH   1  16
TORSDOF 5
ENDMDL
MODEL 3
REMARK VINA RESULT:    -7.344      2.713      4.882
REMARK INTER + INTRA:         -10.504
REMARK INTER:                  -9.394
REMARK INTRA:                  -1.109
REMARK UNBOUND:                -1.012
REMARK  Name = 
REMARK  6 active torsions:
REMARK  status: ('A' for Active; 'I' for Inactive)
REMARK    1  A    between atoms: C_1  and  C_2
REMARK    2  A    between atoms: C_6  and  C_7
REMARK    3  A    between atoms: C_7  and  C_8
REMARK    4  A    between atoms: C_11  and  C_12
REMARK    5  A    between atoms: C_12  and  N_13
REMARK    6  A    between atoms: C_14  and  C_16
REMARK                            x       y       z     vdW  Elec       q    Type
REMARK                         _______ _______ _______ _____ _____    ______ ____
ROOT
ATOM      1  C   UNL     1      47.254   5.485  14.395  0.00  0.00    +0.000 C 
ENDROOT
BRANCH   1   5
ATOM      2  C   UNL     1      45.027   4.039  10.977  0.00  0.00    +0.000 A 
ATOM      3  C   UNL     1      45.435   5.379  11.045  0.00  0.00    +0.000 A 
ATOM      4  C   UNL     1      46.138   5.854  12.156  0.00  0.00    +0.000 A 
ATOM      5  C   UNL     1      46.440   5.001  13.224  0.00  0.00    +0.000 A 
ATOM      6  C   UNL     1      45.966   3.683  13.188  0.00  0.00    +0.000 A 
ATOM      7  C   UNL     1      45.278   3.202  12.071  0.00  0.00    +0.000 A 
BRANCH   2   8
ATOM      8  C   UNL     1      44.369   3.495   9.727  0.00  0.00    +0.000 C 
BRANCH   8  14
ATOM      9  C   UNL     1      46.825  -0.191   7.680  0.00  0.00    +0.000 C 
ATOM     10  C   UNL     1      46.475   1.266   7.650  0.00  0.00    +0.000 A 
ATOM     11  C   UNL     1      46.983   2.098   6.659  0.00  0.00    +0.000 A 
ATOM     12  C   UNL     1      46.652   3.446   6.687  0.00  0.00    +0.000 A 
ATOM     13  C   UNL     1      45.820   3.923   7.694  0.00  0.00    +0.000 A 
ATOM     14  C   UNL     1      45.336   3.035   8.652  0.00  0.00    +0.000 A 
ATOM     15  N   UNL     1      45.657   1.715   8.634  0.00  0.00    +0.000 NA
ENDBRANCH   8  14
ENDBRANCH   2   8
ENDBRANCH   1   5
BRANCH   1  16
ATOM     16  N   UNL     1      47.570   6.884  14.280  0.00  0.00    +0.000 N 
ATOM     17  C   UNL     1      48.787   7.366  14.690  0.00  0.00    +0.000 C 
ATOM     18  O   UNL     1      49.671   6.628  15.115  0.00  0.00    +0.000 OA
ATOM     19  H   UNL     1      46.791   7.525  14.161  0.00  0.00    +0.000 HD
BRANCH  17  20
ATOM     20  C   UNL     1      49.005   8.810  14.538  0.00  0.00    +0.000 A 
ATOM     21  C   UNL     1      49.198   9.598  15.665  0.00  0.00    +0.000 A 
ATOM     22  S   UNL     1      49.464  11.245  15.311  0.00  0.00    +0.000 S 
ATOM     23  C   UNL     1      49.286  10.972  13.641  0.00  0.00    +0.000 A 
ATOM     24  N   UNL     1      49.366  11.997  12.752  0.00  0.00    +0.000 NA
ATOM     25  C   UNL     1      49.184  11.652  11.522  0.00  0.00    +0.000 A 
ATOM     26  N   UNL     1      48.939  10.371  11.098  0.00  0.00    +0.000 N 
ATOM     27  C   UNL     1      48.876   9.301  11.957  0.00  0.00    +0.000 A 
ATOM     28  O   UNL     1      48.700   8.158  11.539  0.00  0.00    +0.000 OA
ATOM     29  C   UNL     1      49.052   9.637  13.355  0.00  0.00    +0.000 A 
ATOM     30  H   UNL     1      48.822  10.164  10.117  0.00  0.00    +0.000 HD
ENDBRANCH  17  20
ENDBRANCH   1  16
TORSDOF 5
ENDMDL
MODEL 4
REMARK VINA RESULT:    -7.194      4.288      9.156
REMARK INTER + INTRA:         -10.309
REMARK INTER:                  -9.603
REMARK INTRA:                  -0.707
REMARK UNBOUND:                -1.012
REMARK  Name = 
REMARK  6 active torsions:
REMARK  status: ('A' for Active; 'I' for Inactive)
REMARK    1  A    between atoms: C_1  and  C_2
REMARK    2  A    between atoms: C_6  and  C_7
REMARK    3  A    between atoms: C_7  and  C_8
REMARK    4  A    between atoms: C_11  and  C_12
REMARK    5  A    between atoms: C_12  and  N_13
REMARK    6  A    between atoms: C_14  and  C_16
REMARK                            x       y       z     vdW  Elec       q    Type
REMARK                         _______ _______ _______ _____ _____    ______ ____
ROOT
ATOM      1  C   UNL     1      47.627   3.357  17.077  0.00  0.00    +0.000 C 
ENDROOT
BRANCH   1   5
ATOM      2  C   UNL     1      51.845   2.952  17.954  0.00  0.00    +0.000 A 
ATOM      3  C   UNL     1      51.178   4.158  18.214  0.00  0.00    +0.000 A 
ATOM      4  C   UNL     1      49.819   4.298  17.915  0.00  0.00    +0.000 A 
ATOM      5  C   UNL     1      49.105   3.239  17.342  0.00  0.00    +0.000 A 
ATOM      6  C   UNL     1      49.790   2.062  17.014  0.00  0.00    +0.000 A 
ATOM      7  C   UNL     1      51.144   1.915  17.328  0.00  0.00    +0.000 A 
BRANCH   2   8
ATOM      8  C   UNL     1      53.284   2.758  18.383  0.00  0.00    +0.000 C 
BRANCH   8  14
ATOM      9  C   UNL     1      53.905  -2.021  19.146  0.00  0.00    +0.000 C 
ATOM     10  C   UNL     1      54.173  -0.835  18.269  0.00  0.00    +0.000 A 
ATOM     11  C   UNL     1      54.909  -0.970  17.098  0.00  0.00    +0.000 A 
ATOM     12  C   UNL     1      55.154   0.161  16.331  0.00  0.00    +0.000 A 
ATOM     13  C   UNL     1      54.652   1.389  16.748  0.00  0.00    +0.000 A 
ATOM     14  C   UNL     1      53.911   1.456  17.926  0.00  0.00    +0.000 A 
ATOM     15  N   UNL     1      53.670   0.355  18.685  0.00  0.00    +0.000 NA
ENDBRANCH   8  14
ENDBRANCH   2   8
ENDBRANCH   1   5
BRANCH   1  16
ATOM     16  N   UNL     1      47.334   4.432  16.166  0.00  0.00    +0.000 N 
ATOM     17  C   UNL     1      47.244   4.206  14.816  0.00  0.00    +0.000 C 
ATOM     18  O   UNL     1      47.350   3.081  14.335  0.00  0.00    +0.000 OA
ATOM     19  H   UNL     1      47.478   5.378  16.507  0.00  0.00    +0.000 HD
BRANCH  17  20
ATOM     20  C   UNL     1      46.951   5.373  13.974  0.00  0.00    +0.000 A 
ATOM     21  C   UNL     1      47.860   6.421  13.913  0.00  0.00    +0.000 A 
ATOM     22  S   UNL     1      47.381   7.682  12.870  0.00  0.00    +0.000 S 
ATOM     23  C   UNL     1      45.921   6.893  12.497  0.00  0.00    +0.000 A 
ATOM     24  N   UNL     1      45.010   7.463  11.664  0.00  0.00    +0.000 NA
ATOM     25  C   UNL     1      43.936   6.768  11.491  0.00  0.00    +0.000 A 
ATOM     26  N   UNL     1      43.694   5.548  12.069  0.00  0.00    +0.000 N 
ATOM     27  C   UNL     1      44.595   4.922  12.895  0.00  0.00    +0.000 A 
ATOM     28  O   UNL     1      44.366   3.808  13.359  0.00  0.00    +0.000 OA
ATOM     29  C   UNL     1      45.811   5.671  13.140  0.00  0.00    +0.000 A 
ATOM     30  H   UNL     1      42.839   5.047  11.879  0.00  0.00    +0.000 HD
ENDBRANCH  17  20
ENDBRANCH   1  16
TORSDOF 5
ENDMDL
MODEL 5
REMARK VINA RESULT:    -7.046      1.443      1.837
REMARK INTER + INTRA:         -10.118
REMARK INTER:                  -9.375
REMARK INTRA:                  -0.743
REMARK UNBOUND:                -1.012
REMARK  Name = 
REMARK  6 active torsions:
REMARK  status: ('A' for Active; 'I' for Inactive)
REMARK    1  A    between atoms: C_1  and  C_2
REMARK    2  A    between atoms: C_6  and  C_7
REMARK    3  A    between atoms: C_7  and  C_8
REMARK    4  A    between atoms: C_11  and  C_12
REMARK    5  A    between atoms: C_12  and  N_13
REMARK    6  A    between atoms: C_14  and  C_16
REMARK                            x       y       z     vdW  Elec       q    Type
REMARK                         _______ _______ _______ _____ _____    ______ ____
ROOT
ATOM      1  C   UNL     1      48.259   7.931  13.854  0.00  0.00    +0.000 C 
ENDROOT
BRANCH   1   5
ATOM      2  C   UNL     1      45.045   6.142  11.574  0.00  0.00    +0.000 A 
ATOM      3  C   UNL     1      45.005   7.502  11.912  0.00  0.00    +0.000 A 
ATOM      4  C   UNL     1      46.032   8.080  12.664  0.00  0.00    +0.000 A 
ATOM      5  C   UNL     1      47.115   7.306  13.100  0.00  0.00    +0.000 A 
ATOM      6  C   UNL     1      47.115   5.932  12.826  0.00  0.00    +0.000 A 
ATOM      7  C   UNL     1      46.098   5.358  12.059  0.00  0.00    +0.000 A 
BRANCH   2   8
ATOM      8  C   UNL     1      43.996   5.542  10.663  0.00  0.00    +0.000 C 
BRANCH   8  14
ATOM      9  C   UNL     1      46.658   3.907   6.915  0.00  0.00    +0.000 C 
ATOM     10  C   UNL     1      45.776   3.573   8.080  0.00  0.00    +0.000 A 
ATOM     11  C   UNL     1      45.476   2.251   8.387  0.00  0.00    +0.000 A 
ATOM     12  C   UNL     1      44.632   1.992   9.459  0.00  0.00    +0.000 A 
ATOM     13  C   UNL     1      44.121   3.054  10.198  0.00  0.00    +0.000 A 
ATOM     14  C   UNL     1      44.470   4.356   9.845  0.00  0.00    +0.000 A 
ATOM     15  N   UNL     1      45.291   4.619   8.795  0.00  0.00    +0.000 NA
ENDBRANCH   8  14
ENDBRANCH   2   8
ENDBRANCH   1   5
BRANCH   1  16
ATOM     16  N   UNL     1      48.108   7.772  15.277  0.00  0.00    +0.000 N 
ATOM     17  C   UNL     1      49.007   7.033  16.001  0.00  0.00    +0.000 C 
ATOM     18  O   UNL     1      50.000   6.526  15.487  0.00  0.00    +0.000 OA
ATOM     19  H   UNL     1      47.193   7.974  15.668  0.00  0.00    +0.000 HD
BRANCH  17  20
ATOM     20  C   UNL     1      48.756   6.926  17.444  0.00  0.00    +0.000 A 
ATOM     21  C   UNL     1      48.573   8.079  18.197  0.00  0.00    +0.000 A 
ATOM     22  S   UNL     1      48.266   7.777  19.847  0.00  0.00    +0.000 S 
ATOM     23  C   UNL     1      48.410   6.096  19.624  0.00  0.00    +0.000 A 
ATOM     24  N   UNL     1      48.289   5.238  20.671  0.00  0.00    +0.000 NA
ATOM     25  C   UNL     1      48.450   3.994  20.363  0.00  0.00    +0.000 A 
ATOM     26  N   UNL     1      48.711   3.530  19.099  0.00  0.00    +0.000 N 
ATOM     27  C   UNL     1      48.816   4.357  18.008  0.00  0.00    +0.000 A 
ATOM     28  O   UNL     1      49.005   3.904  16.881  0.00  0.00    +0.000 OA
ATOM     29  C   UNL     1      48.665   5.767  18.302  0.00  0.00    +0.000 A 
ATOM     30  H   UNL     1      48.810   2.542  18.922  0.00  0.00    +0.000 HD
ENDBRANCH  17  20
ENDBRANCH   1  16
TORSDOF 5
ENDMDL
MODEL 6
REMARK VINA RESULT:    -7.012      2.321      2.894
REMARK INTER + INTRA:         -10.074
REMARK INTER:                  -9.084
REMARK INTRA:                  -0.989
REMARK UNBOUND:                -1.012
REMARK  Name = 
REMARK  6 active torsions:
REMARK  status: ('A' for Active; 'I' for Inactive)
REMARK    1  A    between atoms: C_1  and  C_2
REMARK    2  A    between atoms: C_6  and  C_7
REMARK    3  A    between atoms: C_7  and  C_8
REMARK    4  A    between atoms: C_11  and  C_12
REMARK    5  A    between atoms: C_12  and  N_13
REMARK    6  A    between atoms: C_14  and  C_16
REMARK                            x       y       z     vdW  Elec       q    Type
REMARK                         _______ _______ _______ _____ _____    ______ ____
ROOT
ATOM      1  C   UNL     1      48.756   6.872  14.440  0.00  0.00    +0.000 C 
ENDROOT
BRANCH   1   5
ATOM      2  C   UNL     1      45.420   5.924  11.850  0.00  0.00    +0.000 A 
ATOM      3  C   UNL     1      46.084   7.154  11.733  0.00  0.00    +0.000 A 
ATOM      4  C   UNL     1      47.150   7.471  12.580  0.00  0.00    +0.000 A 
ATOM      5  C   UNL     1      47.567   6.569  13.566  0.00  0.00    +0.000 A 
ATOM      6  C   UNL     1      46.855   5.373  13.731  0.00  0.00    +0.000 A 
ATOM      7  C   UNL     1      45.801   5.048  12.873  0.00  0.00    +0.000 A 
BRANCH   2   8
ATOM      8  C   UNL     1      44.344   5.531  10.861  0.00  0.00    +0.000 C 
BRANCH   8  14
ATOM      9  C   UNL     1      46.776   3.993   6.920  0.00  0.00    +0.000 C 
ATOM     10  C   UNL     1      45.910   3.636   8.090  0.00  0.00    +0.000 A 
ATOM     11  C   UNL     1      45.534   2.318   8.319  0.00  0.00    +0.000 A 
ATOM     12  C   UNL     1      44.709   2.039   9.401  0.00  0.00    +0.000 A 
ATOM     13  C   UNL     1      44.292   3.078  10.226  0.00  0.00    +0.000 A 
ATOM     14  C   UNL     1      44.714   4.376   9.949  0.00  0.00    +0.000 A 
ATOM     15  N   UNL     1      45.518   4.659   8.891  0.00  0.00    +0.000 NA
ENDBRANCH   8  14
ENDBRANCH   2   8
ENDBRANCH   1   5
BRANCH   1  16
ATOM     16  N   UNL     1      48.461   6.657  15.832  0.00  0.00    +0.000 N 
ATOM     17  C   UNL     1      49.389   6.093  16.668  0.00  0.00    +0.000 C 
ATOM     18  O   UNL     1      50.519   5.801  16.287  0.00  0.00    +0.000 OA
ATOM     19  H   UNL     1      47.482   6.668  16.102  0.00  0.00    +0.000 HD
BRANCH  17  20
ATOM     20  C   UNL     1      48.985   5.909  18.068  0.00  0.00    +0.000 A 
ATOM     21  C   UNL     1      49.133   4.665  18.667  0.00  0.00    +0.000 A 
ATOM     22  S   UNL     1      48.641   4.629  20.300  0.00  0.00    +0.000 S 
ATOM     23  C   UNL     1      48.170   6.263  20.251  0.00  0.00    +0.000 A 
ATOM     24  N   UNL     1      47.620   6.866  21.338  0.00  0.00    +0.000 NA
ATOM     25  C   UNL     1      47.284   8.099  21.152  0.00  0.00    +0.000 A 
ATOM     26  N   UNL     1      47.457   8.787  19.979  0.00  0.00    +0.000 N 
ATOM     27  C   UNL     1      48.032   8.227  18.864  0.00  0.00    +0.000 A 
ATOM     28  O   UNL     1      48.214   8.886  17.843  0.00  0.00    +0.000 OA
ATOM     29  C   UNL     1      48.408   6.836  19.012  0.00  0.00    +0.000 A 
ATOM     30  H   UNL     1      47.188   9.756  19.904  0.00  0.00    +0.000 HD
ENDBRANCH  17  20
ENDBRANCH   1  16
TORSDOF 5
ENDMDL
MODEL 7
REMARK VINA RESULT:    -6.788      3.371      8.116
REMARK INTER + INTRA:          -9.784
REMARK INTER:                  -8.827
REMARK INTRA:                  -0.957
REMARK UNBOUND:                -1.012
REMARK  Name = 
REMARK  6 active torsions:
REMARK  status: ('A' for Active; 'I' for Inactive)
REMARK    1  A    between atoms: C_1  and  C_2
REMARK    2  A    between atoms: C_6  and  C_7
REMARK    3  A    between atoms: C_7  and  C_8
REMARK    4  A    between atoms: C_11  and  C_12
REMARK    5  A    between atoms: C_12  and  N_13
REMARK    6  A    between atoms: C_14  and  C_16
REMARK                            x       y       z     vdW  Elec       q    Type
REMARK                         _______ _______ _______ _____ _____    ______ ____
ROOT
ATOM      1  C   UNL     1      48.367   7.963  14.157  0.00  0.00    +0.000 C 
ENDROOT
BRANCH   1   5
ATOM      2  C   UNL     1      50.205   5.540  17.237  0.00  0.00    +0.000 A 
ATOM      3  C   UNL     1      50.970   6.459  16.504  0.00  0.00    +0.000 A 
ATOM      4  C   UNL     1      50.384   7.229  15.496  0.00  0.00    +0.000 A 
ATOM      5  C   UNL     1      49.023   7.091  15.196  0.00  0.00    +0.000 A 
ATOM      6  C   UNL     1      48.278   6.120  15.877  0.00  0.00    +0.000 A 
ATOM      7  C   UNL     1      48.859   5.362  16.897  0.00  0.00    +0.000 A 
BRANCH   2   8
ATOM      8  C   UNL     1      50.810   4.791  18.405  0.00  0.00    +0.000 C 
BRANCH   8  14
ATOM      9  C   UNL     1      54.799   1.982  18.442  0.00  0.00    +0.000 C 
ATOM     10  C   UNL     1      53.346   2.109  18.099  0.00  0.00    +0.000 A 
ATOM     11  C   UNL     1      52.654   1.044  17.534  0.00  0.00    +0.000 A 
ATOM     12  C   UNL     1      51.315   1.218  17.208  0.00  0.00    +0.000 A 
ATOM     13  C   UNL     1      50.704   2.440  17.464  0.00  0.00    +0.000 A 
ATOM     14  C   UNL     1      51.450   3.465  18.043  0.00  0.00    +0.000 A 
ATOM     15  N   UNL     1      52.761   3.305  18.361  0.00  0.00    +0.000 NA
ENDBRANCH   8  14
ENDBRANCH   2   8
ENDBRANCH   1   5
BRANCH   1  16
ATOM     16  N   UNL     1      47.115   7.409  13.713  0.00  0.00    +0.000 N 
ATOM     17  C   UNL     1      46.970   6.936  12.434  0.00  0.00    +0.000 C 
ATOM     18  O   UNL     1      47.905   6.910  11.638  0.00  0.00    +0.000 OA
ATOM     19  H   UNL     1      46.291   7.636  14.260  0.00  0.00    +0.000 HD
BRANCH  17  20
ATOM     20  C   UNL     1      45.650   6.401  12.079  0.00  0.00    +0.000 A 
ATOM     21  C   UNL     1      44.680   7.252  11.564  0.00  0.00    +0.000 A 
ATOM     22  S   UNL     1      43.215   6.467  11.180  0.00  0.00    +0.000 S 
ATOM     23  C   UNL     1      43.809   4.970  11.730  0.00  0.00    +0.000 A 
ATOM     24  N   UNL     1      43.028   3.858  11.712  0.00  0.00    +0.000 NA
ATOM     25  C   UNL     1      43.596   2.798  12.183  0.00  0.00    +0.000 A 
ATOM     26  N   UNL     1      44.880   2.749  12.663  0.00  0.00    +0.000 N 
ATOM     27  C   UNL     1      45.713   3.841  12.677  0.00  0.00    +0.000 A 
ATOM     28  O   UNL     1      46.874   3.751  13.071  0.00  0.00    +0.000 OA
ATOM     29  C   UNL     1      45.117   5.062  12.177  0.00  0.00    +0.000 A 
ATOM     30  H   UNL     1      45.271   1.883  13.004  0.00  0.00    +0.000 HD
ENDBRANCH  17  20
ENDBRANCH   1  16
TORSDOF 5
ENDMDL
MODEL 8
REMARK VINA RESULT:    -6.697      4.780      9.463
REMARK INTER + INTRA:          -9.667
REMARK INTER:                  -8.738
REMARK INTRA:                  -0.929
REMARK UNBOUND:                -1.012
REMARK  Name = 
REMARK  6 active torsions:
REMARK  status: ('A' for Active; 'I' for Inactive)
REMARK    1  A    between atoms: C_1  and  C_2
REMARK    2  A    between atoms: C_6  and  C_7
REMARK    3  A    between atoms: C_7  and  C_8
REMARK    4  A    between atoms: C_11  and  C_12
REMARK    5  A    between atoms: C_12  and  N_13
REMARK    6  A    between atoms: C_14  and  C_16
REMARK                            x       y       z     vdW  Elec       q    Type
REMARK                         _______ _______ _______ _____ _____    ______ ____
ROOT
ATOM      1  C   UNL     1      48.863   5.812  16.651  0.00  0.00    +0.000 C 
ENDROOT
BRANCH   1   5
ATOM      2  C   UNL     1      47.855   8.435  19.944  0.00  0.00    +0.000 A 
ATOM      3  C   UNL     1      47.686   7.047  20.062  0.00  0.00    +0.000 A 
ATOM      4  C   UNL     1      47.993   6.199  18.994  0.00  0.00    +0.000 A 
ATOM      5  C   UNL     1      48.467   6.722  17.785  0.00  0.00    +0.000 A 
ATOM      6  C   UNL     1      48.563   8.112  17.643  0.00  0.00    +0.000 A 
ATOM      7  C   UNL     1      48.273   8.960  18.715  0.00  0.00    +0.000 A 
BRANCH   2   8
ATOM      8  C   UNL     1      47.635   9.343  21.134  0.00  0.00    +0.000 C 
BRANCH   8  14
ATOM      9  C   UNL     1      43.223  11.424  21.000  0.00  0.00    +0.000 C 
ATOM     10  C   UNL     1      44.702  11.583  20.820  0.00  0.00    +0.000 A 
ATOM     11  C   UNL     1      45.245  12.811  20.457  0.00  0.00    +0.000 A 
ATOM     12  C   UNL     1      46.618  12.904  20.275  0.00  0.00    +0.000 A 
ATOM     13  C   UNL     1      47.410  11.778  20.468  0.00  0.00    +0.000 A 
ATOM     14  C   UNL     1      46.806  10.579  20.843  0.00  0.00    +0.000 A 
ATOM     15  N   UNL     1      45.463  10.478  21.019  0.00  0.00    +0.000 NA
ENDBRANCH   8  14
ENDBRANCH   2   8
ENDBRANCH   1   5
BRANCH   1  16
ATOM     16  N   UNL     1      47.850   5.763  15.630  0.00  0.00    +0.000 N 
ATOM     17  C   UNL     1      48.101   6.234  14.367  0.00  0.00    +0.000 C 
ATOM     18  O   UNL     1      49.205   6.660  14.037  0.00  0.00    +0.000 OA
ATOM     19  H   UNL     1      46.890   5.642  15.939  0.00  0.00    +0.000 HD
BRANCH  17  20
ATOM     20  C   UNL     1      46.997   6.146  13.403  0.00  0.00    +0.000 A 
ATOM     21  C   UNL     1      46.497   7.306  12.825  0.00  0.00    +0.000 A 
ATOM     22  S   UNL     1      45.237   7.025  11.710  0.00  0.00    +0.000 S 
ATOM     23  C   UNL     1      45.285   5.348  11.993  0.00  0.00    +0.000 A 
ATOM     24  N   UNL     1      44.420   4.508  11.365  0.00  0.00    +0.000 NA
ATOM     25  C   UNL     1      44.550   3.266  11.695  0.00  0.00    +0.000 A 
ATOM     26  N   UNL     1      45.473   2.787  12.588  0.00  0.00    +0.000 N 
ATOM     27  C   UNL     1      46.382   3.595  13.226  0.00  0.00    +0.000 A 
ATOM     28  O   UNL     1      47.227   3.127  13.986  0.00  0.00    +0.000 OA
ATOM     29  C   UNL     1      46.266   5.003  12.908  0.00  0.00    +0.000 A 
ATOM     30  H   UNL     1      45.533   1.800  12.790  0.00  0.00    +0.000 HD
ENDBRANCH  17  20
ENDBRANCH   1  16
TORSDOF 5
ENDMDL
MODEL 9
REMARK VINA RESULT:    -6.664      3.013      8.417
REMARK INTER + INTRA:          -9.625
REMARK INTER:                  -8.516
REMARK INTRA:                  -1.109
REMARK UNBOUND:                -1.012
REMARK  Name = 
REMARK  6 active torsions:
REMARK  status: ('A' for Active; 'I' for Inactive)
REMARK    1  A    between atoms: C_1  and  C_2
REMARK    2  A    between atoms: C_6  and  C_7
REMARK    3  A    between atoms: C_7  and  C_8
REMARK    4  A    between atoms: C_11  and  C_12
REMARK    5  A    between atoms: C_12  and  N_13
REMARK    6  A    between atoms: C_14  and  C_16
REMARK                            x       y       z     vdW  Elec       q    Type
REMARK                         _______ _______ _______ _____ _____    ______ ____
ROOT
ATOM      1  C   UNL     1      47.862   7.954  11.863  0.00  0.00    +0.000 C 
ENDROOT
BRANCH   1   5
ATOM      2  C   UNL     1      49.467   8.260  15.871  0.00  0.00    +0.000 A 
ATOM      3  C   UNL     1      48.329   8.994  15.503  0.00  0.00    +0.000 A 
ATOM      4  C   UNL     1      47.819   8.912  14.204  0.00  0.00    +0.000 A 
ATOM      5  C   UNL     1      48.441   8.101  13.246  0.00  0.00    +0.000 A 
ATOM      6  C   UNL     1      49.619   7.429  13.594  0.00  0.00    +0.000 A 
ATOM      7  C   UNL     1      50.120   7.496  14.897  0.00  0.00    +0.000 A 
BRANCH   2   8
ATOM      8  C   UNL     1      49.951   8.256  17.305  0.00  0.00    +0.000 C 
BRANCH   8  14
ATOM      9  C   UNL     1      48.658   3.878  19.027  0.00  0.00    +0.000 C 
ATOM     10  C   UNL     1      48.503   5.366  19.113  0.00  0.00    +0.000 A 
ATOM     11  C   UNL     1      47.655   5.939  20.053  0.00  0.00    +0.000 A 
ATOM     12  C   UNL     1      47.523   7.321  20.077  0.00  0.00    +0.000 A 
ATOM     13  C   UNL     1      48.246   8.091  19.173  0.00  0.00    +0.000 A 
ATOM     14  C   UNL     1      49.089   7.456  18.263  0.00  0.00    +0.000 A 
ATOM     15  N   UNL     1      49.221   6.104  18.229  0.00  0.00    +0.000 NA
ENDBRANCH   8  14
ENDBRANCH   2   8
ENDBRANCH   1   5
BRANCH   1  16
ATOM     16  N   UNL     1      47.099   6.741  11.733  0.00  0.00    +0.000 N 
ATOM     17  C   UNL     1      45.730   6.760  11.798  0.00  0.00    +0.000 C 
ATOM     18  O   UNL     1      45.097   7.805  11.912  0.00  0.00    +0.000 OA
ATOM     19  H   UNL     1      47.596   5.867  11.875  0.00  0.00    +0.000 HD
BRANCH  17  20
ATOM     20  C   UNL     1      45.049   5.466  11.663  0.00  0.00    +0.000 A 
ATOM     21  C   UNL     1      44.343   4.945  12.739  0.00  0.00    +0.000 A 
ATOM     22  S   UNL     1      43.591   3.451  12.407  0.00  0.00    +0.000 S 
ATOM     23  C   UNL     1      44.219   3.424  10.825  0.00  0.00    +0.000 A 
ATOM     24  N   UNL     1      43.976   2.377   9.994  0.00  0.00    +0.000 NA
ATOM     25  C   UNL     1      44.536   2.475   8.834  0.00  0.00    +0.000 A 
ATOM     26  N   UNL     1      45.310   3.532   8.428  0.00  0.00    +0.000 N 
ATOM     27  C   UNL     1      45.560   4.622   9.224  0.00  0.00    +0.000 A 
ATOM     28  O   UNL     1      46.221   5.574   8.812  0.00  0.00    +0.000 OA
ATOM     29  C   UNL     1      44.972   4.553  10.546  0.00  0.00    +0.000 A 
ATOM     30  H   UNL     1      45.707   3.555   7.500  0.00  0.00    +0.000 HD
ENDBRANCH  17  20
ENDBRANCH   1  16
TORSDOF 5
ENDMDL
