MODEL 1
REMARK VINA RESULT:    -7.246      0.000      0.000
REMARK INTER + INTRA:         -10.390
REMARK INTER:                  -9.575
REMARK INTRA:                  -0.815
REMARK UNBOUND:                -0.815
REMARK  Name = 
REMARK  6 active torsions:
REMARK  status: ('A' for Active; 'I' for Inactive)
REMARK    1  A    between atoms: C_2  and  C_3
REMARK    2  A    between atoms: C_7  and  N_8
REMARK    3  A    between atoms: N_8  and  C_9
REMARK    4  A    between atoms: C_9  and  C_10
REMARK    5  A    between atoms: C_14  and  N_15
REMARK    6  A    between atoms: C_18  and  N_19
REMARK                            x       y       z     vdW  Elec       q    Type
REMARK                         _______ _______ _______ _____ _____    ______ ____
ROOT
ATOM      1  C   UNL     1      44.786   4.244  11.709  0.00  0.00    +0.000 A 
ATOM      2  C   UNL     1      45.379   3.305  12.540  0.00  0.00    +0.000 A 
ATOM      3  N   UNL     1      46.374   3.588  13.402  0.00  0.00    +0.000 NA
ATOM      4  C   UNL     1      46.799   4.875  13.429  0.00  0.00    +0.000 A 
ATOM      5  C   UNL     1      46.305   5.923  12.640  0.00  0.00    +0.000 A 
ATOM      6  C   UNL     1      45.276   5.559  11.763  0.00  0.00    +0.000 A 
ENDROOT
BRANCH   5   7
ATOM      7  N   UNL     1      46.768   7.220  12.760  0.00  0.00    +0.000 N 
ATOM      8  C   UNL     1      45.844   8.331  13.013  0.00  0.00    +0.000 C 
ATOM      9  C   UNL     1      46.178   9.499  12.085  0.00  0.00    +0.000 C 
ATOM     10  C   UNL     1      47.658   9.900  12.157  0.00  0.00    +0.000 C 
ATOM     11  C   UNL     1      48.548   8.671  11.947  0.00  0.00    +0.000 C 
ATOM     12  C   UNL     1      48.194   7.524  12.894  0.00  0.00    +0.000 C 
BRANCH  10  13
ATOM     13  N   UNL     1      47.989  10.578  13.414  0.00  0.00    +0.000 NA
ATOM     14  H   UNL     1      47.633  10.057  14.213  0.00  0.00    +0.000 HD
ATOM     15  H   UNL     1      47.532  11.489  13.445  0.00  0.00    +0.000 HD
ENDBRANCH  10  13
ENDBRANCH   5   7
BRANCH   1  16
ATOM     16  C   UNL     1      43.666   3.851  10.785  0.00  0.00    +0.000 C 
BRANCH  16  17
ATOM     17  N   UNL     1      43.935   4.332   9.440  0.00  0.00    +0.000 N 
ATOM     18  H   UNL     1      43.103   4.601   8.919  0.00  0.00    +0.000 HD
BRANCH  17  23
ATOM     19  C   UNL     1      46.317   1.925   7.870  0.00  0.00    +0.000 A 
ATOM     20  C   UNL     1      47.128   2.842   7.224  0.00  0.00    +0.000 A 
ATOM     21  N   UNL     1      46.916   4.175   7.259  0.00  0.00    +0.000 NA
ATOM     22  C   UNL     1      45.845   4.599   7.976  0.00  0.00    +0.000 A 
ATOM     23  C   UNL     1      44.940   3.772   8.653  0.00  0.00    +0.000 A 
ATOM     24  C   UNL     1      45.220   2.403   8.598  0.00  0.00    +0.000 A 
BRANCH  19  26
ATOM     25  N   UNL     1      46.834  -0.607   7.751  0.00  0.00    +0.000 NA
ATOM     26  C   UNL     1      46.605   0.526   7.800  0.00  0.00    +0.000 C 
ENDBRANCH  19  26
ENDBRANCH  17  23
ENDBRANCH  16  17
ENDBRANCH   1  16
TORSDOF 6
ENDMDL
MODEL 2
REMARK VINA RESULT:    -6.946      1.971      6.648
REMARK INTER + INTRA:          -9.994
REMARK INTER:                  -9.207
REMARK INTRA:                  -0.787
REMARK UNBOUND:                -0.815
REMARK  Name = 
REMARK  6 active torsions:
REMARK  status: ('A' for Active; 'I' for Inactive)
REMARK    1  A    between atoms: C_2  and  C_3
REMARK    2  A    between atoms: C_7  and  N_8
REMARK    3  A    between atoms: N_8  and  C_9
REMARK    4  A    between atoms: C_9  and  C_10
REMARK    5  A    between atoms: C_14  and  N_15
REMARK    6  A    between atoms: C_18  and  N_19
REMARK                            x       y       z     vdW  Elec       q    Type
REMARK                         _______ _______ _______ _____ _____    ______ ____
ROOT
ATOM      1  C   UNL     1      43.782   4.633  10.574  0.00  0.00    +0.000 A 
ATOM      2  C   UNL     1      43.206   3.529  11.184  0.00  0.00    +0.000 A 
ATOM      3  N   UNL     1      43.495   2.255  10.856  0.00  0.00    +0.000 NA
ATOM      4  C   UNL     1      44.404   2.080   9.865  0.00  0.00    +0.000 A 
ATOM      5  C   UNL     1      45.054   3.097   9.154  0.00  0.00    +0.000 A 
ATOM      6  C   UNL     1      44.704   4.396   9.541  0.00  0.00    +0.000 A 
ENDROOT
BRANCH   5   7
ATOM      7  N   UNL     1      46.002   2.831   8.183  0.00  0.00    +0.000 N 
ATOM      8  C   UNL     1      46.617   3.916   7.412  0.00  0.00    +0.000 C 
ATOM      9  C   UNL     1      46.640   3.545   5.929  0.00  0.00    +0.000 C 
ATOM     10  C   UNL     1      47.277   2.172   5.678  0.00  0.00    +0.000 C 
ATOM     11  C   UNL     1      46.618   1.114   6.568  0.00  0.00    +0.000 C 
ATOM     12  C   UNL     1      46.619   1.510   8.046  0.00  0.00    +0.000 C 
BRANCH  10  13
ATOM     13  N   UNL     1      48.730   2.189   5.872  0.00  0.00    +0.000 NA
ATOM     14  H   UNL     1      49.072   1.268   6.138  0.00  0.00    +0.000 HD
ATOM     15  H   UNL     1      48.967   2.812   6.645  0.00  0.00    +0.000 HD
ENDBRANCH  10  13
ENDBRANCH   5   7
BRANCH   1  16
ATOM     16  C   UNL     1      43.418   6.026  11.010  0.00  0.00    +0.000 C 
BRANCH  16  17
ATOM     17  N   UNL     1      43.782   6.225  12.404  0.00  0.00    +0.000 N 
ATOM     18  H   UNL     1      43.261   6.964  12.869  0.00  0.00    +0.000 HD
BRANCH  17  23
ATOM     19  C   UNL     1      46.877   5.073  14.144  0.00  0.00    +0.000 A 
ATOM     20  C   UNL     1      47.701   6.134  13.805  0.00  0.00    +0.000 A 
ATOM     21  N   UNL     1      47.303   7.166  13.030  0.00  0.00    +0.000 NA
ATOM     22  C   UNL     1      46.022   7.127  12.583  0.00  0.00    +0.000 A 
ATOM     23  C   UNL     1      45.102   6.102  12.836  0.00  0.00    +0.000 A 
ATOM     24  C   UNL     1      45.564   5.070  13.659  0.00  0.00    +0.000 A 
BRANCH  19  26
ATOM     25  N   UNL     1      47.750   3.166  15.658  0.00  0.00    +0.000 NA
ATOM     26  C   UNL     1      47.361   4.017  14.977  0.00  0.00    +0.000 C 
ENDBRANCH  19  26
ENDBRANCH  17  23
ENDBRANCH  16  17
ENDBRANCH   1  16
TORSDOF 6
ENDMDL
MODEL 3
REMARK VINA RESULT:    -6.786      1.704      6.962
REMARK INTER + INTRA:          -9.783
REMARK INTER:                  -8.958
REMARK INTRA:                  -0.825
REMARK UNBOUND:                -0.815
REMARK  Name = 
REMARK  6 active torsions:
REMARK  status: ('A' for Active; 'I' for Inactive)
REMARK    1  A    between atoms: C_2  and  C_3
REMARK    2  A    between atoms: C_7  and  N_8
REMARK    3  A    between atoms: N_8  and  C_9
REMARK    4  A    between atoms: C_9  and  C_10
REMARK    5  A    between atoms: C_14  and  N_15
REMARK    6  A    between atoms: C_18  and  N_19
REMARK                            x       y       z     vdW  Elec       q    Type
REMARK                         _______ _______ _______ _____ _____    ______ ____
ROOT
ATOM      1  C   UNL     1      43.995   5.024  10.993  0.00  0.00    +0.000 A 
ATOM      2  C   UNL     1      43.322   4.061  11.729  0.00  0.00    +0.000 A 
ATOM      3  N   UNL     1      43.317   2.750  11.422  0.00  0.00    +0.000 NA
ATOM      4  C   UNL     1      44.019   2.387  10.320  0.00  0.00    +0.000 A 
ATOM      5  C   UNL     1      44.733   3.248   9.477  0.00  0.00    +0.000 A 
ATOM      6  C   UNL     1      44.693   4.597   9.850  0.00  0.00    +0.000 A 
ENDROOT
BRANCH   5   7
ATOM      7  N   UNL     1      45.459   2.789   8.393  0.00  0.00    +0.000 N 
ATOM      8  C   UNL     1      45.630   1.352   8.153  0.00  0.00    +0.000 C 
ATOM      9  C   UNL     1      47.092   1.058   7.817  0.00  0.00    +0.000 C 
ATOM     10  C   UNL     1      47.622   1.941   6.680  0.00  0.00    +0.000 C 
ATOM     11  C   UNL     1      47.344   3.416   6.984  0.00  0.00    +0.000 C 
ATOM     12  C   UNL     1      45.873   3.680   7.307  0.00  0.00    +0.000 C 
BRANCH  10  13
ATOM     13  N   UNL     1      47.067   1.560   5.377  0.00  0.00    +0.000 NA
ATOM     14  H   UNL     1      46.982   0.549   5.300  0.00  0.00    +0.000 HD
ATOM     15  H   UNL     1      47.705   1.847   4.634  0.00  0.00    +0.000 HD
ENDBRANCH  10  13
ENDBRANCH   5   7
BRANCH   1  16
ATOM     16  C   UNL     1      43.966   6.468  11.412  0.00  0.00    +0.000 C 
BRANCH  16  17
ATOM     17  N   UNL     1      44.644   6.632  12.688  0.00  0.00    +0.000 N 
ATOM     18  H   UNL     1      44.127   7.186  13.367  0.00  0.00    +0.000 HD
BRANCH  17  23
ATOM     19  C   UNL     1      48.122   7.911  12.236  0.00  0.00    +0.000 A 
ATOM     20  C   UNL     1      48.801   6.836  12.785  0.00  0.00    +0.000 A 
ATOM     21  N   UNL     1      48.182   5.754  13.306  0.00  0.00    +0.000 NA
ATOM     22  C   UNL     1      46.825   5.756  13.268  0.00  0.00    +0.000 A 
ATOM     23  C   UNL     1      46.027   6.790  12.762  0.00  0.00    +0.000 A 
ATOM     24  C   UNL     1      46.722   7.876  12.220  0.00  0.00    +0.000 A 
BRANCH  19  26
ATOM     25  N   UNL     1      49.428   9.918  11.256  0.00  0.00    +0.000 NA
ATOM     26  C   UNL     1      48.840   9.022  11.693  0.00  0.00    +0.000 C 
ENDBRANCH  19  26
ENDBRANCH  17  23
ENDBRANCH  16  17
ENDBRANCH   1  16
TORSDOF 6
ENDMDL
MODEL 4
REMARK VINA RESULT:    -6.698      2.245      7.179
REMARK INTER + INTRA:          -9.667
REMARK INTER:                  -8.962
REMARK INTRA:                  -0.704
REMARK UNBOUND:                -0.815
REMARK  Name = 
REMARK  6 active torsions:
REMARK  status: ('A' for Active; 'I' for Inactive)
REMARK    1  A    between atoms: C_2  and  C_3
REMARK    2  A    between atoms: C_7  and  N_8
REMARK    3  A    between atoms: N_8  and  C_9
REMARK    4  A    between atoms: C_9  and  C_10
REMARK    5  A    between atoms: C_14  and  N_15
REMARK    6  A    between atoms: C_18  and  N_19
REMARK                            x       y       z     vdW  Elec       q    Type
REMARK                         _______ _______ _______ _____ _____    ______ ____
ROOT
ATOM      1  C   UNL     1      44.741   4.819  11.930  0.00  0.00    +0.000 A 
ATOM      2  C   UNL     1      43.780   3.967  12.454  0.00  0.00    +0.000 A 
ATOM      3  N   UNL     1      43.349   2.852  11.836  0.00  0.00    +0.000 NA
ATOM      4  C   UNL     1      43.906   2.578  10.630  0.00  0.00    +0.000 A 
ATOM      5  C   UNL     1      44.872   3.352   9.975  0.00  0.00    +0.000 A 
ATOM      6  C   UNL     1      45.273   4.500  10.670  0.00  0.00    +0.000 A 
ENDROOT
BRANCH   5   7
ATOM      7  N   UNL     1      45.420   2.979   8.761  0.00  0.00    +0.000 N 
ATOM      8  C   UNL     1      45.529   1.565   8.384  0.00  0.00    +0.000 C 
ATOM      9  C   UNL     1      46.919   1.291   7.811  0.00  0.00    +0.000 C 
ATOM     10  C   UNL     1      47.288   2.261   6.680  0.00  0.00    +0.000 C 
ATOM     11  C   UNL     1      47.085   3.708   7.139  0.00  0.00    +0.000 C 
ATOM     12  C   UNL     1      45.683   3.952   7.699  0.00  0.00    +0.000 C 
BRANCH  10  13
ATOM     13  N   UNL     1      46.539   1.991   5.449  0.00  0.00    +0.000 NA
ATOM     14  H   UNL     1      47.001   1.274   4.893  0.00  0.00    +0.000 HD
ATOM     15  H   UNL     1      46.517   2.828   4.868  0.00  0.00    +0.000 HD
ENDBRANCH  10  13
ENDBRANCH   5   7
BRANCH   1  16
ATOM     16  C   UNL     1      45.182   6.038  12.692  0.00  0.00    +0.000 C 
BRANCH  16  17
ATOM     17  N   UNL     1      46.633   6.081  12.771  0.00  0.00    +0.000 N 
ATOM     18  H   UNL     1      47.106   5.773  11.925  0.00  0.00    +0.000 HD
BRANCH  17  23
ATOM     19  C   UNL     1      47.572   4.563  16.049  0.00  0.00    +0.000 A 
ATOM     20  C   UNL     1      48.623   5.408  16.365  0.00  0.00    +0.000 A 
ATOM     21  N   UNL     1      49.040   6.408  15.558  0.00  0.00    +0.000 NA
ATOM     22  C   UNL     1      48.368   6.563  14.389  0.00  0.00    +0.000 A 
ATOM     23  C   UNL     1      47.308   5.761  13.947  0.00  0.00    +0.000 A 
ATOM     24  C   UNL     1      46.908   4.754  14.831  0.00  0.00    +0.000 A 
BRANCH  19  26
ATOM     25  N   UNL     1      46.862   2.691  17.688  0.00  0.00    +0.000 NA
ATOM     26  C   UNL     1      47.176   3.529  16.953  0.00  0.00    +0.000 C 
ENDBRANCH  19  26
ENDBRANCH  17  23
ENDBRANCH  16  17
ENDBRANCH   1  16
TORSDOF 6
ENDMDL
MODEL 5
REMARK VINA RESULT:    -6.592      2.094      3.656
REMARK INTER + INTRA:          -9.526
REMARK INTER:                  -8.895
REMARK INTRA:                  -0.631
REMARK UNBOUND:                -0.815
REMARK  Name = 
REMARK  6 active torsions:
REMARK  status: ('A' for Active; 'I' for Inactive)
REMARK    1  A    between atoms: C_2  and  C_3
REMARK    2  A    between atoms: C_7  and  N_8
REMARK    3  A    between atoms: N_8  and  C_9
REMARK    4  A    between atoms: C_9  and  C_10
REMARK    5  A    between atoms: C_14  and  N_15
REMARK    6  A    between atoms: C_18  and  N_19
REMARK                            x       y       z     vdW  Elec       q    Type
REMARK                         _______ _______ _______ _____ _____    ______ ____
ROOT
ATOM      1  C   UNL     1      44.876   5.686  11.421  0.00  0.00    +0.000 A 
ATOM      2  C   UNL     1      44.888   7.055  11.202  0.00  0.00    +0.000 A 
ATOM      3  N   UNL     1      45.609   7.926  11.934  0.00  0.00    +0.000 NA
ATOM      4  C   UNL     1      46.353   7.398  12.937  0.00  0.00    +0.000 A 
ATOM      5  C   UNL     1      46.427   6.042  13.282  0.00  0.00    +0.000 A 
ATOM      6  C   UNL     1      45.650   5.192  12.485  0.00  0.00    +0.000 A 
ENDROOT
BRANCH   5   7
ATOM      7  N   UNL     1      47.245   5.581  14.297  0.00  0.00    +0.000 N 
ATOM      8  C   UNL     1      47.097   4.221  14.827  0.00  0.00    +0.000 C 
ATOM      9  C   UNL     1      47.129   4.259  16.355  0.00  0.00    +0.000 C 
ATOM     10  C   UNL     1      48.357   5.002  16.897  0.00  0.00    +0.000 C 
ATOM     11  C   UNL     1      48.470   6.382  16.244  0.00  0.00    +0.000 C 
ATOM     12  C   UNL     1      48.444   6.311  14.717  0.00  0.00    +0.000 C 
BRANCH  10  13
ATOM     13  N   UNL     1      49.594   4.234  16.719  0.00  0.00    +0.000 NA
ATOM     14  H   UNL     1      50.130   4.588  15.929  0.00  0.00    +0.000 HD
ATOM     15  H   UNL     1      49.369   3.265  16.495  0.00  0.00    +0.000 HD
ENDBRANCH  10  13
ENDBRANCH   5   7
BRANCH   1  16
ATOM     16  C   UNL     1      44.056   4.777  10.548  0.00  0.00    +0.000 C 
BRANCH  16  17
ATOM     17  N   UNL     1      44.603   4.750   9.201  0.00  0.00    +0.000 N 
ATOM     18  H   UNL     1      44.027   5.221   8.507  0.00  0.00    +0.000 HD
BRANCH  17  23
ATOM     19  C   UNL     1      46.607   2.446   7.054  0.00  0.00    +0.000 A 
ATOM     20  C   UNL     1      46.368   1.271   7.748  0.00  0.00    +0.000 A 
ATOM     21  N   UNL     1      45.622   1.211   8.872  0.00  0.00    +0.000 NA
ATOM     22  C   UNL     1      45.093   2.382   9.311  0.00  0.00    +0.000 A 
ATOM     23  C   UNL     1      45.280   3.634   8.713  0.00  0.00    +0.000 A 
ATOM     24  C   UNL     1      46.046   3.633   7.543  0.00  0.00    +0.000 A 
BRANCH  19  26
ATOM     25  N   UNL     1      48.034   2.428   4.897  0.00  0.00    +0.000 NA
ATOM     26  C   UNL     1      47.399   2.437   5.865  0.00  0.00    +0.000 C 
ENDBRANCH  19  26
ENDBRANCH  17  23
ENDBRANCH  16  17
ENDBRANCH   1  16
TORSDOF 6
ENDMDL
MODEL 6
REMARK VINA RESULT:    -6.514      3.202      7.473
REMARK INTER + INTRA:          -9.424
REMARK INTER:                  -8.672
REMARK INTRA:                  -0.752
REMARK UNBOUND:                -0.815
REMARK  Name = 
REMARK  6 active torsions:
REMARK  status: ('A' for Active; 'I' for Inactive)
REMARK    1  A    between atoms: C_2  and  C_3
REMARK    2  A    between atoms: C_7  and  N_8
REMARK    3  A    between atoms: N_8  and  C_9
REMARK    4  A    between atoms: C_9  and  C_10
REMARK    5  A    between atoms: C_14  and  N_15
REMARK    6  A    between atoms: C_18  and  N_19
REMARK                            x       y       z     vdW  Elec       q    Type
REMARK                         _______ _______ _______ _____ _____    ______ ____
ROOT
ATOM      1  C   UNL     1      47.909   7.119  14.217  0.00  0.00    +0.000 A 
ATOM      2  C   UNL     1      47.480   8.400  13.902  0.00  0.00    +0.000 A 
ATOM      3  N   UNL     1      46.480   8.664  13.040  0.00  0.00    +0.000 NA
ATOM      4  C   UNL     1      45.882   7.592  12.463  0.00  0.00    +0.000 A 
ATOM      5  C   UNL     1      46.218   6.249  12.675  0.00  0.00    +0.000 A 
ATOM      6  C   UNL     1      47.269   6.044  13.578  0.00  0.00    +0.000 A 
ENDROOT
BRANCH   5   7
ATOM      7  N   UNL     1      45.529   5.211  12.076  0.00  0.00    +0.000 N 
ATOM      8  C   UNL     1      45.070   5.311  10.687  0.00  0.00    +0.000 C 
ATOM      9  C   UNL     1      43.624   4.827  10.587  0.00  0.00    +0.000 C 
ATOM     10  C   UNL     1      43.428   3.435  11.201  0.00  0.00    +0.000 C 
ATOM     11  C   UNL     1      43.992   3.402  12.625  0.00  0.00    +0.000 C 
ATOM     12  C   UNL     1      45.442   3.884  12.691  0.00  0.00    +0.000 C 
BRANCH  10  13
ATOM     13  N   UNL     1      44.021   2.376  10.378  0.00  0.00    +0.000 NA
ATOM     14  H   UNL     1      44.980   2.189  10.663  0.00  0.00    +0.000 HD
ATOM     15  H   UNL     1      44.070   2.681   9.407  0.00  0.00    +0.000 HD
ENDBRANCH  10  13
ENDBRANCH   5   7
BRANCH   1  16
ATOM     16  C   UNL     1      49.024   6.906  15.204  0.00  0.00    +0.000 C 
BRANCH  16  17
ATOM     17  N   UNL     1      48.480   6.527  16.499  0.00  0.00    +0.000 N 
ATOM     18  H   UNL     1      48.746   7.147  17.261  0.00  0.00    +0.000 HD
BRANCH  17  23
ATOM     19  C   UNL     1      49.199   2.931  17.195  0.00  0.00    +0.000 A 
ATOM     20  C   UNL     1      47.898   2.506  17.404  0.00  0.00    +0.000 A 
ATOM     21  N   UNL     1      46.830   3.331  17.353  0.00  0.00    +0.000 NA
ATOM     22  C   UNL     1      47.085   4.636  17.079  0.00  0.00    +0.000 A 
ATOM     23  C   UNL     1      48.354   5.190  16.872  0.00  0.00    +0.000 A 
ATOM     24  C   UNL     1      49.420   4.286  16.918  0.00  0.00    +0.000 A 
BRANCH  19  26
ATOM     25  N   UNL     1      51.160   1.247  17.308  0.00  0.00    +0.000 NA
ATOM     26  C   UNL     1      50.284   2.002  17.253  0.00  0.00    +0.000 C 
ENDBRANCH  19  26
ENDBRANCH  17  23
ENDBRANCH  16  17
ENDBRANCH   1  16
TORSDOF 6
ENDMDL
MODEL 7
REMARK VINA RESULT:    -6.123      2.932      7.568
REMARK INTER + INTRA:          -8.907
REMARK INTER:                  -8.108
REMARK INTRA:                  -0.798
REMARK UNBOUND:                -0.815
REMARK  Name = 
REMARK  6 active torsions:
REMARK  status: ('A' for Active; 'I' for Inactive)
REMARK    1  A    between atoms: C_2  and  C_3
REMARK    2  A    between atoms: C_7  and  N_8
REMARK    3  A    between atoms: N_8  and  C_9
REMARK    4  A    between atoms: C_9  and  C_10
REMARK    5  A    between atoms: C_14  and  N_15
REMARK    6  A    between atoms: C_18  and  N_19
REMARK                            x       y       z     vdW  Elec       q    Type
REMARK                         _______ _______ _______ _____ _____    ______ ____
ROOT
ATOM      1  C   UNL     1      47.892   7.853  13.082  0.00  0.00    +0.000 A 
ATOM      2  C   UNL     1      47.247   9.073  12.941  0.00  0.00    +0.000 A 
ATOM      3  N   UNL     1      45.970   9.205  12.538  0.00  0.00    +0.000 NA
ATOM      4  C   UNL     1      45.305   8.056  12.259  0.00  0.00    +0.000 A 
ATOM      5  C   UNL     1      45.829   6.760  12.342  0.00  0.00    +0.000 A 
ATOM      6  C   UNL     1      47.164   6.695  12.763  0.00  0.00    +0.000 A 
ENDROOT
BRANCH   5   7
ATOM      7  N   UNL     1      45.069   5.636  12.078  0.00  0.00    +0.000 N 
ATOM      8  C   UNL     1      45.237   4.408  12.864  0.00  0.00    +0.000 C 
ATOM      9  C   UNL     1      45.295   3.202  11.927  0.00  0.00    +0.000 C 
ATOM     10  C   UNL     1      44.106   3.155  10.958  0.00  0.00    +0.000 C 
ATOM     11  C   UNL     1      43.967   4.495  10.229  0.00  0.00    +0.000 C 
ATOM     12  C   UNL     1      43.903   5.681  11.193  0.00  0.00    +0.000 C 
BRANCH  10  13
ATOM     13  N   UNL     1      42.855   2.791  11.630  0.00  0.00    +0.000 NA
ATOM     14  H   UNL     1      42.536   3.544  12.236  0.00  0.00    +0.000 HD
ATOM     15  H   UNL     1      43.012   1.987  12.238  0.00  0.00    +0.000 HD
ENDBRANCH  10  13
ENDBRANCH   5   7
BRANCH   1  16
ATOM     16  C   UNL     1      49.318   7.790  13.555  0.00  0.00    +0.000 C 
BRANCH  16  17
ATOM     17  N   UNL     1      49.367   7.859  15.007  0.00  0.00    +0.000 N 
ATOM     18  H   UNL     1      49.878   8.660  15.369  0.00  0.00    +0.000 HD
BRANCH  17  23
ATOM     19  C   UNL     1      48.599   4.760  16.940  0.00  0.00    +0.000 A 
ATOM     20  C   UNL     1      49.831   4.598  17.552  0.00  0.00    +0.000 A 
ATOM     21  N   UNL     1      50.879   5.423  17.342  0.00  0.00    +0.000 NA
ATOM     22  C   UNL     1      50.675   6.454  16.483  0.00  0.00    +0.000 A 
ATOM     23  C   UNL     1      49.487   6.710  15.786  0.00  0.00    +0.000 A 
ATOM     24  C   UNL     1      48.431   5.834  16.058  0.00  0.00    +0.000 A 
BRANCH  19  26
ATOM     25  N   UNL     1      46.659   3.120  17.430  0.00  0.00    +0.000 NA
ATOM     26  C   UNL     1      47.528   3.854  17.215  0.00  0.00    +0.000 C 
ENDBRANCH  19  26
ENDBRANCH  17  23
ENDBRANCH  16  17
ENDBRANCH   1  16
TORSDOF 6
ENDMDL
MODEL 8
REMARK VINA RESULT:    -6.091      3.031      5.546
REMARK INTER + INTRA:          -8.864
REMARK INTER:                  -8.219
REMARK INTRA:                  -0.645
REMARK UNBOUND:                -0.815
REMARK  Name = 
REMARK  6 active torsions:
REMARK  status: ('A' for Active; 'I' for Inactive)
REMARK    1  A    between atoms: C_2  and  C_3
REMARK    2  A    between atoms: C_7  and  N_8
REMARK    3  A    between atoms: N_8  and  C_9
REMARK    4  A    between atoms: C_9  and  C_10
REMARK    5  A    between atoms: C_14  and  N_15
REMARK    6  A    between atoms: C_18  and  N_19
REMARK                            x       y       z     vdW  Elec       q    Type
REMARK                         _______ _______ _______ _____ _____    ______ ____
ROOT
ATOM      1  C   UNL     1      47.706   7.024  12.980  0.00  0.00    +0.000 A 
ATOM      2  C   UNL     1      48.678   8.012  13.046  0.00  0.00    +0.000 A 
ATOM      3  N   UNL     1      49.536   8.152  14.075  0.00  0.00    +0.000 NA
ATOM      4  C   UNL     1      49.412   7.259  15.088  0.00  0.00    +0.000 A 
ATOM      5  C   UNL     1      48.473   6.223  15.162  0.00  0.00    +0.000 A 
ATOM      6  C   UNL     1      47.608   6.137  14.064  0.00  0.00    +0.000 A 
ENDROOT
BRANCH   5   7
ATOM      7  N   UNL     1      48.440   5.328  16.216  0.00  0.00    +0.000 N 
ATOM      8  C   UNL     1      49.273   5.532  17.407  0.00  0.00    +0.000 C 
ATOM      9  C   UNL     1      49.951   4.218  17.791  0.00  0.00    +0.000 C 
ATOM     10  C   UNL     1      48.953   3.061  17.929  0.00  0.00    +0.000 C 
ATOM     11  C   UNL     1      48.085   2.961  16.671  0.00  0.00    +0.000 C 
ATOM     12  C   UNL     1      47.413   4.288  16.317  0.00  0.00    +0.000 C 
BRANCH  10  13
ATOM     13  N   UNL     1      48.122   3.183  19.131  0.00  0.00    +0.000 NA
ATOM     14  H   UNL     1      48.300   2.415  19.775  0.00  0.00    +0.000 HD
ATOM     15  H   UNL     1      47.137   3.116  18.877  0.00  0.00    +0.000 HD
ENDBRANCH  10  13
ENDBRANCH   5   7
BRANCH   1  16
ATOM     16  C   UNL     1      46.796   6.925  11.787  0.00  0.00    +0.000 C 
BRANCH  16  17
ATOM     17  N   UNL     1      45.442   6.612  12.215  0.00  0.00    +0.000 N 
ATOM     18  H   UNL     1      45.141   7.116  13.046  0.00  0.00    +0.000 HD
BRANCH  17  23
ATOM     19  C   UNL     1      44.425   3.261  10.923  0.00  0.00    +0.000 A 
ATOM     20  C   UNL     1      43.641   2.866  11.994  0.00  0.00    +0.000 A 
ATOM     21  N   UNL     1      43.460   3.619  13.100  0.00  0.00    +0.000 NA
ATOM     22  C   UNL     1      44.093   4.819  13.125  0.00  0.00    +0.000 A 
ATOM     23  C   UNL     1      44.928   5.320  12.118  0.00  0.00    +0.000 A 
ATOM     24  C   UNL     1      45.063   4.506  10.989  0.00  0.00    +0.000 A 
BRANCH  19  26
ATOM     25  N   UNL     1      44.678   1.742   8.844  0.00  0.00    +0.000 NA
ATOM     26  C   UNL     1      44.566   2.419   9.777  0.00  0.00    +0.000 C 
ENDBRANCH  19  26
ENDBRANCH  17  23
ENDBRANCH  16  17
ENDBRANCH   1  16
TORSDOF 6
ENDMDL
MODEL 9
REMARK VINA RESULT:    -5.554      2.980      7.981
REMARK INTER + INTRA:          -8.155
REMARK INTER:                  -7.395
REMARK INTRA:                  -0.760
REMARK UNBOUND:                -0.815
REMARK  Name = 
REMARK  6 active torsions:
REMARK  status: ('A' for Active; 'I' for Inactive)
REMARK    1  A    between atoms: C_2  and  C_3
REMARK    2  A    between atoms: C_7  and  N_8
REMARK    3  A    between atoms: N_8  and  C_9
REMARK    4  A    between atoms: C_9  and  C_10
REMARK    5  A    between atoms: C_14  and  N_15
REMARK    6  A    between atoms: C_18  and  N_19
REMARK                            x       y       z     vdW  Elec       q    Type
REMARK                         _______ _______ _______ _____ _____    ______ ____
ROOT
ATOM      1  C   UNL     1      46.969   8.625  12.631  0.00  0.00    +0.000 A 
ATOM      2  C   UNL     1      46.185   9.669  12.163  0.00  0.00    +0.000 A 
ATOM      3  N   UNL     1      44.974   9.503  11.598  0.00  0.00    +0.000 NA
ATOM      4  C   UNL     1      44.528   8.227  11.493  0.00  0.00    +0.000 A 
ATOM      5  C   UNL     1      45.214   7.078  11.908  0.00  0.00    +0.000 A 
ATOM      6  C   UNL     1      46.469   7.321  12.482  0.00  0.00    +0.000 A 
ENDROOT
BRANCH   5   7
ATOM      7  N   UNL     1      44.669   5.812  11.802  0.00  0.00    +0.000 N 
ATOM      8  C   UNL     1      44.856   4.818  12.864  0.00  0.00    +0.000 C 
ATOM      9  C   UNL     1      45.239   3.473  12.247  0.00  0.00    +0.000 C 
ATOM     10  C   UNL     1      44.259   3.029  11.153  0.00  0.00    +0.000 C 
ATOM     11  C   UNL     1      44.074   4.149  10.124  0.00  0.00    +0.000 C 
ATOM     12  C   UNL     1      43.683   5.478  10.771  0.00  0.00    +0.000 C 
BRANCH  10  13
ATOM     13  N   UNL     1      42.967   2.604  11.703  0.00  0.00    +0.000 NA
ATOM     14  H   UNL     1      43.098   2.024  12.529  0.00  0.00    +0.000 HD
ATOM     15  H   UNL     1      42.479   2.021  11.024  0.00  0.00    +0.000 HD
ENDBRANCH  10  13
ENDBRANCH   5   7
BRANCH   1  16
ATOM     16  C   UNL     1      48.305   8.896  13.266  0.00  0.00    +0.000 C 
BRANCH  16  17
ATOM     17  N   UNL     1      48.123   9.501  14.575  0.00  0.00    +0.000 N 
ATOM     18  H   UNL     1      48.374  10.486  14.618  0.00  0.00    +0.000 HD
BRANCH  17  23
ATOM     19  C   UNL     1      49.003   6.797  16.993  0.00  0.00    +0.000 A 
ATOM     20  C   UNL     1      48.650   7.453  18.161  0.00  0.00    +0.000 A 
ATOM     21  N   UNL     1      48.175   8.716  18.188  0.00  0.00    +0.000 NA
ATOM     22  C   UNL     1      48.049   9.342  16.990  0.00  0.00    +0.000 A 
ATOM     23  C   UNL     1      48.393   8.795  15.747  0.00  0.00    +0.000 A 
ATOM     24  C   UNL     1      48.861   7.478  15.778  0.00  0.00    +0.000 A 
BRANCH  19  26
ATOM     25  N   UNL     1      49.878   4.363  17.069  0.00  0.00    +0.000 NA
ATOM     26  C   UNL     1      49.491   5.453  17.035  0.00  0.00    +0.000 C 
ENDBRANCH  19  26
ENDBRANCH  17  23
ENDBRANCH  16  17
ENDBRANCH   1  16
TORSDOF 6
ENDMDL
