MODEL 1
REMARK VINA RESULT:    -6.073      0.000      0.000
REMARK INTER + INTRA:          -8.182
REMARK INTER:                  -7.848
REMARK INTRA:                  -0.333
REMARK UNBOUND:                -0.333
REMARK  Name = 
REMARK  6 active torsions:
REMARK  status: ('A' for Active; 'I' for Inactive)
REMARK    1  A    between atoms: N_1  and  C_2
REMARK    2  A    between atoms: C_2  and  C_3
REMARK    3  A    between atoms: C_7  and  C_8
REMARK    4  A    between atoms: C_9  and  N_10
REMARK    5  A    between atoms: C_14  and  C_15
REMARK    6  A    between atoms: C_15  and  O_17
REMARK                            x       y       z     vdW  Elec       q    Type
REMARK                         _______ _______ _______ _____ _____    ______ ____
ROOT
ATOM      1  C   UNL     1      47.176   3.924  17.042  0.00  0.00    +0.000 C 
ATOM      2  C   UNL     1      47.584   4.187  15.793  0.00  0.00    +0.000 C 
ENDROOT
BRANCH   2   3
ATOM      3  N   UNL     1      47.201   3.585  14.622  0.00  0.00    +0.000 N 
ATOM      4  C   UNL     1      46.266   4.062  13.701  0.00  0.00    +0.000 A 
ATOM      5  C   UNL     1      45.976   5.421  13.571  0.00  0.00    +0.000 A 
ATOM      6  C   UNL     1      44.988   5.849  12.685  0.00  0.00    +0.000 A 
ATOM      7  C   UNL     1      44.317   4.901  11.920  0.00  0.00    +0.000 A 
ATOM      8  C   UNL     1      44.669   3.569  12.090  0.00  0.00    +0.000 A 
ATOM      9  N   UNL     1      45.636   3.139  12.943  0.00  0.00    +0.000 NA
ATOM     10  H   UNL     1      47.329   2.580  14.551  0.00  0.00    +0.000 HD
BRANCH   7  11
ATOM     11  C   UNL     1      43.219   5.232  10.992  0.00  0.00    +0.000 C 
ATOM     12  O   UNL     1      42.120   5.596  11.381  0.00  0.00    +0.000 OA
BRANCH  11  13
ATOM     13  O   UNL     1      43.523   5.079   9.685  0.00  0.00    +0.000 OA
ATOM     14  H   UNL     1      44.180   5.699   9.325  0.00  0.00    +0.000 HD
ENDBRANCH  11  13
ENDBRANCH   7  11
ENDBRANCH   2   3
BRANCH   1  19
ATOM     15  C   UNL     1      49.593   5.193  19.659  0.00  0.00    +0.000 A 
ATOM     16  C   UNL     1      48.795   6.128  20.332  0.00  0.00    +0.000 A 
ATOM     17  C   UNL     1      47.462   6.309  19.975  0.00  0.00    +0.000 A 
ATOM     18  C   UNL     1      46.918   5.574  18.922  0.00  0.00    +0.000 A 
ATOM     19  C   UNL     1      47.705   4.663  18.201  0.00  0.00    +0.000 A 
ATOM     20  C   UNL     1      49.034   4.461  18.597  0.00  0.00    +0.000 A 
BRANCH  15  21
ATOM     21  C   UNL     1      51.042   5.015  20.036  0.00  0.00    +0.000 C 
BRANCH  21  22
ATOM     22  N   UNL     1      51.646   3.882  19.344  0.00  0.00    +0.000 NA
ATOM     23  H   UNL     1      52.657   4.003  19.326  0.00  0.00    +0.000 HD
ATOM     24  H   UNL     1      51.337   3.889  18.373  0.00  0.00    +0.000 HD
ENDBRANCH  21  22
ENDBRANCH  15  21
ENDBRANCH   1  19
TORSDOF 6
ENDMDL
MODEL 2
REMARK VINA RESULT:    -6.060      1.595      2.035
REMARK INTER + INTRA:          -8.165
REMARK INTER:                  -7.818
REMARK INTRA:                  -0.346
REMARK UNBOUND:                -0.333
REMARK  Name = 
REMARK  6 active torsions:
REMARK  status: ('A' for Active; 'I' for Inactive)
REMARK    1  A    between atoms: N_1  and  C_2
REMARK    2  A    between atoms: C_2  and  C_3
REMARK    3  A    between atoms: C_7  and  C_8
REMARK    4  A    between atoms: C_9  and  N_10
REMARK    5  A    between atoms: C_14  and  C_15
REMARK    6  A    between atoms: C_15  and  O_17
REMARK                            x       y       z     vdW  Elec       q    Type
REMARK                         _______ _______ _______ _____ _____    ______ ____
ROOT
ATOM      1  C   UNL     1      47.542   3.622  17.094  0.00  0.00    +0.000 C 
ATOM      2  C   UNL     1      47.513   4.156  15.865  0.00  0.00    +0.000 C 
ENDROOT
BRANCH   2   3
ATOM      3  N   UNL     1      47.182   3.555  14.678  0.00  0.00    +0.000 N 
ATOM      4  C   UNL     1      46.297   4.039  13.712  0.00  0.00    +0.000 A 
ATOM      5  C   UNL     1      46.027   5.401  13.565  0.00  0.00    +0.000 A 
ATOM      6  C   UNL     1      45.088   5.836  12.632  0.00  0.00    +0.000 A 
ATOM      7  C   UNL     1      44.446   4.893  11.837  0.00  0.00    +0.000 A 
ATOM      8  C   UNL     1      44.776   3.558  12.026  0.00  0.00    +0.000 A 
ATOM      9  N   UNL     1      45.696   3.121  12.925  0.00  0.00    +0.000 NA
ATOM     10  H   UNL     1      47.303   2.548  14.616  0.00  0.00    +0.000 HD
BRANCH   7  11
ATOM     11  C   UNL     1      43.398   5.233  10.856  0.00  0.00    +0.000 C 
ATOM     12  O   UNL     1      42.375   5.824  11.168  0.00  0.00    +0.000 OA
BRANCH  11  13
ATOM     13  O   UNL     1      43.652   4.819   9.596  0.00  0.00    +0.000 OA
ATOM     14  H   UNL     1      44.548   4.996   9.262  0.00  0.00    +0.000 HD
ENDBRANCH  11  13
ENDBRANCH   7  11
ENDBRANCH   2   3
BRANCH   1  19
ATOM     15  C   UNL     1      47.952   6.555  19.447  0.00  0.00    +0.000 A 
ATOM     16  C   UNL     1      48.577   5.939  20.539  0.00  0.00    +0.000 A 
ATOM     17  C   UNL     1      48.914   4.588  20.494  0.00  0.00    +0.000 A 
ATOM     18  C   UNL     1      48.606   3.833  19.363  0.00  0.00    +0.000 A 
ATOM     19  C   UNL     1      47.940   4.412  18.272  0.00  0.00    +0.000 A 
ATOM     20  C   UNL     1      47.643   5.781  18.314  0.00  0.00    +0.000 A 
BRANCH  15  21
ATOM     21  C   UNL     1      47.570   8.013  19.510  0.00  0.00    +0.000 C 
BRANCH  21  22
ATOM     22  N   UNL     1      47.506   8.612  18.182  0.00  0.00    +0.000 NA
ATOM     23  H   UNL     1      48.325   8.328  17.648  0.00  0.00    +0.000 HD
ATOM     24  H   UNL     1      47.562   9.626  18.278  0.00  0.00    +0.000 HD
ENDBRANCH  21  22
ENDBRANCH  15  21
ENDBRANCH   1  19
TORSDOF 6
ENDMDL
MODEL 3
REMARK VINA RESULT:    -6.050      4.203      8.628
REMARK INTER + INTRA:          -8.152
REMARK INTER:                  -7.844
REMARK INTRA:                  -0.308
REMARK UNBOUND:                -0.333
REMARK  Name = 
REMARK  6 active torsions:
REMARK  status: ('A' for Active; 'I' for Inactive)
REMARK    1  A    between atoms: N_1  and  C_2
REMARK    2  A    between atoms: C_2  and  C_3
REMARK    3  A    between atoms: C_7  and  C_8
REMARK    4  A    between atoms: C_9  and  N_10
REMARK    5  A    between atoms: C_14  and  C_15
REMARK    6  A    between atoms: C_15  and  O_17
REMARK                            x       y       z     vdW  Elec       q    Type
REMARK                         _______ _______ _______ _____ _____    ______ ____
ROOT
ATOM      1  C   UNL     1      45.908   5.603  13.368  0.00  0.00    +0.000 C 
ATOM      2  C   UNL     1      46.980   5.125  14.015  0.00  0.00    +0.000 C 
ENDROOT
BRANCH   2   3
ATOM      3  N   UNL     1      47.832   5.784  14.863  0.00  0.00    +0.000 N 
ATOM      4  C   UNL     1      48.117   5.452  16.189  0.00  0.00    +0.000 A 
ATOM      5  C   UNL     1      47.990   4.149  16.674  0.00  0.00    +0.000 A 
ATOM      6  C   UNL     1      48.222   3.872  18.021  0.00  0.00    +0.000 A 
ATOM      7  C   UNL     1      48.602   4.911  18.863  0.00  0.00    +0.000 A 
ATOM      8  C   UNL     1      48.724   6.178  18.309  0.00  0.00    +0.000 A 
ATOM      9  N   UNL     1      48.511   6.460  16.997  0.00  0.00    +0.000 NA
ATOM     10  H   UNL     1      48.024   6.762  14.664  0.00  0.00    +0.000 HD
BRANCH   7  11
ATOM     11  C   UNL     1      48.821   4.746  20.312  0.00  0.00    +0.000 C 
ATOM     12  O   UNL     1      49.438   5.564  20.979  0.00  0.00    +0.000 OA
BRANCH  11  13
ATOM     13  O   UNL     1      48.304   3.613  20.833  0.00  0.00    +0.000 OA
ATOM     14  H   UNL     1      48.946   2.984  21.206  0.00  0.00    +0.000 HD
ENDBRANCH  11  13
ENDBRANCH   7  11
ENDBRANCH   2   3
BRANCH   1  19
ATOM     15  C   UNL     1      44.534   4.062  10.199  0.00  0.00    +0.000 A 
ATOM     16  C   UNL     1      43.675   3.088  10.724  0.00  0.00    +0.000 A 
ATOM     17  C   UNL     1      43.500   2.964  12.100  0.00  0.00    +0.000 A 
ATOM     18  C   UNL     1      44.202   3.800  12.967  0.00  0.00    +0.000 A 
ATOM     19  C   UNL     1      45.103   4.755  12.473  0.00  0.00    +0.000 A 
ATOM     20  C   UNL     1      45.239   4.896  11.085  0.00  0.00    +0.000 A 
BRANCH  15  21
ATOM     21  C   UNL     1      44.736   4.178   8.709  0.00  0.00    +0.000 C 
BRANCH  21  22
ATOM     22  N   UNL     1      45.838   5.074   8.381  0.00  0.00    +0.000 NA
ATOM     23  H   UNL     1      46.719   4.614   8.601  0.00  0.00    +0.000 HD
ATOM     24  H   UNL     1      45.782   5.895   8.983  0.00  0.00    +0.000 HD
ENDBRANCH  21  22
ENDBRANCH  15  21
ENDBRANCH   1  19
TORSDOF 6
ENDMDL
MODEL 4
REMARK VINA RESULT:    -6.018      5.901      9.479
REMARK INTER + INTRA:          -8.111
REMARK INTER:                  -7.754
REMARK INTRA:                  -0.356
REMARK UNBOUND:                -0.333
REMARK  Name = 
REMARK  6 active torsions:
REMARK  status: ('A' for Active; 'I' for Inactive)
REMARK    1  A    between atoms: N_1  and  C_2
REMARK    2  A    between atoms: C_2  and  C_3
REMARK    3  A    between atoms: C_7  and  C_8
REMARK    4  A    between atoms: C_9  and  N_10
REMARK    5  A    between atoms: C_14  and  C_15
REMARK    6  A    between atoms: C_15  and  O_17
REMARK                            x       y       z     vdW  Elec       q    Type
REMARK                         _______ _______ _______ _____ _____    ______ ____
ROOT
ATOM      1  C   UNL     1      45.570   5.240   9.162  0.00  0.00    +0.000 C 
ATOM      2  C   UNL     1      45.458   5.380  10.489  0.00  0.00    +0.000 C 
ENDROOT
BRANCH   2   3
ATOM      3  N   UNL     1      45.242   6.524  11.214  0.00  0.00    +0.000 N 
ATOM      4  C   UNL     1      46.198   7.272  11.904  0.00  0.00    +0.000 A 
ATOM      5  C   UNL     1      47.547   7.270  11.544  0.00  0.00    +0.000 A 
ATOM      6  C   UNL     1      48.478   7.980  12.300  0.00  0.00    +0.000 A 
ATOM      7  C   UNL     1      48.036   8.705  13.401  0.00  0.00    +0.000 A 
ATOM      8  C   UNL     1      46.679   8.675  13.690  0.00  0.00    +0.000 A 
ATOM      9  N   UNL     1      45.758   7.995  12.957  0.00  0.00    +0.000 NA
ATOM     10  H   UNL     1      44.304   6.678  11.573  0.00  0.00    +0.000 HD
BRANCH   7  11
ATOM     11  C   UNL     1      48.937   9.448  14.303  0.00  0.00    +0.000 C 
ATOM     12  O   UNL     1      50.153   9.421  14.182  0.00  0.00    +0.000 OA
BRANCH  11  13
ATOM     13  O   UNL     1      48.311  10.138  15.279  0.00  0.00    +0.000 OA
ATOM     14  H   UNL     1      48.692  10.057  16.170  0.00  0.00    +0.000 HD
ENDBRANCH  11  13
ENDBRANCH   7  11
ENDBRANCH   2   3
BRANCH   1  19
ATOM     15  C   UNL     1      46.790   2.630   6.711  0.00  0.00    +0.000 A 
ATOM     16  C   UNL     1      46.422   1.449   7.369  0.00  0.00    +0.000 A 
ATOM     17  C   UNL     1      45.733   1.497   8.578  0.00  0.00    +0.000 A 
ATOM     18  C   UNL     1      45.426   2.729   9.154  0.00  0.00    +0.000 A 
ATOM     19  C   UNL     1      45.821   3.928   8.541  0.00  0.00    +0.000 A 
ATOM     20  C   UNL     1      46.479   3.866   7.305  0.00  0.00    +0.000 A 
BRANCH  15  21
ATOM     21  C   UNL     1      47.555   2.573   5.412  0.00  0.00    +0.000 C 
BRANCH  21  22
ATOM     22  N   UNL     1      48.363   1.362   5.314  0.00  0.00    +0.000 NA
ATOM     23  H   UNL     1      49.051   1.479   4.573  0.00  0.00    +0.000 HD
ATOM     24  H   UNL     1      47.760   0.590   5.029  0.00  0.00    +0.000 HD
ENDBRANCH  21  22
ENDBRANCH  15  21
ENDBRANCH   1  19
TORSDOF 6
ENDMDL
MODEL 5
REMARK VINA RESULT:    -5.933      1.634      2.092
REMARK INTER + INTRA:          -8.000
REMARK INTER:                  -7.662
REMARK INTRA:                  -0.338
REMARK UNBOUND:                -0.333
REMARK  Name = 
REMARK  6 active torsions:
REMARK  status: ('A' for Active; 'I' for Inactive)
REMARK    1  A    between atoms: N_1  and  C_2
REMARK    2  A    between atoms: C_2  and  C_3
REMARK    3  A    between atoms: C_7  and  C_8
REMARK    4  A    between atoms: C_9  and  N_10
REMARK    5  A    between atoms: C_14  and  C_15
REMARK    6  A    between atoms: C_15  and  O_17
REMARK                            x       y       z     vdW  Elec       q    Type
REMARK                         _______ _______ _______ _____ _____    ______ ____
ROOT
ATOM      1  C   UNL     1      48.428   5.388  16.296  0.00  0.00    +0.000 C 
ATOM      2  C   UNL     1      47.394   4.577  16.034  0.00  0.00    +0.000 C 
ENDROOT
BRANCH   2   3
ATOM      3  N   UNL     1      47.193   3.771  14.942  0.00  0.00    +0.000 N 
ATOM      4  C   UNL     1      46.466   4.085  13.792  0.00  0.00    +0.000 A 
ATOM      5  C   UNL     1      46.281   5.400  13.363  0.00  0.00    +0.000 A 
ATOM      6  C   UNL     1      45.493   5.673  12.246  0.00  0.00    +0.000 A 
ATOM      7  C   UNL     1      44.917   4.612  11.556  0.00  0.00    +0.000 A 
ATOM      8  C   UNL     1      45.157   3.329  12.030  0.00  0.00    +0.000 A 
ATOM      9  N   UNL     1      45.930   3.048  13.112  0.00  0.00    +0.000 NA
ATOM     10  H   UNL     1      47.274   2.768  15.082  0.00  0.00    +0.000 HD
BRANCH   7  11
ATOM     11  C   UNL     1      44.024   4.784  10.395  0.00  0.00    +0.000 C 
ATOM     12  O   UNL     1      44.127   4.107   9.383  0.00  0.00    +0.000 OA
BRANCH  11  13
ATOM     13  O   UNL     1      43.102   5.762  10.535  0.00  0.00    +0.000 OA
ATOM     14  H   UNL     1      42.173   5.483  10.474  0.00  0.00    +0.000 HD
ENDBRANCH  11  13
ENDBRANCH   7  11
ENDBRANCH   2   3
BRANCH   1  19
ATOM     15  C   UNL     1      47.910   6.474  19.881  0.00  0.00    +0.000 A 
ATOM     16  C   UNL     1      48.641   7.669  19.909  0.00  0.00    +0.000 A 
ATOM     17  C   UNL     1      49.256   8.151  18.757  0.00  0.00    +0.000 A 
ATOM     18  C   UNL     1      49.167   7.428  17.568  0.00  0.00    +0.000 A 
ATOM     19  C   UNL     1      48.479   6.205  17.520  0.00  0.00    +0.000 A 
ATOM     20  C   UNL     1      47.831   5.752  18.677  0.00  0.00    +0.000 A 
BRANCH  15  21
ATOM     21  C   UNL     1      47.263   5.946  21.137  0.00  0.00    +0.000 C 
BRANCH  21  22
ATOM     22  N   UNL     1      47.832   4.665  21.541  0.00  0.00    +0.000 NA
ATOM     23  H   UNL     1      47.802   4.023  20.752  0.00  0.00    +0.000 HD
ATOM     24  H   UNL     1      47.242   4.259  22.267  0.00  0.00    +0.000 HD
ENDBRANCH  21  22
ENDBRANCH  15  21
ENDBRANCH   1  19
TORSDOF 6
ENDMDL
MODEL 6
REMARK VINA RESULT:    -5.801      2.333      2.765
REMARK INTER + INTRA:          -7.830
REMARK INTER:                  -7.445
REMARK INTRA:                  -0.385
REMARK UNBOUND:                -0.333
REMARK  Name = 
REMARK  6 active torsions:
REMARK  status: ('A' for Active; 'I' for Inactive)
REMARK    1  A    between atoms: N_1  and  C_2
REMARK    2  A    between atoms: C_2  and  C_3
REMARK    3  A    between atoms: C_7  and  C_8
REMARK    4  A    between atoms: C_9  and  N_10
REMARK    5  A    between atoms: C_14  and  C_15
REMARK    6  A    between atoms: C_15  and  O_17
REMARK                            x       y       z     vdW  Elec       q    Type
REMARK                         _______ _______ _______ _____ _____    ______ ____
ROOT
ATOM      1  C   UNL     1      48.480   6.433  16.247  0.00  0.00    +0.000 C 
ATOM      2  C   UNL     1      48.385   6.225  14.927  0.00  0.00    +0.000 C 
ENDROOT
BRANCH   2   3
ATOM      3  N   UNL     1      47.523   6.800  14.029  0.00  0.00    +0.000 N 
ATOM      4  C   UNL     1      46.547   6.151  13.269  0.00  0.00    +0.000 A 
ATOM      5  C   UNL     1      45.965   4.949  13.676  0.00  0.00    +0.000 A 
ATOM      6  C   UNL     1      45.042   4.301  12.857  0.00  0.00    +0.000 A 
ATOM      7  C   UNL     1      44.697   4.884  11.643  0.00  0.00    +0.000 A 
ATOM      8  C   UNL     1      45.304   6.088  11.310  0.00  0.00    +0.000 A 
ATOM      9  N   UNL     1      46.197   6.736  12.103  0.00  0.00    +0.000 NA
ATOM     10  H   UNL     1      47.802   7.686  13.616  0.00  0.00    +0.000 HD
BRANCH   7  11
ATOM     11  C   UNL     1      43.775   4.263  10.673  0.00  0.00    +0.000 C 
ATOM     12  O   UNL     1      43.237   3.185  10.879  0.00  0.00    +0.000 OA
BRANCH  11  13
ATOM     13  O   UNL     1      43.593   4.970   9.537  0.00  0.00    +0.000 OA
ATOM     14  H   UNL     1      42.766   5.478   9.480  0.00  0.00    +0.000 HD
ENDBRANCH  11  13
ENDBRANCH   7  11
ENDBRANCH   2   3
BRANCH   1  19
ATOM     15  C   UNL     1      50.580   3.616  17.645  0.00  0.00    +0.000 A 
ATOM     16  C   UNL     1      51.395   4.310  18.549  0.00  0.00    +0.000 A 
ATOM     17  C   UNL     1      51.230   5.678  18.745  0.00  0.00    +0.000 A 
ATOM     18  C   UNL     1      50.262   6.372  18.020  0.00  0.00    +0.000 A 
ATOM     19  C   UNL     1      49.461   5.713  17.075  0.00  0.00    +0.000 A 
ATOM     20  C   UNL     1      49.611   4.328  16.917  0.00  0.00    +0.000 A 
BRANCH  15  21
ATOM     21  C   UNL     1      50.777   2.137  17.421  0.00  0.00    +0.000 C 
BRANCH  21  22
ATOM     22  N   UNL     1      50.039   1.664  16.255  0.00  0.00    +0.000 NA
ATOM     23  H   UNL     1      50.481   2.025  15.412  0.00  0.00    +0.000 HD
ATOM     24  H   UNL     1      49.099   2.059  16.281  0.00  0.00    +0.000 HD
ENDBRANCH  21  22
ENDBRANCH  15  21
ENDBRANCH   1  19
TORSDOF 6
ENDMDL
MODEL 7
REMARK VINA RESULT:    -5.683      5.421      9.952
REMARK INTER + INTRA:          -7.677
REMARK INTER:                  -7.372
REMARK INTRA:                  -0.305
REMARK UNBOUND:                -0.333
REMARK  Name = 
REMARK  6 active torsions:
REMARK  status: ('A' for Active; 'I' for Inactive)
REMARK    1  A    between atoms: N_1  and  C_2
REMARK    2  A    between atoms: C_2  and  C_3
REMARK    3  A    between atoms: C_7  and  C_8
REMARK    4  A    between atoms: C_9  and  N_10
REMARK    5  A    between atoms: C_14  and  C_15
REMARK    6  A    between atoms: C_15  and  O_17
REMARK                            x       y       z     vdW  Elec       q    Type
REMARK                         _______ _______ _______ _____ _____    ______ ____
ROOT
ATOM      1  C   UNL     1      43.151  10.517  11.383  0.00  0.00    +0.000 C 
ATOM      2  C   UNL     1      43.765   9.360  11.101  0.00  0.00    +0.000 C 
ENDROOT
BRANCH   2   3
ATOM      3  N   UNL     1      44.981   8.905  11.544  0.00  0.00    +0.000 N 
ATOM      4  C   UNL     1      45.317   7.588  11.863  0.00  0.00    +0.000 A 
ATOM      5  C   UNL     1      44.656   6.494  11.302  0.00  0.00    +0.000 A 
ATOM      6  C   UNL     1      44.979   5.197  11.698  0.00  0.00    +0.000 A 
ATOM      7  C   UNL     1      45.986   5.014  12.639  0.00  0.00    +0.000 A 
ATOM      8  C   UNL     1      46.612   6.147  13.142  0.00  0.00    +0.000 A 
ATOM      9  N   UNL     1      46.313   7.416  12.759  0.00  0.00    +0.000 NA
ATOM     10  H   UNL     1      45.592   9.577  11.999  0.00  0.00    +0.000 HD
BRANCH   7  11
ATOM     11  C   UNL     1      46.375   3.694  13.171  0.00  0.00    +0.000 C 
ATOM     12  O   UNL     1      47.354   3.538  13.884  0.00  0.00    +0.000 OA
BRANCH  11  13
ATOM     13  O   UNL     1      45.575   2.676  12.786  0.00  0.00    +0.000 OA
ATOM     14  H   UNL     1      44.705   2.631  13.217  0.00  0.00    +0.000 HD
ENDBRANCH  11  13
ENDBRANCH   7  11
ENDBRANCH   2   3
BRANCH   1  19
ATOM     15  C   UNL     1      39.423  10.506  10.747  0.00  0.00    +0.000 A 
ATOM     16  C   UNL     1      39.305  11.547   9.816  0.00  0.00    +0.000 A 
ATOM     17  C   UNL     1      40.436  12.216   9.354  0.00  0.00    +0.000 A 
ATOM     18  C   UNL     1      41.696  11.866   9.838  0.00  0.00    +0.000 A 
ATOM     19  C   UNL     1      41.841  10.859  10.804  0.00  0.00    +0.000 A 
ATOM     20  C   UNL     1      40.699  10.166  11.231  0.00  0.00    +0.000 A 
BRANCH  15  21
ATOM     21  C   UNL     1      38.194   9.799  11.260  0.00  0.00    +0.000 C 
BRANCH  21  22
ATOM     22  N   UNL     1      37.470   9.126  10.188  0.00  0.00    +0.000 NA
ATOM     23  H   UNL     1      36.511   9.467  10.167  0.00  0.00    +0.000 HD
ATOM     24  H   UNL     1      37.418   8.130  10.403  0.00  0.00    +0.000 HD
ENDBRANCH  21  22
ENDBRANCH  15  21
ENDBRANCH   1  19
TORSDOF 6
ENDMDL
MODEL 8
REMARK VINA RESULT:    -5.600      4.167      8.300
REMARK INTER + INTRA:          -7.570
REMARK INTER:                  -7.370
REMARK INTRA:                  -0.201
REMARK UNBOUND:                -0.333
REMARK  Name = 
REMARK  6 active torsions:
REMARK  status: ('A' for Active; 'I' for Inactive)
REMARK    1  A    between atoms: N_1  and  C_2
REMARK    2  A    between atoms: C_2  and  C_3
REMARK    3  A    between atoms: C_7  and  C_8
REMARK    4  A    between atoms: C_9  and  N_10
REMARK    5  A    between atoms: C_14  and  C_15
REMARK    6  A    between atoms: C_15  and  O_17
REMARK                            x       y       z     vdW  Elec       q    Type
REMARK                         _______ _______ _______ _____ _____    ______ ____
ROOT
ATOM      1  C   UNL     1      46.980   5.100  13.994  0.00  0.00    +0.000 C 
ATOM      2  C   UNL     1      46.984   3.787  14.261  0.00  0.00    +0.000 C 
ENDROOT
BRANCH   2   3
ATOM      3  N   UNL     1      47.731   3.104  15.186  0.00  0.00    +0.000 N 
ATOM      4  C   UNL     1      47.985   3.486  16.505  0.00  0.00    +0.000 A 
ATOM      5  C   UNL     1      47.122   4.320  17.218  0.00  0.00    +0.000 A 
ATOM      6  C   UNL     1      47.447   4.730  18.511  0.00  0.00    +0.000 A 
ATOM      7  C   UNL     1      48.630   4.274  19.082  0.00  0.00    +0.000 A 
ATOM      8  C   UNL     1      49.431   3.434  18.320  0.00  0.00    +0.000 A 
ATOM      9  N   UNL     1      49.123   3.019  17.064  0.00  0.00    +0.000 NA
ATOM     10  H   UNL     1      48.430   2.456  14.835  0.00  0.00    +0.000 HD
BRANCH   7  11
ATOM     11  C   UNL     1      49.100   4.684  20.418  0.00  0.00    +0.000 C 
ATOM     12  O   UNL     1      50.133   5.315  20.584  0.00  0.00    +0.000 OA
BRANCH  11  13
ATOM     13  O   UNL     1      48.309   4.287  21.439  0.00  0.00    +0.000 OA
ATOM     14  H   UNL     1      47.932   4.997  21.986  0.00  0.00    +0.000 HD
ENDBRANCH  11  13
ENDBRANCH   7  11
ENDBRANCH   2   3
BRANCH   1  19
ATOM     15  C   UNL     1      44.465   5.335  11.180  0.00  0.00    +0.000 A 
ATOM     16  C   UNL     1      44.377   6.723  11.011  0.00  0.00    +0.000 A 
ATOM     17  C   UNL     1      45.170   7.580  11.770  0.00  0.00    +0.000 A 
ATOM     18  C   UNL     1      46.042   7.058  12.724  0.00  0.00    +0.000 A 
ATOM     19  C   UNL     1      46.119   5.674  12.946  0.00  0.00    +0.000 A 
ATOM     20  C   UNL     1      45.345   4.821  12.148  0.00  0.00    +0.000 A 
BRANCH  15  21
ATOM     21  C   UNL     1      43.589   4.412  10.370  0.00  0.00    +0.000 C 
BRANCH  21  22
ATOM     22  N   UNL     1      42.853   3.482  11.219  0.00  0.00    +0.000 NA
ATOM     23  H   UNL     1      42.248   4.009  11.845  0.00  0.00    +0.000 HD
ATOM     24  H   UNL     1      43.517   2.983  11.810  0.00  0.00    +0.000 HD
ENDBRANCH  21  22
ENDBRANCH  15  21
ENDBRANCH   1  19
TORSDOF 6
ENDMDL
MODEL 9
REMARK VINA RESULT:    -5.571      4.144      8.480
REMARK INTER + INTRA:          -7.532
REMARK INTER:                  -7.210
REMARK INTRA:                  -0.322
REMARK UNBOUND:                -0.333
REMARK  Name = 
REMARK  6 active torsions:
REMARK  status: ('A' for Active; 'I' for Inactive)
REMARK    1  A    between atoms: N_1  and  C_2
REMARK    2  A    between atoms: C_2  and  C_3
REMARK    3  A    between atoms: C_7  and  C_8
REMARK    4  A    between atoms: C_9  and  N_10
REMARK    5  A    between atoms: C_14  and  C_15
REMARK    6  A    between atoms: C_15  and  O_17
REMARK                            x       y       z     vdW  Elec       q    Type
REMARK                         _______ _______ _______ _____ _____    ______ ____
ROOT
ATOM      1  C   UNL     1      46.551   6.463  13.084  0.00  0.00    +0.000 C 
ATOM      2  C   UNL     1      47.450   5.909  13.909  0.00  0.00    +0.000 C 
ENDROOT
BRANCH   2   3
ATOM      3  N   UNL     1      48.089   6.475  14.981  0.00  0.00    +0.000 N 
ATOM      4  C   UNL     1      48.359   5.870  16.211  0.00  0.00    +0.000 A 
ATOM      5  C   UNL     1      48.484   4.487  16.349  0.00  0.00    +0.000 A 
ATOM      6  C   UNL     1      48.687   3.919  17.606  0.00  0.00    +0.000 A 
ATOM      7  C   UNL     1      48.787   4.756  18.711  0.00  0.00    +0.000 A 
ATOM      8  C   UNL     1      48.669   6.123  18.498  0.00  0.00    +0.000 A 
ATOM      9  N   UNL     1      48.480   6.690  17.277  0.00  0.00    +0.000 NA
ATOM     10  H   UNL     1      48.081   7.489  15.048  0.00  0.00    +0.000 HD
BRANCH   7  11
ATOM     11  C   UNL     1      48.948   4.266  20.093  0.00  0.00    +0.000 C 
ATOM     12  O   UNL     1      49.668   4.824  20.907  0.00  0.00    +0.000 OA
BRANCH  11  13
ATOM     13  O   UNL     1      48.255   3.142  20.375  0.00  0.00    +0.000 OA
ATOM     14  H   UNL     1      47.461   2.984  19.835  0.00  0.00    +0.000 HD
ENDBRANCH  11  13
ENDBRANCH   7  11
ENDBRANCH   2   3
BRANCH   1  19
ATOM     15  C   UNL     1      44.473   3.943  11.176  0.00  0.00    +0.000 A 
ATOM     16  C   UNL     1      44.741   4.320   9.853  0.00  0.00    +0.000 A 
ATOM     17  C   UNL     1      45.633   5.353   9.577  0.00  0.00    +0.000 A 
ATOM     18  C   UNL     1      46.249   6.037  10.624  0.00  0.00    +0.000 A 
ATOM     19  C   UNL     1      45.967   5.712  11.959  0.00  0.00    +0.000 A 
ATOM     20  C   UNL     1      45.098   4.644  12.223  0.00  0.00    +0.000 A 
BRANCH  15  21
ATOM     21  C   UNL     1      43.490   2.838  11.470  0.00  0.00    +0.000 C 
BRANCH  21  22
ATOM     22  N   UNL     1      43.573   2.395  12.857  0.00  0.00    +0.000 NA
ATOM     23  H   UNL     1      44.542   2.180  13.081  0.00  0.00    +0.000 HD
ATOM     24  H   UNL     1      43.053   1.523  12.953  0.00  0.00    +0.000 HD
ENDBRANCH  21  22
ENDBRANCH  15  21
ENDBRANCH   1  19
TORSDOF 6
ENDMDL
