MODEL 1
REMARK VINA RESULT:    -7.300      0.000      0.000
REMARK INTER + INTRA:          -9.577
REMARK INTER:                  -9.007
REMARK INTRA:                  -0.570
REMARK UNBOUND:                -0.570
REMARK  Name = 
REMARK  5 active torsions:
REMARK  status: ('A' for Active; 'I' for Inactive)
REMARK    1  A    between atoms: C_1  and  O_2
REMARK    2  A    between atoms: O_2  and  C_3
REMARK    3  A    between atoms: C_7  and  C_8
REMARK    4  A    between atoms: C_8  and  N_9
REMARK    5  A    between atoms: C_10  and  C_12
REMARK                            x       y       z     vdW  Elec       q    Type
REMARK                         _______ _______ _______ _____ _____    ______ ____
ROOT
ATOM      1  N   UNL     1      46.798   4.488  15.881  0.00  0.00    +0.000 N 
ATOM      2  C   UNL     1      46.927   4.214  14.545  0.00  0.00    +0.000 C 
ATOM      3  O   UNL     1      47.272   3.112  14.131  0.00  0.00    +0.000 OA
ATOM      4  H   UNL     1      46.707   5.450  16.186  0.00  0.00    +0.000 HD
ENDROOT
BRANCH   2   5
ATOM      5  C   UNL     1      46.554   5.297  13.624  0.00  0.00    +0.000 A 
ATOM      6  C   UNL     1      47.493   6.262  13.282  0.00  0.00    +0.000 A 
ATOM      7  S   UNL     1      46.920   7.402  12.151  0.00  0.00    +0.000 S 
ATOM      8  C   UNL     1      45.381   6.678  12.116  0.00  0.00    +0.000 A 
ATOM      9  N   UNL     1      44.387   7.184  11.338  0.00  0.00    +0.000 NA
ATOM     10  C   UNL     1      43.261   6.558  11.436  0.00  0.00    +0.000 A 
ATOM     11  N   UNL     1      43.041   5.471  12.240  0.00  0.00    +0.000 N 
ATOM     12  C   UNL     1      44.023   4.905  13.019  0.00  0.00    +0.000 A 
ATOM     13  O   UNL     1      43.803   3.904  13.693  0.00  0.00    +0.000 OA
ATOM     14  C   UNL     1      45.308   5.576  12.951  0.00  0.00    +0.000 A 
ATOM     15  H   UNL     1      42.137   5.022  12.268  0.00  0.00    +0.000 HD
ENDBRANCH   2   5
BRANCH   1  16
ATOM     16  C   UNL     1      47.085   3.520  16.909  0.00  0.00    +0.000 C 
BRANCH  16  21
ATOM     17  C   UNL     1      50.681   2.274  17.258  0.00  0.00    +0.000 A 
ATOM     18  C   UNL     1      51.346   3.459  17.578  0.00  0.00    +0.000 A 
ATOM     19  C   UNL     1      50.631   4.653  17.697  0.00  0.00    +0.000 A 
ATOM     20  C   UNL     1      49.251   4.672  17.497  0.00  0.00    +0.000 A 
ATOM     21  C   UNL     1      48.565   3.492  17.187  0.00  0.00    +0.000 A 
ATOM     22  C   UNL     1      49.294   2.297  17.065  0.00  0.00    +0.000 A 
BRANCH  17  24
ATOM     23  C   UNL     1      52.513   0.840  17.741  0.00  0.00    +0.000 C 
ATOM     24  O   UNL     1      51.262   1.047  17.097  0.00  0.00    +0.000 OA
ENDBRANCH  17  24
ENDBRANCH  16  21
ENDBRANCH   1  16
TORSDOF 4
ENDMDL
MODEL 2
REMARK VINA RESULT:    -6.963      1.227      2.048
REMARK INTER + INTRA:          -9.161
REMARK INTER:                  -8.572
REMARK INTRA:                  -0.590
REMARK UNBOUND:                -0.570
REMARK  Name = 
REMARK  5 active torsions:
REMARK  status: ('A' for Active; 'I' for Inactive)
REMARK    1  A    between atoms: C_1  and  O_2
REMARK    2  A    between atoms: O_2  and  C_3
REMARK    3  A    between atoms: C_7  and  C_8
REMARK    4  A    between atoms: C_8  and  N_9
REMARK    5  A    between atoms: C_10  and  C_12
REMARK                            x       y       z     vdW  Elec       q    Type
REMARK                         _______ _______ _______ _____ _____    ______ ____
ROOT
ATOM      1  N   UNL     1      46.874   4.409  15.870  0.00  0.00    +0.000 N 
ATOM      2  C   UNL     1      46.884   4.156  14.524  0.00  0.00    +0.000 C 
ATOM      3  O   UNL     1      47.204   3.065  14.063  0.00  0.00    +0.000 OA
ATOM      4  H   UNL     1      46.799   5.366  16.196  0.00  0.00    +0.000 HD
ENDROOT
BRANCH   2   5
ATOM      5  C   UNL     1      46.415   5.247  13.657  0.00  0.00    +0.000 A 
ATOM      6  C   UNL     1      47.233   6.347  13.433  0.00  0.00    +0.000 A 
ATOM      7  S   UNL     1      46.569   7.483  12.350  0.00  0.00    +0.000 S 
ATOM      8  C   UNL     1      45.142   6.572  12.181  0.00  0.00    +0.000 A 
ATOM      9  N   UNL     1      44.127   7.002  11.384  0.00  0.00    +0.000 NA
ATOM     10  C   UNL     1      43.091   6.231  11.376  0.00  0.00    +0.000 A 
ATOM     11  N   UNL     1      42.979   5.068  12.093  0.00  0.00    +0.000 N 
ATOM     12  C   UNL     1      43.989   4.578  12.886  0.00  0.00    +0.000 A 
ATOM     13  O   UNL     1      43.872   3.510  13.479  0.00  0.00    +0.000 OA
ATOM     14  C   UNL     1      45.176   5.412  12.935  0.00  0.00    +0.000 A 
ATOM     15  H   UNL     1      42.142   4.506  12.039  0.00  0.00    +0.000 HD
ENDBRANCH   2   5
BRANCH   1  16
ATOM     16  C   UNL     1      47.266   3.430  16.853  0.00  0.00    +0.000 C 
BRANCH  16  21
ATOM     17  C   UNL     1      50.773   4.762  17.580  0.00  0.00    +0.000 A 
ATOM     18  C   UNL     1      51.514   3.579  17.588  0.00  0.00    +0.000 A 
ATOM     19  C   UNL     1      50.884   2.357  17.343  0.00  0.00    +0.000 A 
ATOM     20  C   UNL     1      49.513   2.308  17.089  0.00  0.00    +0.000 A 
ATOM     21  C   UNL     1      48.756   3.486  17.064  0.00  0.00    +0.000 A 
ATOM     22  C   UNL     1      49.399   4.709  17.317  0.00  0.00    +0.000 A 
BRANCH  17  24
ATOM     23  C   UNL     1      50.798   7.059  16.971  0.00  0.00    +0.000 C 
ATOM     24  O   UNL     1      51.264   6.016  17.819  0.00  0.00    +0.000 OA
ENDBRANCH  17  24
ENDBRANCH  16  21
ENDBRANCH   1  16
TORSDOF 4
ENDMDL
MODEL 3
REMARK VINA RESULT:    -6.963      4.325      7.321
REMARK INTER + INTRA:          -9.161
REMARK INTER:                  -8.578
REMARK INTRA:                  -0.583
REMARK UNBOUND:                -0.570
REMARK  Name = 
REMARK  5 active torsions:
REMARK  status: ('A' for Active; 'I' for Inactive)
REMARK    1  A    between atoms: C_1  and  O_2
REMARK    2  A    between atoms: O_2  and  C_3
REMARK    3  A    between atoms: C_7  and  C_8
REMARK    4  A    between atoms: C_8  and  N_9
REMARK    5  A    between atoms: C_10  and  C_12
REMARK                            x       y       z     vdW  Elec       q    Type
REMARK                         _______ _______ _______ _____ _____    ______ ____
ROOT
ATOM      1  N   UNL     1      44.773   5.014  10.331  0.00  0.00    +0.000 N 
ATOM      2  C   UNL     1      44.107   5.759  11.268  0.00  0.00    +0.000 C 
ATOM      3  O   UNL     1      43.000   5.442  11.693  0.00  0.00    +0.000 OA
ATOM      4  H   UNL     1      45.583   5.408   9.865  0.00  0.00    +0.000 HD
ENDROOT
BRANCH   2   5
ATOM      5  C   UNL     1      44.827   6.925  11.799  0.00  0.00    +0.000 A 
ATOM      6  C   UNL     1      44.458   8.202  11.397  0.00  0.00    +0.000 A 
ATOM      7  S   UNL     1      45.345   9.442  12.159  0.00  0.00    +0.000 S 
ATOM      8  C   UNL     1      46.290   8.316  13.016  0.00  0.00    +0.000 A 
ATOM      9  N   UNL     1      47.273   8.727  13.861  0.00  0.00    +0.000 NA
ATOM     10  C   UNL     1      47.935   7.767  14.417  0.00  0.00    +0.000 A 
ATOM     11  N   UNL     1      47.701   6.433  14.205  0.00  0.00    +0.000 N 
ATOM     12  C   UNL     1      46.699   5.971  13.385  0.00  0.00    +0.000 A 
ATOM     13  O   UNL     1      46.487   4.770  13.253  0.00  0.00    +0.000 OA
ATOM     14  C   UNL     1      45.928   7.011  12.729  0.00  0.00    +0.000 A 
ATOM     15  H   UNL     1      48.252   5.730  14.675  0.00  0.00    +0.000 HD
ENDBRANCH   2   5
BRANCH   1  16
ATOM     16  C   UNL     1      44.220   3.820   9.743  0.00  0.00    +0.000 C 
BRANCH  16  21
ATOM     17  C   UNL     1      46.419   1.266   7.941  0.00  0.00    +0.000 A 
ATOM     18  C   UNL     1      46.964   2.051   6.923  0.00  0.00    +0.000 A 
ATOM     19  C   UNL     1      46.634   3.405   6.831  0.00  0.00    +0.000 A 
ATOM     20  C   UNL     1      45.760   3.982   7.751  0.00  0.00    +0.000 A 
ATOM     21  C   UNL     1      45.213   3.214   8.786  0.00  0.00    +0.000 A 
ATOM     22  C   UNL     1      45.548   1.852   8.867  0.00  0.00    +0.000 A 
BRANCH  17  24
ATOM     23  C   UNL     1      46.746  -0.878   6.968  0.00  0.00    +0.000 C 
ATOM     24  O   UNL     1      46.647  -0.069   8.134  0.00  0.00    +0.000 OA
ENDBRANCH  17  24
ENDBRANCH  16  21
ENDBRANCH   1  16
TORSDOF 4
ENDMDL
MODEL 4
REMARK VINA RESULT:    -6.912      2.927      7.076
REMARK INTER + INTRA:          -9.099
REMARK INTER:                  -8.315
REMARK INTRA:                  -0.784
REMARK UNBOUND:                -0.570
REMARK  Name = 
REMARK  5 active torsions:
REMARK  status: ('A' for Active; 'I' for Inactive)
REMARK    1  A    between atoms: C_1  and  O_2
REMARK    2  A    between atoms: O_2  and  C_3
REMARK    3  A    between atoms: C_7  and  C_8
REMARK    4  A    between atoms: C_8  and  N_9
REMARK    5  A    between atoms: C_10  and  C_12
REMARK                            x       y       z     vdW  Elec       q    Type
REMARK                         _______ _______ _______ _____ _____    ______ ____
ROOT
ATOM      1  N   UNL     1      46.773   6.681  13.614  0.00  0.00    +0.000 N 
ATOM      2  C   UNL     1      48.109   6.456  13.812  0.00  0.00    +0.000 C 
ATOM      3  O   UNL     1      48.930   6.529  12.903  0.00  0.00    +0.000 OA
ATOM      4  H   UNL     1      46.111   6.420  14.335  0.00  0.00    +0.000 HD
ENDROOT
BRANCH   2   5
ATOM      5  C   UNL     1      48.522   6.194  15.198  0.00  0.00    +0.000 A 
ATOM      6  C   UNL     1      49.429   7.044  15.817  0.00  0.00    +0.000 A 
ATOM      7  S   UNL     1      49.745   6.640  17.443  0.00  0.00    +0.000 S 
ATOM      8  C   UNL     1      48.721   5.283  17.363  0.00  0.00    +0.000 A 
ATOM      9  N   UNL     1      48.549   4.471  18.441  0.00  0.00    +0.000 NA
ATOM     10  C   UNL     1      47.774   3.460  18.229  0.00  0.00    +0.000 A 
ATOM     11  N   UNL     1      47.154   3.188  17.038  0.00  0.00    +0.000 N 
ATOM     12  C   UNL     1      47.273   3.996  15.932  0.00  0.00    +0.000 A 
ATOM     13  O   UNL     1      46.667   3.748  14.894  0.00  0.00    +0.000 OA
ATOM     14  C   UNL     1      48.140   5.145  16.115  0.00  0.00    +0.000 A 
ATOM     15  H   UNL     1      46.555   2.382  16.939  0.00  0.00    +0.000 HD
ENDBRANCH   2   5
BRANCH   1  16
ATOM     16  C   UNL     1      46.215   6.991  12.321  0.00  0.00    +0.000 C 
BRANCH  16  21
ATOM     17  C   UNL     1      44.132   4.369  10.481  0.00  0.00    +0.000 A 
ATOM     18  C   UNL     1      43.138   4.103  11.425  0.00  0.00    +0.000 A 
ATOM     19  C   UNL     1      43.134   4.782  12.646  0.00  0.00    +0.000 A 
ATOM     20  C   UNL     1      44.118   5.728  12.931  0.00  0.00    +0.000 A 
ATOM     21  C   UNL     1      45.115   6.017  11.992  0.00  0.00    +0.000 A 
ATOM     22  C   UNL     1      45.113   5.325  10.769  0.00  0.00    +0.000 A 
BRANCH  17  24
ATOM     23  C   UNL     1      44.587   2.382   9.259  0.00  0.00    +0.000 C 
ATOM     24  O   UNL     1      44.259   3.766   9.260  0.00  0.00    +0.000 OA
ENDBRANCH  17  24
ENDBRANCH  16  21
ENDBRANCH   1  16
TORSDOF 4
ENDMDL
MODEL 5
REMARK VINA RESULT:    -6.867      1.753      2.734
REMARK INTER + INTRA:          -9.043
REMARK INTER:                  -8.225
REMARK INTRA:                  -0.818
REMARK UNBOUND:                -0.570
REMARK  Name = 
REMARK  5 active torsions:
REMARK  status: ('A' for Active; 'I' for Inactive)
REMARK    1  A    between atoms: C_1  and  O_2
REMARK    2  A    between atoms: O_2  and  C_3
REMARK    3  A    between atoms: C_7  and  C_8
REMARK    4  A    between atoms: C_8  and  N_9
REMARK    5  A    between atoms: C_10  and  C_12
REMARK                            x       y       z     vdW  Elec       q    Type
REMARK                         _______ _______ _______ _____ _____    ______ ____
ROOT
ATOM      1  N   UNL     1      46.901   4.496  15.909  0.00  0.00    +0.000 N 
ATOM      2  C   UNL     1      46.964   4.223  14.569  0.00  0.00    +0.000 C 
ATOM      3  O   UNL     1      47.229   3.105  14.138  0.00  0.00    +0.000 OA
ATOM      4  H   UNL     1      46.877   5.461  16.220  0.00  0.00    +0.000 HD
ENDROOT
BRANCH   2   5
ATOM      5  C   UNL     1      46.620   5.331  13.665  0.00  0.00    +0.000 A 
ATOM      6  C   UNL     1      45.462   5.260  12.902  0.00  0.00    +0.000 A 
ATOM      7  S   UNL     1      45.176   6.655  11.965  0.00  0.00    +0.000 S 
ATOM      8  C   UNL     1      46.616   7.382  12.506  0.00  0.00    +0.000 A 
ATOM      9  N   UNL     1      46.986   8.615  12.065  0.00  0.00    +0.000 NA
ATOM     10  C   UNL     1      48.118   9.030  12.529  0.00  0.00    +0.000 A 
ATOM     11  N   UNL     1      48.912   8.325  13.395  0.00  0.00    +0.000 N 
ATOM     12  C   UNL     1      48.564   7.091  13.892  0.00  0.00    +0.000 A 
ATOM     13  O   UNL     1      49.277   6.507  14.701  0.00  0.00    +0.000 OA
ATOM     14  C   UNL     1      47.302   6.575  13.396  0.00  0.00    +0.000 A 
ATOM     15  H   UNL     1      49.785   8.709  13.725  0.00  0.00    +0.000 HD
ENDBRANCH   2   5
BRANCH   1  16
ATOM     16  C   UNL     1      47.170   3.508  16.923  0.00  0.00    +0.000 C 
BRANCH  16  21
ATOM     17  C   UNL     1      50.767   2.264  17.267  0.00  0.00    +0.000 A 
ATOM     18  C   UNL     1      51.420   3.433  17.662  0.00  0.00    +0.000 A 
ATOM     19  C   UNL     1      50.696   4.615  17.832  0.00  0.00    +0.000 A 
ATOM     20  C   UNL     1      49.319   4.638  17.609  0.00  0.00    +0.000 A 
ATOM     21  C   UNL     1      48.645   3.472  17.225  0.00  0.00    +0.000 A 
ATOM     22  C   UNL     1      49.383   2.290  17.052  0.00  0.00    +0.000 A 
BRANCH  17  24
ATOM     23  C   UNL     1      52.584   0.803  17.728  0.00  0.00    +0.000 C 
ATOM     24  O   UNL     1      51.358   1.049  17.051  0.00  0.00    +0.000 OA
ENDBRANCH  17  24
ENDBRANCH  16  21
ENDBRANCH   1  16
TORSDOF 4
ENDMDL
MODEL 6
REMARK VINA RESULT:    -6.795      2.200      2.899
REMARK INTER + INTRA:          -8.955
REMARK INTER:                  -8.283
REMARK INTRA:                  -0.672
REMARK UNBOUND:                -0.570
REMARK  Name = 
REMARK  5 active torsions:
REMARK  status: ('A' for Active; 'I' for Inactive)
REMARK    1  A    between atoms: C_1  and  O_2
REMARK    2  A    between atoms: O_2  and  C_3
REMARK    3  A    between atoms: C_7  and  C_8
REMARK    4  A    between atoms: C_8  and  N_9
REMARK    5  A    between atoms: C_10  and  C_12
REMARK                            x       y       z     vdW  Elec       q    Type
REMARK                         _______ _______ _______ _____ _____    ______ ____
ROOT
ATOM      1  N   UNL     1      47.682   6.461  14.855  0.00  0.00    +0.000 N 
ATOM      2  C   UNL     1      47.777   6.257  13.504  0.00  0.00    +0.000 C 
ATOM      3  O   UNL     1      48.857   6.141  12.932  0.00  0.00    +0.000 OA
ATOM      4  H   UNL     1      46.795   6.747  15.254  0.00  0.00    +0.000 HD
ENDROOT
BRANCH   2   5
ATOM      5  C   UNL     1      46.507   6.108  12.780  0.00  0.00    +0.000 A 
ATOM      6  C   UNL     1      45.890   7.227  12.235  0.00  0.00    +0.000 A 
ATOM      7  S   UNL     1      44.466   6.869  11.370  0.00  0.00    +0.000 S 
ATOM      8  C   UNL     1      44.593   5.213  11.736  0.00  0.00    +0.000 A 
ATOM      9  N   UNL     1      43.660   4.325  11.296  0.00  0.00    +0.000 NA
ATOM     10  C   UNL     1      43.861   3.108  11.677  0.00  0.00    +0.000 A 
ATOM     11  N   UNL     1      44.911   2.697  12.456  0.00  0.00    +0.000 N 
ATOM     12  C   UNL     1      45.894   3.551  12.897  0.00  0.00    +0.000 A 
ATOM     13  O   UNL     1      46.845   3.141  13.555  0.00  0.00    +0.000 OA
ATOM     14  C   UNL     1      45.712   4.935  12.501  0.00  0.00    +0.000 A 
ATOM     15  H   UNL     1      45.014   1.727  12.715  0.00  0.00    +0.000 HD
ENDBRANCH   2   5
BRANCH   1  16
ATOM     16  C   UNL     1      48.834   6.587  15.711  0.00  0.00    +0.000 C 
BRANCH  16  21
ATOM     17  C   UNL     1      49.685   4.551  18.831  0.00  0.00    +0.000 A 
ATOM     18  C   UNL     1      48.704   3.558  18.780  0.00  0.00    +0.000 A 
ATOM     19  C   UNL     1      47.782   3.539  17.732  0.00  0.00    +0.000 A 
ATOM     20  C   UNL     1      47.832   4.508  16.730  0.00  0.00    +0.000 A 
ATOM     21  C   UNL     1      48.816   5.504  16.757  0.00  0.00    +0.000 A 
ATOM     22  C   UNL     1      49.736   5.517  17.818  0.00  0.00    +0.000 A 
BRANCH  17  24
ATOM     23  C   UNL     1      51.989   4.524  19.411  0.00  0.00    +0.000 C 
ATOM     24  O   UNL     1      50.634   4.691  19.806  0.00  0.00    +0.000 OA
ENDBRANCH  17  24
ENDBRANCH  16  21
ENDBRANCH   1  16
TORSDOF 4
ENDMDL
MODEL 7
REMARK VINA RESULT:    -6.784      4.226      7.523
REMARK INTER + INTRA:          -8.941
REMARK INTER:                  -8.534
REMARK INTRA:                  -0.407
REMARK UNBOUND:                -0.570
REMARK  Name = 
REMARK  5 active torsions:
REMARK  status: ('A' for Active; 'I' for Inactive)
REMARK    1  A    between atoms: C_1  and  O_2
REMARK    2  A    between atoms: O_2  and  C_3
REMARK    3  A    between atoms: C_7  and  C_8
REMARK    4  A    between atoms: C_8  and  N_9
REMARK    5  A    between atoms: C_10  and  C_12
REMARK                            x       y       z     vdW  Elec       q    Type
REMARK                         _______ _______ _______ _____ _____    ______ ____
ROOT
ATOM      1  N   UNL     1      46.010   5.642  10.024  0.00  0.00    +0.000 N 
ATOM      2  C   UNL     1      45.629   5.822  11.327  0.00  0.00    +0.000 C 
ATOM      3  O   UNL     1      44.499   5.555  11.725  0.00  0.00    +0.000 OA
ATOM      4  H   UNL     1      46.876   6.054   9.696  0.00  0.00    +0.000 HD
ENDROOT
BRANCH   2   5
ATOM      5  C   UNL     1      46.677   6.284  12.249  0.00  0.00    +0.000 A 
ATOM      6  C   UNL     1      47.478   7.362  11.895  0.00  0.00    +0.000 A 
ATOM      7  S   UNL     1      48.592   7.812  13.104  0.00  0.00    +0.000 S 
ATOM      8  C   UNL     1      48.080   6.549  14.123  0.00  0.00    +0.000 A 
ATOM      9  N   UNL     1      48.654   6.359  15.343  0.00  0.00    +0.000 NA
ATOM     10  C   UNL     1      48.194   5.344  15.995  0.00  0.00    +0.000 A 
ATOM     11  N   UNL     1      47.212   4.502  15.540  0.00  0.00    +0.000 N 
ATOM     12  C   UNL     1      46.583   4.674  14.330  0.00  0.00    +0.000 A 
ATOM     13  O   UNL     1      45.676   3.929  13.972  0.00  0.00    +0.000 OA
ATOM     14  C   UNL     1      47.068   5.800  13.552  0.00  0.00    +0.000 A 
ATOM     15  H   UNL     1      46.893   3.727  16.102  0.00  0.00    +0.000 HD
ENDBRANCH   2   5
BRANCH   1  16
ATOM     16  C   UNL     1      45.112   5.156   9.006  0.00  0.00    +0.000 C 
BRANCH  16  21
ATOM     17  C   UNL     1      46.988   2.393   7.150  0.00  0.00    +0.000 A 
ATOM     18  C   UNL     1      46.470   1.254   7.767  0.00  0.00    +0.000 A 
ATOM     19  C   UNL     1      45.505   1.379   8.769  0.00  0.00    +0.000 A 
ATOM     20  C   UNL     1      45.053   2.639   9.160  0.00  0.00    +0.000 A 
ATOM     21  C   UNL     1      45.552   3.792   8.543  0.00  0.00    +0.000 A 
ATOM     22  C   UNL     1      46.525   3.656   7.540  0.00  0.00    +0.000 A 
BRANCH  17  24
ATOM     23  C   UNL     1      47.506   2.146   4.843  0.00  0.00    +0.000 C 
ATOM     24  O   UNL     1      47.943   2.410   6.170  0.00  0.00    +0.000 OA
ENDBRANCH  17  24
ENDBRANCH  16  21
ENDBRANCH   1  16
TORSDOF 4
ENDMDL
MODEL 8
REMARK VINA RESULT:    -6.747      2.923      6.960
REMARK INTER + INTRA:          -8.895
REMARK INTER:                  -8.003
REMARK INTRA:                  -0.892
REMARK UNBOUND:                -0.570
REMARK  Name = 
REMARK  5 active torsions:
REMARK  status: ('A' for Active; 'I' for Inactive)
REMARK    1  A    between atoms: C_1  and  O_2
REMARK    2  A    between atoms: O_2  and  C_3
REMARK    3  A    between atoms: C_7  and  C_8
REMARK    4  A    between atoms: C_8  and  N_9
REMARK    5  A    between atoms: C_10  and  C_12
REMARK                            x       y       z     vdW  Elec       q    Type
REMARK                         _______ _______ _______ _____ _____    ______ ____
ROOT
ATOM      1  N   UNL     1      46.185   6.747  12.523  0.00  0.00    +0.000 N 
ATOM      2  C   UNL     1      47.544   6.807  12.680  0.00  0.00    +0.000 C 
ATOM      3  O   UNL     1      48.298   7.100  11.757  0.00  0.00    +0.000 OA
ATOM      4  H   UNL     1      45.619   6.314  13.245  0.00  0.00    +0.000 HD
ENDROOT
BRANCH   2   5
ATOM      5  C   UNL     1      48.049   6.575  14.040  0.00  0.00    +0.000 A 
ATOM      6  C   UNL     1      48.947   7.474  14.602  0.00  0.00    +0.000 A 
ATOM      7  S   UNL     1      49.377   7.097  16.208  0.00  0.00    +0.000 S 
ATOM      8  C   UNL     1      48.420   5.690  16.193  0.00  0.00    +0.000 A 
ATOM      9  N   UNL     1      48.353   4.878  17.282  0.00  0.00    +0.000 NA
ATOM     10  C   UNL     1      47.618   3.828  17.120  0.00  0.00    +0.000 A 
ATOM     11  N   UNL     1      46.944   3.518  15.968  0.00  0.00    +0.000 N 
ATOM     12  C   UNL     1      46.957   4.323  14.854  0.00  0.00    +0.000 A 
ATOM     13  O   UNL     1      46.305   4.038  13.854  0.00  0.00    +0.000 OA
ATOM     14  C   UNL     1      47.774   5.515  14.981  0.00  0.00    +0.000 A 
ATOM     15  H   UNL     1      46.381   2.682  15.907  0.00  0.00    +0.000 HD
ENDBRANCH   2   5
BRANCH   1  16
ATOM     16  C   UNL     1      45.530   6.989  11.262  0.00  0.00    +0.000 C 
BRANCH  16  21
ATOM     17  C   UNL     1      44.209   3.517  10.368  0.00  0.00    +0.000 A 
ATOM     18  C   UNL     1      44.815   3.310   9.127  0.00  0.00    +0.000 A 
ATOM     19  C   UNL     1      45.660   4.283   8.590  0.00  0.00    +0.000 A 
ATOM     20  C   UNL     1      45.906   5.467   9.286  0.00  0.00    +0.000 A 
ATOM     21  C   UNL     1      45.317   5.687  10.537  0.00  0.00    +0.000 A 
ATOM     22  C   UNL     1      44.465   4.703  11.066  0.00  0.00    +0.000 A 
BRANCH  17  24
ATOM     23  C   UNL     1      43.402   2.623  12.416  0.00  0.00    +0.000 C 
ATOM     24  O   UNL     1      43.353   2.655  10.995  0.00  0.00    +0.000 OA
ENDBRANCH  17  24
ENDBRANCH  16  21
ENDBRANCH   1  16
TORSDOF 4
ENDMDL
MODEL 9
REMARK VINA RESULT:    -6.353      3.069      4.055
REMARK INTER + INTRA:          -8.409
REMARK INTER:                  -7.763
REMARK INTRA:                  -0.646
REMARK UNBOUND:                -0.570
REMARK  Name = 
REMARK  5 active torsions:
REMARK  status: ('A' for Active; 'I' for Inactive)
REMARK    1  A    between atoms: C_1  and  O_2
REMARK    2  A    between atoms: O_2  and  C_3
REMARK    3  A    between atoms: C_7  and  C_8
REMARK    4  A    between atoms: C_8  and  N_9
REMARK    5  A    between atoms: C_10  and  C_12
REMARK                            x       y       z     vdW  Elec       q    Type
REMARK                         _______ _______ _______ _____ _____    ______ ____
ROOT
ATOM      1  N   UNL     1      47.784   5.977  15.262  0.00  0.00    +0.000 N 
ATOM      2  C   UNL     1      47.951   6.263  13.934  0.00  0.00    +0.000 C 
ATOM      3  O   UNL     1      49.046   6.539  13.454  0.00  0.00    +0.000 OA
ATOM      4  H   UNL     1      46.849   5.950  15.653  0.00  0.00    +0.000 HD
ENDROOT
BRANCH   2   5
ATOM      5  C   UNL     1      46.752   6.147  13.091  0.00  0.00    +0.000 A 
ATOM      6  C   UNL     1      46.193   7.288  12.531  0.00  0.00    +0.000 A 
ATOM      7  S   UNL     1      44.854   6.969  11.526  0.00  0.00    +0.000 S 
ATOM      8  C   UNL     1      44.941   5.300  11.844  0.00  0.00    +0.000 A 
ATOM      9  N   UNL     1      44.050   4.434  11.289  0.00  0.00    +0.000 NA
ATOM     10  C   UNL     1      44.211   3.203  11.644  0.00  0.00    +0.000 A 
ATOM     11  N   UNL     1      45.183   2.759  12.502  0.00  0.00    +0.000 N 
ATOM     12  C   UNL     1      46.123   3.591  13.061  0.00  0.00    +0.000 A 
ATOM     13  O   UNL     1      47.008   3.153  13.790  0.00  0.00    +0.000 OA
ATOM     14  C   UNL     1      45.983   4.989  12.699  0.00  0.00    +0.000 A 
ATOM     15  H   UNL     1      45.258   1.780  12.736  0.00  0.00    +0.000 HD
ENDBRANCH   2   5
BRANCH   1  16
ATOM     16  C   UNL     1      48.868   6.006  16.212  0.00  0.00    +0.000 C 
BRANCH  16  21
ATOM     17  C   UNL     1      47.713   6.660  19.795  0.00  0.00    +0.000 A 
ATOM     18  C   UNL     1      47.746   8.055  19.839  0.00  0.00    +0.000 A 
ATOM     19  C   UNL     1      48.125   8.781  18.708  0.00  0.00    +0.000 A 
ATOM     20  C   UNL     1      48.473   8.122  17.529  0.00  0.00    +0.000 A 
ATOM     21  C   UNL     1      48.434   6.724  17.463  0.00  0.00    +0.000 A 
ATOM     22  C   UNL     1      48.055   6.002  18.608  0.00  0.00    +0.000 A 
BRANCH  17  24
ATOM     23  C   UNL     1      47.464   6.379  22.142  0.00  0.00    +0.000 C 
ATOM     24  O   UNL     1      47.376   5.834  20.832  0.00  0.00    +0.000 OA
ENDBRANCH  17  24
ENDBRANCH  16  21
ENDBRANCH   1  16
TORSDOF 4
ENDMDL
