MODEL 1
REMARK VINA RESULT:    -7.734      0.000      0.000
REMARK INTER + INTRA:         -12.165
REMARK INTER:                 -10.899
REMARK INTRA:                  -1.266
REMARK UNBOUND:                -1.266
REMARK  Name = 
REMARK  8 active torsions:
REMARK  status: ('A' for Active; 'I' for Inactive)
REMARK    1  A    between atoms: C_1  and  O_2
REMARK    2  A    between atoms: O_2  and  C_3
REMARK    3  A    between atoms: C_7  and  C_8
REMARK    4  A    between atoms: C_8  and  N_9
REMARK    5  A    between atoms: N_9  and  C_10
REMARK    6  A    between atoms: C_13  and  C_14
REMARK    7  A    between atoms: C_14  and  N_15
REMARK    8  A    between atoms: C_16  and  C_18
REMARK                            x       y       z     vdW  Elec       q    Type
REMARK                         _______ _______ _______ _____ _____    ______ ____
ROOT
ATOM      1  C   UNL     1      45.167   6.769  11.202  0.00  0.00    +0.000 A 
ATOM      2  C   UNL     1      46.455   6.267  11.407  0.00  0.00    +0.000 A 
ATOM      3  C   UNL     1      47.331   6.879  12.317  0.00  0.00    +0.000 A 
ATOM      4  C   UNL     1      46.932   8.008  13.042  0.00  0.00    +0.000 A 
ATOM      5  C   UNL     1      45.679   8.566  12.769  0.00  0.00    +0.000 A 
ATOM      6  C   UNL     1      44.816   7.957  11.853  0.00  0.00    +0.000 A 
ENDROOT
BRANCH   1   7
ATOM      7  N   UNL     1      44.215   6.189  10.359  0.00  0.00    +0.000 N 
ATOM      8  H   UNL     1      44.461   6.323   9.380  0.00  0.00    +0.000 HD
BRANCH   7   9
ATOM      9  C   UNL     1      43.750   4.835  10.628  0.00  0.00    +0.000 C 
BRANCH   9  14
ATOM     10  C   UNL     1      45.816   3.433   7.724  0.00  0.00    +0.000 A 
ATOM     11  C   UNL     1      45.776   2.066   7.998  0.00  0.00    +0.000 A 
ATOM     12  C   UNL     1      45.048   1.594   9.093  0.00  0.00    +0.000 A 
ATOM     13  C   UNL     1      44.368   2.486   9.922  0.00  0.00    +0.000 A 
ATOM     14  C   UNL     1      44.403   3.865   9.669  0.00  0.00    +0.000 A 
ATOM     15  C   UNL     1      45.123   4.322   8.555  0.00  0.00    +0.000 A 
BRANCH  10  17
ATOM     16  C   UNL     1      46.913   3.181   5.628  0.00  0.00    +0.000 C 
ATOM     17  O   UNL     1      46.497   4.026   6.695  0.00  0.00    +0.000 OA
ENDBRANCH  10  17
ENDBRANCH   9  14
ENDBRANCH   7   9
ENDBRANCH   1   7
BRANCH   4  18
ATOM     18  C   UNL     1      47.829   8.632  14.078  0.00  0.00    +0.000 C 
BRANCH  18  19
ATOM     19  N   UNL     1      48.058   7.738  15.183  0.00  0.00    +0.000 N 
ATOM     20  C   UNL     1      49.228   7.031  15.291  0.00  0.00    +0.000 C 
ATOM     21  O   UNL     1      50.150   7.171  14.491  0.00  0.00    +0.000 OA
ATOM     22  H   UNL     1      47.244   7.443  15.711  0.00  0.00    +0.000 HD
BRANCH  20  23
ATOM     23  C   UNL     1      49.351   6.144  16.453  0.00  0.00    +0.000 A 
ATOM     24  C   UNL     1      50.349   6.375  17.391  0.00  0.00    +0.000 A 
ATOM     25  S   UNL     1      50.318   5.291  18.707  0.00  0.00    +0.000 S 
ATOM     26  C   UNL     1      49.003   4.439  18.044  0.00  0.00    +0.000 A 
ATOM     27  N   UNL     1      48.483   3.354  18.679  0.00  0.00    +0.000 NA
ATOM     28  C   UNL     1      47.510   2.784  18.049  0.00  0.00    +0.000 A 
ATOM     29  N   UNL     1      47.005   3.205  16.846  0.00  0.00    +0.000 N 
ATOM     30  C   UNL     1      47.478   4.312  16.183  0.00  0.00    +0.000 A 
ATOM     31  O   UNL     1      46.976   4.686  15.128  0.00  0.00    +0.000 OA
ATOM     32  C   UNL     1      48.582   4.984  16.844  0.00  0.00    +0.000 A 
ATOM     33  H   UNL     1      46.238   2.719  16.407  0.00  0.00    +0.000 HD
ENDBRANCH  20  23
ENDBRANCH  18  19
ENDBRANCH   4  18
TORSDOF 7
ENDMDL
MODEL 2
REMARK VINA RESULT:    -7.640      2.346      2.809
REMARK INTER + INTRA:         -12.032
REMARK INTER:                 -10.834
REMARK INTRA:                  -1.198
REMARK UNBOUND:                -1.266
REMARK  Name = 
REMARK  8 active torsions:
REMARK  status: ('A' for Active; 'I' for Inactive)
REMARK    1  A    between atoms: C_1  and  O_2
REMARK    2  A    between atoms: O_2  and  C_3
REMARK    3  A    between atoms: C_7  and  C_8
REMARK    4  A    between atoms: C_8  and  N_9
REMARK    5  A    between atoms: N_9  and  C_10
REMARK    6  A    between atoms: C_13  and  C_14
REMARK    7  A    between atoms: C_14  and  N_15
REMARK    8  A    between atoms: C_16  and  C_18
REMARK                            x       y       z     vdW  Elec       q    Type
REMARK                         _______ _______ _______ _____ _____    ______ ____
ROOT
ATOM      1  C   UNL     1      44.999   4.321  12.795  0.00  0.00    +0.000 A 
ATOM      2  C   UNL     1      44.703   5.681  12.669  0.00  0.00    +0.000 A 
ATOM      3  C   UNL     1      45.653   6.659  12.998  0.00  0.00    +0.000 A 
ATOM      4  C   UNL     1      46.924   6.294  13.458  0.00  0.00    +0.000 A 
ATOM      5  C   UNL     1      47.189   4.937  13.672  0.00  0.00    +0.000 A 
ATOM      6  C   UNL     1      46.232   3.969  13.354  0.00  0.00    +0.000 A 
ENDROOT
BRANCH   1   7
ATOM      7  N   UNL     1      44.132   3.284  12.438  0.00  0.00    +0.000 N 
ATOM      8  H   UNL     1      43.527   3.028  13.215  0.00  0.00    +0.000 HD
BRANCH   7   9
ATOM      9  C   UNL     1      43.406   3.360  11.178  0.00  0.00    +0.000 C 
BRANCH   9  14
ATOM     10  C   UNL     1      45.729   1.939   8.486  0.00  0.00    +0.000 A 
ATOM     11  C   UNL     1      46.018   3.085   7.745  0.00  0.00    +0.000 A 
ATOM     12  C   UNL     1      45.500   4.321   8.138  0.00  0.00    +0.000 A 
ATOM     13  C   UNL     1      44.683   4.414   9.265  0.00  0.00    +0.000 A 
ATOM     14  C   UNL     1      44.374   3.271  10.019  0.00  0.00    +0.000 A 
ATOM     15  C   UNL     1      44.917   2.041   9.621  0.00  0.00    +0.000 A 
BRANCH  10  17
ATOM     16  C   UNL     1      47.229   0.548   7.271  0.00  0.00    +0.000 C 
ATOM     17  O   UNL     1      46.162   0.671   8.204  0.00  0.00    +0.000 OA
ENDBRANCH  10  17
ENDBRANCH   9  14
ENDBRANCH   7   9
ENDBRANCH   1   7
BRANCH   4  18
ATOM     18  C   UNL     1      47.983   7.326  13.741  0.00  0.00    +0.000 C 
BRANCH  18  19
ATOM     19  N   UNL     1      48.035   7.658  15.140  0.00  0.00    +0.000 N 
ATOM     20  C   UNL     1      48.985   7.111  15.963  0.00  0.00    +0.000 C 
ATOM     21  O   UNL     1      49.865   6.366  15.537  0.00  0.00    +0.000 OA
ATOM     22  H   UNL     1      47.203   8.077  15.543  0.00  0.00    +0.000 HD
BRANCH  20  23
ATOM     23  C   UNL     1      48.940   7.515  17.374  0.00  0.00    +0.000 A 
ATOM     24  C   UNL     1      49.627   8.649  17.786  0.00  0.00    +0.000 A 
ATOM     25  S   UNL     1      49.423   9.010  19.440  0.00  0.00    +0.000 S 
ATOM     26  C   UNL     1      48.453   7.633  19.678  0.00  0.00    +0.000 A 
ATOM     27  N   UNL     1      47.953   7.335  20.907  0.00  0.00    +0.000 NA
ATOM     28  C   UNL     1      47.260   6.246  20.950  0.00  0.00    +0.000 A 
ATOM     29  N   UNL     1      47.018   5.431  19.875  0.00  0.00    +0.000 N 
ATOM     30  C   UNL     1      47.477   5.707  18.609  0.00  0.00    +0.000 A 
ATOM     31  O   UNL     1      47.207   4.978  17.661  0.00  0.00    +0.000 OA
ATOM     32  C   UNL     1      48.272   6.917  18.507  0.00  0.00    +0.000 A 
ATOM     33  H   UNL     1      46.463   4.595  19.974  0.00  0.00    +0.000 HD
ENDBRANCH  20  23
ENDBRANCH  18  19
ENDBRANCH   4  18
TORSDOF 7
ENDMDL
MODEL 3
REMARK VINA RESULT:    -7.170      2.168      2.647
REMARK INTER + INTRA:         -11.370
REMARK INTER:                 -10.166
REMARK INTRA:                  -1.204
REMARK UNBOUND:                -1.266
REMARK  Name = 
REMARK  8 active torsions:
REMARK  status: ('A' for Active; 'I' for Inactive)
REMARK    1  A    between atoms: C_1  and  O_2
REMARK    2  A    between atoms: O_2  and  C_3
REMARK    3  A    between atoms: C_7  and  C_8
REMARK    4  A    between atoms: C_8  and  N_9
REMARK    5  A    between atoms: N_9  and  C_10
REMARK    6  A    between atoms: C_13  and  C_14
REMARK    7  A    between atoms: C_14  and  N_15
REMARK    8  A    between atoms: C_16  and  C_18
REMARK                            x       y       z     vdW  Elec       q    Type
REMARK                         _______ _______ _______ _____ _____    ______ ____
ROOT
ATOM      1  C   UNL     1      45.228   5.078  11.421  0.00  0.00    +0.000 A 
ATOM      2  C   UNL     1      45.570   4.538  12.664  0.00  0.00    +0.000 A 
ATOM      3  C   UNL     1      46.568   5.127  13.456  0.00  0.00    +0.000 A 
ATOM      4  C   UNL     1      47.244   6.271  13.017  0.00  0.00    +0.000 A 
ATOM      5  C   UNL     1      46.968   6.757  11.735  0.00  0.00    +0.000 A 
ATOM      6  C   UNL     1      45.981   6.158  10.947  0.00  0.00    +0.000 A 
ENDROOT
BRANCH   1   7
ATOM      7  N   UNL     1      44.211   4.589  10.597  0.00  0.00    +0.000 N 
ATOM      8  H   UNL     1      43.297   4.900  10.917  0.00  0.00    +0.000 HD
BRANCH   7   9
ATOM      9  C   UNL     1      44.350   4.689   9.151  0.00  0.00    +0.000 C 
BRANCH   9  14
ATOM     10  C   UNL     1      46.837   2.463   7.274  0.00  0.00    +0.000 A 
ATOM     11  C   UNL     1      46.502   1.204   7.769  0.00  0.00    +0.000 A 
ATOM     12  C   UNL     1      45.446   1.067   8.674  0.00  0.00    +0.000 A 
ATOM     13  C   UNL     1      44.732   2.189   9.095  0.00  0.00    +0.000 A 
ATOM     14  C   UNL     1      45.060   3.466   8.615  0.00  0.00    +0.000 A 
ATOM     15  C   UNL     1      46.110   3.584   7.692  0.00  0.00    +0.000 A 
BRANCH  10  17
ATOM     16  C   UNL     1      47.598   2.475   5.019  0.00  0.00    +0.000 C 
ATOM     17  O   UNL     1      47.851   2.736   6.395  0.00  0.00    +0.000 OA
ENDBRANCH  10  17
ENDBRANCH   9  14
ENDBRANCH   7   9
ENDBRANCH   1   7
BRANCH   4  18
ATOM     18  C   UNL     1      48.263   6.962  13.885  0.00  0.00    +0.000 C 
BRANCH  18  19
ATOM     19  N   UNL     1      48.088   6.623  15.273  0.00  0.00    +0.000 N 
ATOM     20  C   UNL     1      49.164   6.346  16.076  0.00  0.00    +0.000 C 
ATOM     21  O   UNL     1      50.320   6.432  15.668  0.00  0.00    +0.000 OA
ATOM     22  H   UNL     1      47.159   6.331  15.561  0.00  0.00    +0.000 HD
BRANCH  20  23
ATOM     23  C   UNL     1      48.868   6.006  17.473  0.00  0.00    +0.000 A 
ATOM     24  C   UNL     1      49.101   4.715  17.929  0.00  0.00    +0.000 A 
ATOM     25  S   UNL     1      48.761   4.503  19.587  0.00  0.00    +0.000 S 
ATOM     26  C   UNL     1      48.239   6.115  19.742  0.00  0.00    +0.000 A 
ATOM     27  N   UNL     1      47.785   6.589  20.934  0.00  0.00    +0.000 NA
ATOM     28  C   UNL     1      47.392   7.819  20.901  0.00  0.00    +0.000 A 
ATOM     29  N   UNL     1      47.417   8.619  19.788  0.00  0.00    +0.000 N 
ATOM     30  C   UNL     1      47.893   8.192  18.572  0.00  0.00    +0.000 A 
ATOM     31  O   UNL     1      47.940   8.946  17.606  0.00  0.00    +0.000 OA
ATOM     32  C   UNL     1      48.339   6.810  18.550  0.00  0.00    +0.000 A 
ATOM     33  H   UNL     1      47.100   9.575  19.830  0.00  0.00    +0.000 HD
ENDBRANCH  20  23
ENDBRANCH  18  19
ENDBRANCH   4  18
TORSDOF 7
ENDMDL
MODEL 4
REMARK VINA RESULT:    -6.983      3.444      7.550
REMARK INTER + INTRA:         -11.106
REMARK INTER:                  -9.440
REMARK INTRA:                  -1.666
REMARK UNBOUND:                -1.266
REMARK  Name = 
REMARK  8 active torsions:
REMARK  status: ('A' for Active; 'I' for Inactive)
REMARK    1  A    between atoms: C_1  and  O_2
REMARK    2  A    between atoms: O_2  and  C_3
REMARK    3  A    between atoms: C_7  and  C_8
REMARK    4  A    between atoms: C_8  and  N_9
REMARK    5  A    between atoms: N_9  and  C_10
REMARK    6  A    between atoms: C_13  and  C_14
REMARK    7  A    between atoms: C_14  and  N_15
REMARK    8  A    between atoms: C_16  and  C_18
REMARK                            x       y       z     vdW  Elec       q    Type
REMARK                         _______ _______ _______ _____ _____    ______ ____
ROOT
ATOM      1  C   UNL     1      49.844   7.288  17.432  0.00  0.00    +0.000 A 
ATOM      2  C   UNL     1      48.856   8.265  17.580  0.00  0.00    +0.000 A 
ATOM      3  C   UNL     1      48.270   8.874  16.460  0.00  0.00    +0.000 A 
ATOM      4  C   UNL     1      48.663   8.515  15.165  0.00  0.00    +0.000 A 
ATOM      5  C   UNL     1      49.715   7.606  15.017  0.00  0.00    +0.000 A 
ATOM      6  C   UNL     1      50.302   7.012  16.139  0.00  0.00    +0.000 A 
ENDROOT
BRANCH   1   7
ATOM      7  N   UNL     1      50.438   6.594  18.489  0.00  0.00    +0.000 N 
ATOM      8  H   UNL     1      50.935   7.227  19.112  0.00  0.00    +0.000 HD
BRANCH   7   9
ATOM      9  C   UNL     1      49.661   5.602  19.220  0.00  0.00    +0.000 C 
BRANCH   9  14
ATOM     10  C   UNL     1      49.382   2.547  16.928  0.00  0.00    +0.000 A 
ATOM     11  C   UNL     1      48.019   2.553  16.634  0.00  0.00    +0.000 A 
ATOM     12  C   UNL     1      47.199   3.565  17.138  0.00  0.00    +0.000 A 
ATOM     13  C   UNL     1      47.736   4.567  17.946  0.00  0.00    +0.000 A 
ATOM     14  C   UNL     1      49.103   4.574  18.261  0.00  0.00    +0.000 A 
ATOM     15  C   UNL     1      49.917   3.561  17.732  0.00  0.00    +0.000 A 
BRANCH  10  17
ATOM     16  C   UNL     1      51.444   1.427  17.321  0.00  0.00    +0.000 C 
ATOM     17  O   UNL     1      50.290   1.612  16.509  0.00  0.00    +0.000 OA
ENDBRANCH  10  17
ENDBRANCH   9  14
ENDBRANCH   7   9
ENDBRANCH   1   7
BRANCH   4  18
ATOM     18  C   UNL     1      47.991   9.100  13.951  0.00  0.00    +0.000 C 
BRANCH  18  19
ATOM     19  N   UNL     1      46.857   8.313  13.546  0.00  0.00    +0.000 N 
ATOM     20  C   UNL     1      46.941   7.439  12.493  0.00  0.00    +0.000 C 
ATOM     21  O   UNL     1      47.994   7.246  11.889  0.00  0.00    +0.000 OA
ATOM     22  H   UNL     1      45.946   8.618  13.873  0.00  0.00    +0.000 HD
BRANCH  20  23
ATOM     23  C   UNL     1      45.721   6.693  12.162  0.00  0.00    +0.000 A 
ATOM     24  C   UNL     1      44.651   7.352  11.571  0.00  0.00    +0.000 A 
ATOM     25  S   UNL     1      43.338   6.331  11.198  0.00  0.00    +0.000 S 
ATOM     26  C   UNL     1      44.129   4.980  11.864  0.00  0.00    +0.000 A 
ATOM     27  N   UNL     1      43.529   3.760  11.884  0.00  0.00    +0.000 NA
ATOM     28  C   UNL     1      44.229   2.831  12.447  0.00  0.00    +0.000 A 
ATOM     29  N   UNL     1      45.477   3.011  12.984  0.00  0.00    +0.000 N 
ATOM     30  C   UNL     1      46.134   4.217  12.960  0.00  0.00    +0.000 A 
ATOM     31  O   UNL     1      47.268   4.334  13.413  0.00  0.00    +0.000 OA
ATOM     32  C   UNL     1      45.386   5.300  12.347  0.00  0.00    +0.000 A 
ATOM     33  H   UNL     1      45.975   2.242  13.405  0.00  0.00    +0.000 HD
ENDBRANCH  20  23
ENDBRANCH  18  19
ENDBRANCH   4  18
TORSDOF 7
ENDMDL
MODEL 5
REMARK VINA RESULT:    -6.733      3.821      9.605
REMARK INTER + INTRA:         -10.754
REMARK INTER:                  -9.762
REMARK INTRA:                  -0.992
REMARK UNBOUND:                -1.266
REMARK  Name = 
REMARK  8 active torsions:
REMARK  status: ('A' for Active; 'I' for Inactive)
REMARK    1  A    between atoms: C_1  and  O_2
REMARK    2  A    between atoms: O_2  and  C_3
REMARK    3  A    between atoms: C_7  and  C_8
REMARK    4  A    between atoms: C_8  and  N_9
REMARK    5  A    between atoms: N_9  and  C_10
REMARK    6  A    between atoms: C_13  and  C_14
REMARK    7  A    between atoms: C_14  and  N_15
REMARK    8  A    between atoms: C_16  and  C_18
REMARK                            x       y       z     vdW  Elec       q    Type
REMARK                         _______ _______ _______ _____ _____    ______ ____
ROOT
ATOM      1  C   UNL     1      48.188   5.435  20.331  0.00  0.00    +0.000 A 
ATOM      2  C   UNL     1      48.992   4.370  19.914  0.00  0.00    +0.000 A 
ATOM      3  C   UNL     1      48.803   3.771  18.659  0.00  0.00    +0.000 A 
ATOM      4  C   UNL     1      47.803   4.230  17.793  0.00  0.00    +0.000 A 
ATOM      5  C   UNL     1      46.940   5.233  18.246  0.00  0.00    +0.000 A 
ATOM      6  C   UNL     1      47.127   5.816  19.502  0.00  0.00    +0.000 A 
ENDROOT
BRANCH   1   7
ATOM      7  N   UNL     1      48.345   6.121  21.537  0.00  0.00    +0.000 N 
ATOM      8  H   UNL     1      48.647   5.495  22.280  0.00  0.00    +0.000 HD
BRANCH   7   9
ATOM      9  C   UNL     1      49.071   7.383  21.554  0.00  0.00    +0.000 C 
BRANCH   9  14
ATOM     10  C   UNL     1      47.298  10.144  19.580  0.00  0.00    +0.000 A 
ATOM     11  C   UNL     1      46.281  10.500  20.465  0.00  0.00    +0.000 A 
ATOM     12  C   UNL     1      46.193   9.882  21.714  0.00  0.00    +0.000 A 
ATOM     13  C   UNL     1      47.114   8.899  22.078  0.00  0.00    +0.000 A 
ATOM     14  C   UNL     1      48.139   8.520  21.197  0.00  0.00    +0.000 A 
ATOM     15  C   UNL     1      48.224   9.164  19.954  0.00  0.00    +0.000 A 
BRANCH  10  17
ATOM     16  C   UNL     1      48.610  10.179  17.596  0.00  0.00    +0.000 C 
ATOM     17  O   UNL     1      47.488  10.661  18.327  0.00  0.00    +0.000 OA
ENDBRANCH  10  17
ENDBRANCH   9  14
ENDBRANCH   7   9
ENDBRANCH   1   7
BRANCH   4  18
ATOM     18  C   UNL     1      47.636   3.654  16.412  0.00  0.00    +0.000 C 
BRANCH  18  19
ATOM     19  N   UNL     1      46.965   4.576  15.534  0.00  0.00    +0.000 N 
ATOM     20  C   UNL     1      46.788   4.288  14.206  0.00  0.00    +0.000 C 
ATOM     21  O   UNL     1      47.136   3.214  13.720  0.00  0.00    +0.000 OA
ATOM     22  H   UNL     1      46.879   5.535  15.856  0.00  0.00    +0.000 HD
BRANCH  20  23
ATOM     23  C   UNL     1      46.096   5.303  13.402  0.00  0.00    +0.000 A 
ATOM     24  C   UNL     1      46.716   6.522  13.155  0.00  0.00    +0.000 A 
ATOM     25  S   UNL     1      45.805   7.563  12.158  0.00  0.00    +0.000 S 
ATOM     26  C   UNL     1      44.525   6.445  12.066  0.00  0.00    +0.000 A 
ATOM     27  N   UNL     1      43.397   6.733  11.363  0.00  0.00    +0.000 NA
ATOM     28  C   UNL     1      42.495   5.809  11.404  0.00  0.00    +0.000 A 
ATOM     29  N   UNL     1      42.622   4.622  12.077  0.00  0.00    +0.000 N 
ATOM     30  C   UNL     1      43.754   4.276  12.775  0.00  0.00    +0.000 A 
ATOM     31  O   UNL     1      43.851   3.188  13.332  0.00  0.00    +0.000 OA
ATOM     32  C   UNL     1      44.797   5.286  12.771  0.00  0.00    +0.000 A 
ATOM     33  H   UNL     1      41.881   3.938  12.064  0.00  0.00    +0.000 HD
ENDBRANCH  20  23
ENDBRANCH  18  19
ENDBRANCH   4  18
TORSDOF 7
ENDMDL
MODEL 6
REMARK VINA RESULT:    -6.685      4.758      7.463
REMARK INTER + INTRA:         -10.687
REMARK INTER:                  -9.529
REMARK INTRA:                  -1.157
REMARK UNBOUND:                -1.266
REMARK  Name = 
REMARK  8 active torsions:
REMARK  status: ('A' for Active; 'I' for Inactive)
REMARK    1  A    between atoms: C_1  and  O_2
REMARK    2  A    between atoms: O_2  and  C_3
REMARK    3  A    between atoms: C_7  and  C_8
REMARK    4  A    between atoms: C_8  and  N_9
REMARK    5  A    between atoms: N_9  and  C_10
REMARK    6  A    between atoms: C_13  and  C_14
REMARK    7  A    between atoms: C_14  and  N_15
REMARK    8  A    between atoms: C_16  and  C_18
REMARK                            x       y       z     vdW  Elec       q    Type
REMARK                         _______ _______ _______ _____ _____    ______ ____
ROOT
ATOM      1  C   UNL     1      50.315   9.089  11.488  0.00  0.00    +0.000 A 
ATOM      2  C   UNL     1      49.332  10.082  11.496  0.00  0.00    +0.000 A 
ATOM      3  C   UNL     1      48.041   9.815  11.975  0.00  0.00    +0.000 A 
ATOM      4  C   UNL     1      47.708   8.544  12.459  0.00  0.00    +0.000 A 
ATOM      5  C   UNL     1      48.663   7.526  12.365  0.00  0.00    +0.000 A 
ATOM      6  C   UNL     1      49.943   7.797  11.875  0.00  0.00    +0.000 A 
ENDROOT
BRANCH   1   7
ATOM      7  N   UNL     1      51.638   9.286  11.080  0.00  0.00    +0.000 N 
ATOM      8  H   UNL     1      52.126   9.918  11.710  0.00  0.00    +0.000 HD
BRANCH   7   9
ATOM      9  C   UNL     1      52.453   8.136  10.716  0.00  0.00    +0.000 C 
BRANCH   9  14
ATOM     10  C   UNL     1      52.708   6.887   7.105  0.00  0.00    +0.000 A 
ATOM     11  C   UNL     1      52.872   8.087   6.414  0.00  0.00    +0.000 A 
ATOM     12  C   UNL     1      52.943   9.293   7.114  0.00  0.00    +0.000 A 
ATOM     13  C   UNL     1      52.841   9.304   8.505  0.00  0.00    +0.000 A 
ATOM     14  C   UNL     1      52.667   8.108   9.218  0.00  0.00    +0.000 A 
ATOM     15  C   UNL     1      52.615   6.904   8.501  0.00  0.00    +0.000 A 
BRANCH  10  17
ATOM     16  C   UNL     1      53.423   4.617   7.104  0.00  0.00    +0.000 C 
ATOM     17  O   UNL     1      52.612   5.643   6.541  0.00  0.00    +0.000 OA
ENDBRANCH  10  17
ENDBRANCH   9  14
ENDBRANCH   7   9
ENDBRANCH   1   7
BRANCH   4  18
ATOM     18  C   UNL     1      46.353   8.259  13.049  0.00  0.00    +0.000 C 
BRANCH  18  19
ATOM     19  N   UNL     1      45.925   6.915  12.762  0.00  0.00    +0.000 N 
ATOM     20  C   UNL     1      44.974   6.663  11.809  0.00  0.00    +0.000 C 
ATOM     21  O   UNL     1      44.489   7.557  11.119  0.00  0.00    +0.000 OA
ATOM     22  H   UNL     1      46.138   6.208  13.458  0.00  0.00    +0.000 HD
BRANCH  20  23
ATOM     23  C   UNL     1      44.609   5.256  11.604  0.00  0.00    +0.000 A 
ATOM     24  C   UNL     1      43.925   4.572  12.601  0.00  0.00    +0.000 A 
ATOM     25  S   UNL     1      43.526   2.968  12.181  0.00  0.00    +0.000 S 
ATOM     26  C   UNL     1      44.301   3.111  10.673  0.00  0.00    +0.000 A 
ATOM     27  N   UNL     1      44.345   2.063   9.808  0.00  0.00    +0.000 NA
ATOM     28  C   UNL     1      44.992   2.301   8.716  0.00  0.00    +0.000 A 
ATOM     29  N   UNL     1      45.591   3.494   8.407  0.00  0.00    +0.000 N 
ATOM     30  C   UNL     1      45.547   4.589   9.236  0.00  0.00    +0.000 A 
ATOM     31  O   UNL     1      46.060   5.654   8.910  0.00  0.00    +0.000 OA
ATOM     32  C   UNL     1      44.841   4.372  10.485  0.00  0.00    +0.000 A 
ATOM     33  H   UNL     1      46.077   3.618   7.532  0.00  0.00    +0.000 HD
ENDBRANCH  20  23
ENDBRANCH  18  19
ENDBRANCH   4  18
TORSDOF 7
ENDMDL
MODEL 7
REMARK VINA RESULT:    -6.546      3.759      5.766
REMARK INTER + INTRA:         -10.490
REMARK INTER:                  -9.671
REMARK INTRA:                  -0.819
REMARK UNBOUND:                -1.266
REMARK  Name = 
REMARK  8 active torsions:
REMARK  status: ('A' for Active; 'I' for Inactive)
REMARK    1  A    between atoms: C_1  and  O_2
REMARK    2  A    between atoms: O_2  and  C_3
REMARK    3  A    between atoms: C_7  and  C_8
REMARK    4  A    between atoms: C_8  and  N_9
REMARK    5  A    between atoms: N_9  and  C_10
REMARK    6  A    between atoms: C_13  and  C_14
REMARK    7  A    between atoms: C_14  and  N_15
REMARK    8  A    between atoms: C_16  and  C_18
REMARK                            x       y       z     vdW  Elec       q    Type
REMARK                         _______ _______ _______ _____ _____    ______ ____
ROOT
ATOM      1  C   UNL     1      44.742   6.937  12.067  0.00  0.00    +0.000 A 
ATOM      2  C   UNL     1      46.031   7.216  12.528  0.00  0.00    +0.000 A 
ATOM      3  C   UNL     1      46.727   6.295  13.326  0.00  0.00    +0.000 A 
ATOM      4  C   UNL     1      46.143   5.071  13.678  0.00  0.00    +0.000 A 
ATOM      5  C   UNL     1      44.820   4.831  13.294  0.00  0.00    +0.000 A 
ATOM      6  C   UNL     1      44.130   5.759  12.509  0.00  0.00    +0.000 A 
ENDROOT
BRANCH   1   7
ATOM      7  N   UNL     1      44.004   7.772  11.225  0.00  0.00    +0.000 N 
ATOM      8  H   UNL     1      43.004   7.632  11.352  0.00  0.00    +0.000 HD
BRANCH   7   9
ATOM      9  C   UNL     1      44.352   9.183  11.131  0.00  0.00    +0.000 C 
BRANCH   9  14
ATOM     10  C   UNL     1      40.846  10.573  10.463  0.00  0.00    +0.000 A 
ATOM     11  C   UNL     1      41.117  11.537   9.493  0.00  0.00    +0.000 A 
ATOM     12  C   UNL     1      42.421  11.709   9.024  0.00  0.00    +0.000 A 
ATOM     13  C   UNL     1      43.459  10.927   9.530  0.00  0.00    +0.000 A 
ATOM     14  C   UNL     1      43.209   9.957  10.513  0.00  0.00    +0.000 A 
ATOM     15  C   UNL     1      41.891   9.784  10.961  0.00  0.00    +0.000 A 
BRANCH  10  17
ATOM     16  C   UNL     1      38.602  11.284  10.810  0.00  0.00    +0.000 C 
ATOM     17  O   UNL     1      39.621  10.311  11.015  0.00  0.00    +0.000 OA
ENDBRANCH  10  17
ENDBRANCH   9  14
ENDBRANCH   7   9
ENDBRANCH   1   7
BRANCH   4  18
ATOM     18  C   UNL     1      46.902   4.038  14.467  0.00  0.00    +0.000 C 
BRANCH  18  19
ATOM     19  N   UNL     1      47.496   4.608  15.647  0.00  0.00    +0.000 N 
ATOM     20  C   UNL     1      47.195   4.127  16.895  0.00  0.00    +0.000 C 
ATOM     21  O   UNL     1      46.458   3.157  17.059  0.00  0.00    +0.000 OA
ATOM     22  H   UNL     1      47.915   5.528  15.552  0.00  0.00    +0.000 HD
BRANCH  20  23
ATOM     23  C   UNL     1      47.854   4.788  18.028  0.00  0.00    +0.000 A 
ATOM     24  C   UNL     1      47.142   5.696  18.801  0.00  0.00    +0.000 A 
ATOM     25  S   UNL     1      48.033   6.328  20.110  0.00  0.00    +0.000 S 
ATOM     26  C   UNL     1      49.421   5.452  19.660  0.00  0.00    +0.000 A 
ATOM     27  N   UNL     1      50.575   5.560  20.370  0.00  0.00    +0.000 NA
ATOM     28  C   UNL     1      51.557   4.865  19.899  0.00  0.00    +0.000 A 
ATOM     29  N   UNL     1      51.487   4.068  18.786  0.00  0.00    +0.000 N 
ATOM     30  C   UNL     1      50.335   3.905  18.055  0.00  0.00    +0.000 A 
ATOM     31  O   UNL     1      50.295   3.152  17.088  0.00  0.00    +0.000 OA
ATOM     32  C   UNL     1      49.202   4.675  18.536  0.00  0.00    +0.000 A 
ATOM     33  H   UNL     1      52.290   3.545  18.473  0.00  0.00    +0.000 HD
ENDBRANCH  20  23
ENDBRANCH  18  19
ENDBRANCH   4  18
TORSDOF 7
ENDMDL
MODEL 8
REMARK VINA RESULT:    -6.432      2.587      3.470
REMARK INTER + INTRA:         -10.330
REMARK INTER:                  -9.173
REMARK INTRA:                  -1.157
REMARK UNBOUND:                -1.266
REMARK  Name = 
REMARK  8 active torsions:
REMARK  status: ('A' for Active; 'I' for Inactive)
REMARK    1  A    between atoms: C_1  and  O_2
REMARK    2  A    between atoms: O_2  and  C_3
REMARK    3  A    between atoms: C_7  and  C_8
REMARK    4  A    between atoms: C_8  and  N_9
REMARK    5  A    between atoms: N_9  and  C_10
REMARK    6  A    between atoms: C_13  and  C_14
REMARK    7  A    between atoms: C_14  and  N_15
REMARK    8  A    between atoms: C_16  and  C_18
REMARK                            x       y       z     vdW  Elec       q    Type
REMARK                         _______ _______ _______ _____ _____    ______ ____
ROOT
ATOM      1  C   UNL     1      45.433   7.518  11.650  0.00  0.00    +0.000 A 
ATOM      2  C   UNL     1      46.458   6.607  11.380  0.00  0.00    +0.000 A 
ATOM      3  C   UNL     1      47.580   6.514  12.218  0.00  0.00    +0.000 A 
ATOM      4  C   UNL     1      47.697   7.334  13.347  0.00  0.00    +0.000 A 
ATOM      5  C   UNL     1      46.718   8.309  13.566  0.00  0.00    +0.000 A 
ATOM      6  C   UNL     1      45.609   8.403  12.719  0.00  0.00    +0.000 A 
ENDROOT
BRANCH   1   7
ATOM      7  N   UNL     1      44.260   7.636  10.900  0.00  0.00    +0.000 N 
ATOM      8  H   UNL     1      44.433   7.449   9.915  0.00  0.00    +0.000 HD
BRANCH   7   9
ATOM      9  C   UNL     1      43.040   6.997  11.374  0.00  0.00    +0.000 C 
BRANCH   9  14
ATOM     10  C   UNL     1      43.893   3.381  10.446  0.00  0.00    +0.000 A 
ATOM     11  C   UNL     1      43.812   2.755  11.689  0.00  0.00    +0.000 A 
ATOM     12  C   UNL     1      43.439   3.489  12.818  0.00  0.00    +0.000 A 
ATOM     13  C   UNL     1      43.159   4.851  12.710  0.00  0.00    +0.000 A 
ATOM     14  C   UNL     1      43.245   5.501  11.469  0.00  0.00    +0.000 A 
ATOM     15  C   UNL     1      43.601   4.746  10.341  0.00  0.00    +0.000 A 
BRANCH  10  17
ATOM     16  C   UNL     1      44.879   3.610   8.292  0.00  0.00    +0.000 C 
ATOM     17  O   UNL     1      44.255   2.783   9.269  0.00  0.00    +0.000 OA
ENDBRANCH  10  17
ENDBRANCH   9  14
ENDBRANCH   7   9
ENDBRANCH   1   7
BRANCH   4  18
ATOM     18  C   UNL     1      48.853   7.196  14.301  0.00  0.00    +0.000 C 
BRANCH  18  19
ATOM     19  N   UNL     1      48.411   7.213  15.671  0.00  0.00    +0.000 N 
ATOM     20  C   UNL     1      49.045   6.467  16.629  0.00  0.00    +0.000 C 
ATOM     21  O   UNL     1      50.047   5.800  16.379  0.00  0.00    +0.000 OA
ATOM     22  H   UNL     1      47.476   7.565  15.846  0.00  0.00    +0.000 HD
BRANCH  20  23
ATOM     23  C   UNL     1      48.505   6.555  17.992  0.00  0.00    +0.000 A 
ATOM     24  C   UNL     1      48.397   5.406  18.764  0.00  0.00    +0.000 A 
ATOM     25  S   UNL     1      47.808   5.691  20.338  0.00  0.00    +0.000 S 
ATOM     26  C   UNL     1      47.624   7.354  20.028  0.00  0.00    +0.000 A 
ATOM     27  N   UNL     1      47.131   8.192  20.979  0.00  0.00    +0.000 NA
ATOM     28  C   UNL     1      47.015   9.420  20.598  0.00  0.00    +0.000 A 
ATOM     29  N   UNL     1      47.354   9.888  19.355  0.00  0.00    +0.000 N 
ATOM     30  C   UNL     1      47.883   9.086  18.373  0.00  0.00    +0.000 A 
ATOM     31  O   UNL     1      48.213   9.545  17.285  0.00  0.00    +0.000 OA
ATOM     32  C   UNL     1      48.024   7.690  18.746  0.00  0.00    +0.000 A 
ATOM     33  H   UNL     1      47.245  10.863  19.121  0.00  0.00    +0.000 HD
ENDBRANCH  20  23
ENDBRANCH  18  19
ENDBRANCH   4  18
TORSDOF 7
ENDMDL
MODEL 9
REMARK VINA RESULT:    -6.423      1.796      2.470
REMARK INTER + INTRA:         -10.317
REMARK INTER:                  -9.210
REMARK INTRA:                  -1.107
REMARK UNBOUND:                -1.266
REMARK  Name = 
REMARK  8 active torsions:
REMARK  status: ('A' for Active; 'I' for Inactive)
REMARK    1  A    between atoms: C_1  and  O_2
REMARK    2  A    between atoms: O_2  and  C_3
REMARK    3  A    between atoms: C_7  and  C_8
REMARK    4  A    between atoms: C_8  and  N_9
REMARK    5  A    between atoms: N_9  and  C_10
REMARK    6  A    between atoms: C_13  and  C_14
REMARK    7  A    between atoms: C_14  and  N_15
REMARK    8  A    between atoms: C_16  and  C_18
REMARK                            x       y       z     vdW  Elec       q    Type
REMARK                         _______ _______ _______ _____ _____    ______ ____
ROOT
ATOM      1  C   UNL     1      45.668   7.112  11.555  0.00  0.00    +0.000 A 
ATOM      2  C   UNL     1      46.964   6.593  11.493  0.00  0.00    +0.000 A 
ATOM      3  C   UNL     1      47.969   7.057  12.356  0.00  0.00    +0.000 A 
ATOM      4  C   UNL     1      47.694   8.051  13.302  0.00  0.00    +0.000 A 
ATOM      5  C   UNL     1      46.423   8.636  13.302  0.00  0.00    +0.000 A 
ATOM      6  C   UNL     1      45.431   8.177  12.431  0.00  0.00    +0.000 A 
ENDROOT
BRANCH   1   7
ATOM      7  N   UNL     1      44.599   6.669  10.772  0.00  0.00    +0.000 N 
ATOM      8  H   UNL     1      44.823   6.719   9.781  0.00  0.00    +0.000 HD
BRANCH   7   9
ATOM      9  C   UNL     1      43.924   5.425  11.120  0.00  0.00    +0.000 C 
BRANCH   9  14
ATOM     10  C   UNL     1      45.616   3.578   8.223  0.00  0.00    +0.000 A 
ATOM     11  C   UNL     1      45.283   2.256   8.514  0.00  0.00    +0.000 A 
ATOM     12  C   UNL     1      44.478   1.963   9.617  0.00  0.00    +0.000 A 
ATOM     13  C   UNL     1      44.014   2.990  10.439  0.00  0.00    +0.000 A 
ATOM     14  C   UNL     1      44.345   4.327  10.169  0.00  0.00    +0.000 A 
ATOM     15  C   UNL     1      45.138   4.605   9.046  0.00  0.00    +0.000 A 
BRANCH  10  17
ATOM     16  C   UNL     1      47.421   3.107   6.747  0.00  0.00    +0.000 C 
ATOM     17  O   UNL     1      46.402   3.998   7.184  0.00  0.00    +0.000 OA
ENDBRANCH  10  17
ENDBRANCH   9  14
ENDBRANCH   7   9
ENDBRANCH   1   7
BRANCH   4  18
ATOM     18  C   UNL     1      48.737   8.506  14.288  0.00  0.00    +0.000 C 
BRANCH  18  19
ATOM     19  N   UNL     1      49.168   7.425  15.134  0.00  0.00    +0.000 N 
ATOM     20  C   UNL     1      48.937   7.446  16.485  0.00  0.00    +0.000 C 
ATOM     21  O   UNL     1      48.305   8.352  17.023  0.00  0.00    +0.000 OA
ATOM     22  H   UNL     1      49.872   6.799  14.755  0.00  0.00    +0.000 HD
BRANCH  20  23
ATOM     23  C   UNL     1      49.427   6.294  17.252  0.00  0.00    +0.000 A 
ATOM     24  C   UNL     1      48.547   5.576  18.050  0.00  0.00    +0.000 A 
ATOM     25  S   UNL     1      49.262   4.236  18.825  0.00  0.00    +0.000 S 
ATOM     26  C   UNL     1      50.787   4.599  18.165  0.00  0.00    +0.000 A 
ATOM     27  N   UNL     1      51.873   3.833  18.455  0.00  0.00    +0.000 NA
ATOM     28  C   UNL     1      52.972   4.241  17.913  0.00  0.00    +0.000 A 
ATOM     29  N   UNL     1      53.082   5.341  17.101  0.00  0.00    +0.000 N 
ATOM     30  C   UNL     1      52.008   6.126  16.757  0.00  0.00    +0.000 A 
ATOM     31  O   UNL     1      52.134   7.079  15.996  0.00  0.00    +0.000 OA
ATOM     32  C   UNL     1      50.748   5.717  17.350  0.00  0.00    +0.000 A 
ATOM     33  H   UNL     1      53.971   5.603  16.703  0.00  0.00    +0.000 HD
ENDBRANCH  20  23
ENDBRANCH  18  19
ENDBRANCH   4  18
TORSDOF 7
ENDMDL
