MODEL 1
REMARK VINA RESULT:    -8.344      0.000      0.000
REMARK INTER + INTRA:         -12.652
REMARK INTER:                 -11.758
REMARK INTRA:                  -0.894
REMARK UNBOUND:                -0.894
REMARK  Name = 
REMARK  10 active torsions:
REMARK  status: ('A' for Active; 'I' for Inactive)
REMARK    1  A    between atoms: C_1  and  C_2
REMARK    2  A    between atoms: C_5  and  C_6
REMARK    3  A    between atoms: N_8  and  C_9
REMARK    4  A    between atoms: C_9  and  C_10
REMARK    5  A    between atoms: C_13  and  C_14
REMARK    6  A    between atoms: C_14  and  N_15
REMARK    7  A    between atoms: N_15  and  C_16
REMARK    8  A    between atoms: C_16  and  C_17
REMARK    9  A    between atoms: C_16  and  C_18
REMARK   10  A    between atoms: C_30  and  C_31
REMARK                            x       y       z     vdW  Elec       q    Type
REMARK                         _______ _______ _______ _____ _____    ______ ____
ROOT
ATOM      1  C   UNL     1      48.141   6.166  14.505  0.00  0.00    +0.000 C 
ENDROOT
BRANCH   1   2
ATOM      2  C   UNL     1      47.053   5.463  13.733  0.00  0.00    +0.000 A 
ATOM      3  C   UNL     1      46.978   4.063  13.721  0.00  0.00    +0.000 A 
ATOM      4  C   UNL     1      45.980   3.409  12.989  0.00  0.00    +0.000 A 
ATOM      5  C   UNL     1      45.037   4.137  12.250  0.00  0.00    +0.000 A 
ATOM      6  C   UNL     1      45.123   5.536  12.252  0.00  0.00    +0.000 A 
ATOM      7  C   UNL     1      46.122   6.191  12.982  0.00  0.00    +0.000 A 
BRANCH   5   8
ATOM      8  C   UNL     1      43.981   3.431  11.423  0.00  0.00    +0.000 C 
BRANCH   8   9
ATOM      9  N   UNL     1      44.570   2.452  10.510  0.00  0.00    +0.000 NA
ATOM     10  H   UNL     1      44.085   1.563  10.650  0.00  0.00    +0.000 HD
BRANCH   9  11
ATOM     11  C   UNL     1      44.402   2.814   9.084  0.00  0.00    +0.000 C 
ATOM     12  C   UNL     1      44.176   4.315   8.864  0.00  0.00    +0.000 C 
BRANCH  11  13
ATOM     13  C   UNL     1      45.611   2.359   8.263  0.00  0.00    +0.000 A 
ATOM     14  C   UNL     1      46.322   3.267   7.475  0.00  0.00    +0.000 A 
ATOM     15  C   UNL     1      47.413   2.819   6.736  0.00  0.00    +0.000 A 
ATOM     16  C   UNL     1      47.772   1.480   6.801  0.00  0.00    +0.000 A 
ATOM     17  C   UNL     1      47.021   0.642   7.607  0.00  0.00    +0.000 A 
ATOM     18  N   UNL     1      45.955   1.046   8.335  0.00  0.00    +0.000 NA
ENDBRANCH  11  13
ENDBRANCH   9  11
ENDBRANCH   8   9
ENDBRANCH   5   8
ENDBRANCH   1   2
BRANCH   1  21
ATOM     19  C   UNL     1      48.868   5.693  16.806  0.00  0.00    +0.000 C 
ATOM     20  O   UNL     1      49.988   5.349  16.444  0.00  0.00    +0.000 OA
ATOM     21  N   UNL     1      47.893   6.101  15.926  0.00  0.00    +0.000 N 
ATOM     22  H   UNL     1      47.094   6.599  16.292  0.00  0.00    +0.000 HD
BRANCH  19  27
ATOM     23  C   UNL     1      47.000  10.461  19.639  0.00  0.00    +0.000 C 
ATOM     24  C   UNL     1      47.287   9.002  19.857  0.00  0.00    +0.000 A 
ATOM     25  C   UNL     1      47.743   8.221  18.784  0.00  0.00    +0.000 A 
ATOM     26  C   UNL     1      48.019   6.860  19.004  0.00  0.00    +0.000 A 
ATOM     27  C   UNL     1      48.481   5.750  18.216  0.00  0.00    +0.000 A 
ATOM     28  C   UNL     1      48.472   4.647  19.061  0.00  0.00    +0.000 A 
ATOM     29  N   UNL     1      48.065   5.048  20.309  0.00  0.00    +0.000 N 
ATOM     30  C   UNL     1      47.786   6.386  20.290  0.00  0.00    +0.000 A 
ATOM     31  N   UNL     1      47.349   7.077  21.356  0.00  0.00    +0.000 NA
ATOM     32  C   UNL     1      47.107   8.388  21.107  0.00  0.00    +0.000 A 
ATOM     33  C   UNL     1      46.608   9.184  22.285  0.00  0.00    +0.000 C 
ATOM     34  H   UNL     1      47.964   4.465  21.126  0.00  0.00    +0.000 HD
ENDBRANCH  19  27
ENDBRANCH   1  21
TORSDOF 7
ENDMDL
MODEL 2
REMARK VINA RESULT:    -7.775      4.996      7.238
REMARK INTER + INTRA:         -11.850
REMARK INTER:                 -11.068
REMARK INTRA:                  -0.782
REMARK UNBOUND:                -0.894
REMARK  Name = 
REMARK  10 active torsions:
REMARK  status: ('A' for Active; 'I' for Inactive)
REMARK    1  A    between atoms: C_1  and  C_2
REMARK    2  A    between atoms: C_5  and  C_6
REMARK    3  A    between atoms: N_8  and  C_9
REMARK    4  A    between atoms: C_9  and  C_10
REMARK    5  A    between atoms: C_13  and  C_14
REMARK    6  A    between atoms: C_14  and  N_15
REMARK    7  A    between atoms: N_15  and  C_16
REMARK    8  A    between atoms: C_16  and  C_17
REMARK    9  A    between atoms: C_16  and  C_18
REMARK   10  A    between atoms: C_30  and  C_31
REMARK                            x       y       z     vdW  Elec       q    Type
REMARK                         _______ _______ _______ _____ _____    ______ ____
ROOT
ATOM      1  C   UNL     1      44.829   2.760   9.964  0.00  0.00    +0.000 C 
ENDROOT
BRANCH   1   2
ATOM      2  C   UNL     1      45.517   2.572   8.635  0.00  0.00    +0.000 A 
ATOM      3  C   UNL     1      46.176   1.371   8.337  0.00  0.00    +0.000 A 
ATOM      4  C   UNL     1      46.831   1.202   7.111  0.00  0.00    +0.000 A 
ATOM      5  C   UNL     1      46.846   2.230   6.157  0.00  0.00    +0.000 A 
ATOM      6  C   UNL     1      46.198   3.434   6.463  0.00  0.00    +0.000 A 
ATOM      7  C   UNL     1      45.545   3.605   7.689  0.00  0.00    +0.000 A 
BRANCH   5   8
ATOM      8  C   UNL     1      47.589   2.066   4.846  0.00  0.00    +0.000 C 
BRANCH   8   9
ATOM      9  N   UNL     1      47.854   0.660   4.543  0.00  0.00    +0.000 NA
ATOM     10  H   UNL     1      48.084   0.190   5.421  0.00  0.00    +0.000 HD
BRANCH   9  11
ATOM     11  C   UNL     1      46.682  -0.042   3.972  0.00  0.00    +0.000 C 
ATOM     12  C   UNL     1      45.964   0.767   2.884  0.00  0.00    +0.000 C 
BRANCH  11  13
ATOM     13  C   UNL     1      47.088  -1.404   3.404  0.00  0.00    +0.000 A 
ATOM     14  C   UNL     1      46.405  -2.565   3.773  0.00  0.00    +0.000 A 
ATOM     15  C   UNL     1      46.805  -3.788   3.243  0.00  0.00    +0.000 A 
ATOM     16  C   UNL     1      47.872  -3.826   2.356  0.00  0.00    +0.000 A 
ATOM     17  C   UNL     1      48.496  -2.632   2.035  0.00  0.00    +0.000 A 
ATOM     18  N   UNL     1      48.132  -1.429   2.535  0.00  0.00    +0.000 NA
ENDBRANCH  11  13
ENDBRANCH   9  11
ENDBRANCH   8   9
ENDBRANCH   5   8
ENDBRANCH   1   2
BRANCH   1  21
ATOM     19  C   UNL     1      45.078   4.528  11.655  0.00  0.00    +0.000 C 
ATOM     20  O   UNL     1      45.296   3.720  12.552  0.00  0.00    +0.000 OA
ATOM     21  N   UNL     1      44.830   4.150  10.355  0.00  0.00    +0.000 N 
ATOM     22  H   UNL     1      44.904   4.848   9.630  0.00  0.00    +0.000 HD
BRANCH  19  27
ATOM     23  C   UNL     1      49.853   7.677  12.891  0.00  0.00    +0.000 C 
ATOM     24  C   UNL     1      48.373   7.823  12.677  0.00  0.00    +0.000 A 
ATOM     25  C   UNL     1      47.605   6.689  12.374  0.00  0.00    +0.000 A 
ATOM     26  C   UNL     1      46.219   6.836  12.187  0.00  0.00    +0.000 A 
ATOM     27  C   UNL     1      45.112   5.974  11.873  0.00  0.00    +0.000 A 
ATOM     28  C   UNL     1      43.998   6.798  11.773  0.00  0.00    +0.000 A 
ATOM     29  N   UNL     1      44.377   8.090  12.042  0.00  0.00    +0.000 N 
ATOM     30  C   UNL     1      45.719   8.129  12.294  0.00  0.00    +0.000 A 
ATOM     31  N   UNL     1      46.397   9.254  12.576  0.00  0.00    +0.000 NA
ATOM     32  C   UNL     1      47.728   9.068  12.764  0.00  0.00    +0.000 A 
ATOM     33  C   UNL     1      48.514  10.315  13.075  0.00  0.00    +0.000 C 
ATOM     34  H   UNL     1      43.781   8.904  12.045  0.00  0.00    +0.000 HD
ENDBRANCH  19  27
ENDBRANCH   1  21
TORSDOF 7
ENDMDL
MODEL 3
REMARK VINA RESULT:    -7.511      1.537      2.720
REMARK INTER + INTRA:         -11.478
REMARK INTER:                 -10.761
REMARK INTRA:                  -0.717
REMARK UNBOUND:                -0.894
REMARK  Name = 
REMARK  10 active torsions:
REMARK  status: ('A' for Active; 'I' for Inactive)
REMARK    1  A    between atoms: C_1  and  C_2
REMARK    2  A    between atoms: C_5  and  C_6
REMARK    3  A    between atoms: N_8  and  C_9
REMARK    4  A    between atoms: C_9  and  C_10
REMARK    5  A    between atoms: C_13  and  C_14
REMARK    6  A    between atoms: C_14  and  N_15
REMARK    7  A    between atoms: N_15  and  C_16
REMARK    8  A    between atoms: C_16  and  C_17
REMARK    9  A    between atoms: C_16  and  C_18
REMARK   10  A    between atoms: C_30  and  C_31
REMARK                            x       y       z     vdW  Elec       q    Type
REMARK                         _______ _______ _______ _____ _____    ______ ____
ROOT
ATOM      1  C   UNL     1      47.818   7.977  13.631  0.00  0.00    +0.000 C 
ENDROOT
BRANCH   1   2
ATOM      2  C   UNL     1      46.959   6.869  13.075  0.00  0.00    +0.000 A 
ATOM      3  C   UNL     1      46.189   7.075  11.922  0.00  0.00    +0.000 A 
ATOM      4  C   UNL     1      45.376   6.054  11.416  0.00  0.00    +0.000 A 
ATOM      5  C   UNL     1      45.310   4.806  12.053  0.00  0.00    +0.000 A 
ATOM      6  C   UNL     1      46.069   4.608  13.214  0.00  0.00    +0.000 A 
ATOM      7  C   UNL     1      46.881   5.629  13.722  0.00  0.00    +0.000 A 
BRANCH   5   8
ATOM      8  C   UNL     1      44.399   3.712  11.532  0.00  0.00    +0.000 C 
BRANCH   8   9
ATOM      9  N   UNL     1      45.115   2.775  10.667  0.00  0.00    +0.000 NA
ATOM     10  H   UNL     1      44.950   1.832  11.024  0.00  0.00    +0.000 HD
BRANCH   9  11
ATOM     11  C   UNL     1      44.633   2.796   9.266  0.00  0.00    +0.000 C 
ATOM     12  C   UNL     1      44.143   4.178   8.816  0.00  0.00    +0.000 C 
BRANCH  11  13
ATOM     13  C   UNL     1      45.726   2.310   8.310  0.00  0.00    +0.000 A 
ATOM     14  C   UNL     1      46.370   3.202   7.449  0.00  0.00    +0.000 A 
ATOM     15  C   UNL     1      47.354   2.726   6.588  0.00  0.00    +0.000 A 
ATOM     16  C   UNL     1      47.676   1.376   6.606  0.00  0.00    +0.000 A 
ATOM     17  C   UNL     1      46.997   0.556   7.490  0.00  0.00    +0.000 A 
ATOM     18  N   UNL     1      46.035   0.987   8.338  0.00  0.00    +0.000 NA
ENDBRANCH  11  13
ENDBRANCH   9  11
ENDBRANCH   8   9
ENDBRANCH   5   8
ENDBRANCH   1   2
BRANCH   1  21
ATOM     19  C   UNL     1      48.331   9.029  15.794  0.00  0.00    +0.000 C 
ATOM     20  O   UNL     1      48.937   9.955  15.265  0.00  0.00    +0.000 OA
ATOM     21  N   UNL     1      47.756   8.008  15.073  0.00  0.00    +0.000 N 
ATOM     22  H   UNL     1      47.074   7.422  15.532  0.00  0.00    +0.000 HD
BRANCH  19  27
ATOM     23  C   UNL     1      48.578   4.148  19.013  0.00  0.00    +0.000 C 
ATOM     24  C   UNL     1      48.331   5.625  19.137  0.00  0.00    +0.000 A 
ATOM     25  C   UNL     1      48.396   6.433  17.991  0.00  0.00    +0.000 A 
ATOM     26  C   UNL     1      48.150   7.812  18.117  0.00  0.00    +0.000 A 
ATOM     27  C   UNL     1      48.120   8.950  17.239  0.00  0.00    +0.000 A 
ATOM     28  C   UNL     1      47.868  10.052  18.046  0.00  0.00    +0.000 A 
ATOM     29  N   UNL     1      47.715   9.628  19.342  0.00  0.00    +0.000 N 
ATOM     30  C   UNL     1      47.884   8.273  19.401  0.00  0.00    +0.000 A 
ATOM     31  N   UNL     1      47.811   7.556  20.535  0.00  0.00    +0.000 NA
ATOM     32  C   UNL     1      48.040   6.229  20.370  0.00  0.00    +0.000 A 
ATOM     33  C   UNL     1      47.972   5.404  21.628  0.00  0.00    +0.000 C 
ATOM     34  H   UNL     1      47.523  10.205  20.147  0.00  0.00    +0.000 HD
ENDBRANCH  19  27
ENDBRANCH   1  21
TORSDOF 7
ENDMDL
MODEL 4
REMARK VINA RESULT:    -7.416      4.426      7.246
REMARK INTER + INTRA:         -11.344
REMARK INTER:                 -10.360
REMARK INTRA:                  -0.985
REMARK UNBOUND:                -0.894
REMARK  Name = 
REMARK  10 active torsions:
REMARK  status: ('A' for Active; 'I' for Inactive)
REMARK    1  A    between atoms: C_1  and  C_2
REMARK    2  A    between atoms: C_5  and  C_6
REMARK    3  A    between atoms: N_8  and  C_9
REMARK    4  A    between atoms: C_9  and  C_10
REMARK    5  A    between atoms: C_13  and  C_14
REMARK    6  A    between atoms: C_14  and  N_15
REMARK    7  A    between atoms: N_15  and  C_16
REMARK    8  A    between atoms: C_16  and  C_17
REMARK    9  A    between atoms: C_16  and  C_18
REMARK   10  A    between atoms: C_30  and  C_31
REMARK                            x       y       z     vdW  Elec       q    Type
REMARK                         _______ _______ _______ _____ _____    ______ ____
ROOT
ATOM      1  C   UNL     1      48.772   7.015  14.173  0.00  0.00    +0.000 C 
ENDROOT
BRANCH   1   2
ATOM      2  C   UNL     1      47.655   6.210  13.555  0.00  0.00    +0.000 A 
ATOM      3  C   UNL     1      47.173   5.057  14.189  0.00  0.00    +0.000 A 
ATOM      4  C   UNL     1      46.150   4.299  13.608  0.00  0.00    +0.000 A 
ATOM      5  C   UNL     1      45.589   4.672  12.378  0.00  0.00    +0.000 A 
ATOM      6  C   UNL     1      46.083   5.818  11.739  0.00  0.00    +0.000 A 
ATOM      7  C   UNL     1      47.107   6.575  12.319  0.00  0.00    +0.000 A 
BRANCH   5   8
ATOM      8  C   UNL     1      44.510   3.831  11.725  0.00  0.00    +0.000 C 
BRANCH   8   9
ATOM      9  N   UNL     1      45.076   2.813  10.841  0.00  0.00    +0.000 NA
ATOM     10  H   UNL     1      44.791   1.898  11.196  0.00  0.00    +0.000 HD
BRANCH   9  11
ATOM     11  C   UNL     1      44.576   2.910   9.450  0.00  0.00    +0.000 C 
ATOM     12  C   UNL     1      44.136   4.328   9.064  0.00  0.00    +0.000 C 
BRANCH  11  13
ATOM     13  C   UNL     1      45.635   2.421   8.458  0.00  0.00    +0.000 A 
ATOM     14  C   UNL     1      46.253   3.310   7.577  0.00  0.00    +0.000 A 
ATOM     15  C   UNL     1      47.207   2.831   6.683  0.00  0.00    +0.000 A 
ATOM     16  C   UNL     1      47.525   1.480   6.691  0.00  0.00    +0.000 A 
ATOM     17  C   UNL     1      46.872   0.662   7.597  0.00  0.00    +0.000 A 
ATOM     18  N   UNL     1      45.940   1.097   8.475  0.00  0.00    +0.000 NA
ENDBRANCH  11  13
ENDBRANCH   9  11
ENDBRANCH   8   9
ENDBRANCH   5   8
ENDBRANCH   1   2
BRANCH   1  21
ATOM     19  C   UNL     1      50.694   8.301  13.339  0.00  0.00    +0.000 C 
ATOM     20  O   UNL     1      51.390   7.997  14.302  0.00  0.00    +0.000 OA
ATOM     21  N   UNL     1      49.395   7.873  13.193  0.00  0.00    +0.000 N 
ATOM     22  H   UNL     1      48.965   7.946  12.283  0.00  0.00    +0.000 HD
BRANCH  19  27
ATOM     23  C   UNL     1      53.191   6.215   8.475  0.00  0.00    +0.000 C 
ATOM     24  C   UNL     1      52.805   7.508   9.134  0.00  0.00    +0.000 A 
ATOM     25  C   UNL     1      52.177   7.482  10.389  0.00  0.00    +0.000 A 
ATOM     26  C   UNL     1      51.831   8.699  11.002  0.00  0.00    +0.000 A 
ATOM     27  C   UNL     1      51.199   9.107  12.227  0.00  0.00    +0.000 A 
ATOM     28  C   UNL     1      51.110  10.492  12.172  0.00  0.00    +0.000 A 
ATOM     29  N   UNL     1      51.681  10.927  11.003  0.00  0.00    +0.000 N 
ATOM     30  C   UNL     1      52.122   9.853  10.283  0.00  0.00    +0.000 A 
ATOM     31  N   UNL     1      52.715   9.947   9.081  0.00  0.00    +0.000 NA
ATOM     32  C   UNL     1      53.047   8.752   8.530  0.00  0.00    +0.000 A 
ATOM     33  C   UNL     1      53.707   8.830   7.178  0.00  0.00    +0.000 C 
ATOM     34  H   UNL     1      51.764  11.884  10.692  0.00  0.00    +0.000 HD
ENDBRANCH  19  27
ENDBRANCH   1  21
TORSDOF 7
ENDMDL
MODEL 5
REMARK VINA RESULT:    -7.384      1.765      2.449
REMARK INTER + INTRA:         -11.299
REMARK INTER:                 -10.478
REMARK INTRA:                  -0.821
REMARK UNBOUND:                -0.894
REMARK  Name = 
REMARK  10 active torsions:
REMARK  status: ('A' for Active; 'I' for Inactive)
REMARK    1  A    between atoms: C_1  and  C_2
REMARK    2  A    between atoms: C_5  and  C_6
REMARK    3  A    between atoms: N_8  and  C_9
REMARK    4  A    between atoms: C_9  and  C_10
REMARK    5  A    between atoms: C_13  and  C_14
REMARK    6  A    between atoms: C_14  and  N_15
REMARK    7  A    between atoms: N_15  and  C_16
REMARK    8  A    between atoms: C_16  and  C_17
REMARK    9  A    between atoms: C_16  and  C_18
REMARK   10  A    between atoms: C_30  and  C_31
REMARK                            x       y       z     vdW  Elec       q    Type
REMARK                         _______ _______ _______ _____ _____    ______ ____
ROOT
ATOM      1  C   UNL     1      48.101   5.678  14.193  0.00  0.00    +0.000 C 
ENDROOT
BRANCH   1   2
ATOM      2  C   UNL     1      46.948   5.522  13.233  0.00  0.00    +0.000 A 
ATOM      3  C   UNL     1      45.904   4.629  13.512  0.00  0.00    +0.000 A 
ATOM      4  C   UNL     1      44.843   4.470  12.613  0.00  0.00    +0.000 A 
ATOM      5  C   UNL     1      44.802   5.195  11.414  0.00  0.00    +0.000 A 
ATOM      6  C   UNL     1      45.854   6.077  11.131  0.00  0.00    +0.000 A 
ATOM      7  C   UNL     1      46.917   6.235  12.028  0.00  0.00    +0.000 A 
BRANCH   5   8
ATOM      8  C   UNL     1      43.676   4.995  10.419  0.00  0.00    +0.000 C 
BRANCH   8   9
ATOM      9  N   UNL     1      44.130   4.293   9.218  0.00  0.00    +0.000 NA
ATOM     10  H   UNL     1      44.741   4.927   8.699  0.00  0.00    +0.000 HD
BRANCH   9  11
ATOM     11  C   UNL     1      44.923   3.080   9.521  0.00  0.00    +0.000 C 
ATOM     12  C   UNL     1      44.062   1.889   9.961  0.00  0.00    +0.000 C 
BRANCH  11  13
ATOM     13  C   UNL     1      45.772   2.672   8.313  0.00  0.00    +0.000 A 
ATOM     14  C   UNL     1      46.020   3.574   7.276  0.00  0.00    +0.000 A 
ATOM     15  C   UNL     1      46.790   3.167   6.190  0.00  0.00    +0.000 A 
ATOM     16  C   UNL     1      47.297   1.876   6.164  0.00  0.00    +0.000 A 
ATOM     17  C   UNL     1      47.011   1.041   7.231  0.00  0.00    +0.000 A 
ATOM     18  N   UNL     1      46.265   1.406   8.299  0.00  0.00    +0.000 NA
ENDBRANCH  11  13
ENDBRANCH   9  11
ENDBRANCH   8   9
ENDBRANCH   5   8
ENDBRANCH   1   2
BRANCH   1  21
ATOM     19  C   UNL     1      48.899   7.532  15.596  0.00  0.00    +0.000 C 
ATOM     20  O   UNL     1      50.070   7.338  15.289  0.00  0.00    +0.000 OA
ATOM     21  N   UNL     1      47.865   6.763  15.115  0.00  0.00    +0.000 N 
ATOM     22  H   UNL     1      46.923   7.117  15.202  0.00  0.00    +0.000 HD
BRANCH  19  27
ATOM     23  C   UNL     1      47.384   7.048  21.228  0.00  0.00    +0.000 C 
ATOM     24  C   UNL     1      47.534   8.069  20.136  0.00  0.00    +0.000 A 
ATOM     25  C   UNL     1      47.966   7.660  18.865  0.00  0.00    +0.000 A 
ATOM     26  C   UNL     1      48.091   8.623  17.848  0.00  0.00    +0.000 A 
ATOM     27  C   UNL     1      48.486   8.634  16.466  0.00  0.00    +0.000 A 
ATOM     28  C   UNL     1      48.441   9.963  16.062  0.00  0.00    +0.000 A 
ATOM     29  N   UNL     1      48.010  10.731  17.115  0.00  0.00    +0.000 N 
ATOM     30  C   UNL     1      47.795   9.934  18.203  0.00  0.00    +0.000 A 
ATOM     31  N   UNL     1      47.381  10.390  19.398  0.00  0.00    +0.000 NA
ATOM     32  C   UNL     1      47.259   9.430  20.348  0.00  0.00    +0.000 A 
ATOM     33  C   UNL     1      46.805   9.916  21.699  0.00  0.00    +0.000 C 
ATOM     34  H   UNL     1      47.878  11.732  17.116  0.00  0.00    +0.000 HD
ENDBRANCH  19  27
ENDBRANCH   1  21
TORSDOF 7
ENDMDL
MODEL 6
REMARK VINA RESULT:    -7.300      3.806      5.967
REMARK INTER + INTRA:         -11.182
REMARK INTER:                 -10.461
REMARK INTRA:                  -0.721
REMARK UNBOUND:                -0.894
REMARK  Name = 
REMARK  10 active torsions:
REMARK  status: ('A' for Active; 'I' for Inactive)
REMARK    1  A    between atoms: C_1  and  C_2
REMARK    2  A    between atoms: C_5  and  C_6
REMARK    3  A    between atoms: N_8  and  C_9
REMARK    4  A    between atoms: C_9  and  C_10
REMARK    5  A    between atoms: C_13  and  C_14
REMARK    6  A    between atoms: C_14  and  N_15
REMARK    7  A    between atoms: N_15  and  C_16
REMARK    8  A    between atoms: C_16  and  C_17
REMARK    9  A    between atoms: C_16  and  C_18
REMARK   10  A    between atoms: C_30  and  C_31
REMARK                            x       y       z     vdW  Elec       q    Type
REMARK                         _______ _______ _______ _____ _____    ______ ____
ROOT
ATOM      1  C   UNL     1      48.142   6.284  14.501  0.00  0.00    +0.000 C 
ENDROOT
BRANCH   1   2
ATOM      2  C   UNL     1      47.080   5.511  13.761  0.00  0.00    +0.000 A 
ATOM      3  C   UNL     1      47.011   4.115  13.865  0.00  0.00    +0.000 A 
ATOM      4  C   UNL     1      46.037   3.394  13.163  0.00  0.00    +0.000 A 
ATOM      5  C   UNL     1      45.114   4.051  12.338  0.00  0.00    +0.000 A 
ATOM      6  C   UNL     1      45.193   5.446  12.224  0.00  0.00    +0.000 A 
ATOM      7  C   UNL     1      46.168   6.167  12.923  0.00  0.00    +0.000 A 
BRANCH   5   8
ATOM      8  C   UNL     1      44.084   3.271  11.544  0.00  0.00    +0.000 C 
BRANCH   8   9
ATOM      9  N   UNL     1      44.712   2.382  10.566  0.00  0.00    +0.000 NA
ATOM     10  H   UNL     1      44.292   1.456  10.672  0.00  0.00    +0.000 HD
BRANCH   9  11
ATOM     11  C   UNL     1      44.479   2.803   9.166  0.00  0.00    +0.000 C 
ATOM     12  C   UNL     1      44.259   4.315   9.018  0.00  0.00    +0.000 C 
BRANCH  11  13
ATOM     13  C   UNL     1      45.642   2.372   8.269  0.00  0.00    +0.000 A 
ATOM     14  C   UNL     1      46.273   3.289   7.426  0.00  0.00    +0.000 A 
ATOM     15  C   UNL     1      47.323   2.862   6.619  0.00  0.00    +0.000 A 
ATOM     16  C   UNL     1      47.722   1.533   6.672  0.00  0.00    +0.000 A 
ATOM     17  C   UNL     1      47.051   0.685   7.536  0.00  0.00    +0.000 A 
ATOM     18  N   UNL     1      46.026   1.070   8.331  0.00  0.00    +0.000 NA
ENDBRANCH  11  13
ENDBRANCH   9  11
ENDBRANCH   8   9
ENDBRANCH   5   8
ENDBRANCH   1   2
BRANCH   1  21
ATOM     19  C   UNL     1      50.023   7.742  13.883  0.00  0.00    +0.000 C 
ATOM     20  O   UNL     1      50.705   7.361  14.829  0.00  0.00    +0.000 OA
ATOM     21  N   UNL     1      48.750   7.277  13.647  0.00  0.00    +0.000 N 
ATOM     22  H   UNL     1      48.343   7.435  12.737  0.00  0.00    +0.000 HD
BRANCH  19  27
ATOM     23  C   UNL     1      46.733  11.438  10.759  0.00  0.00    +0.000 C 
ATOM     24  C   UNL     1      48.162  11.019  10.958  0.00  0.00    +0.000 A 
ATOM     25  C   UNL     1      48.464  10.023  11.899  0.00  0.00    +0.000 A 
ATOM     26  C   UNL     1      49.804   9.631  12.068  0.00  0.00    +0.000 A 
ATOM     27  C   UNL     1      50.520   8.693  12.888  0.00  0.00    +0.000 A 
ATOM     28  C   UNL     1      51.865   8.865  12.586  0.00  0.00    +0.000 A 
ATOM     29  N   UNL     1      51.981   9.825  11.612  0.00  0.00    +0.000 N 
ATOM     30  C   UNL     1      50.742  10.299  11.289  0.00  0.00    +0.000 A 
ATOM     31  N   UNL     1      50.520  11.260  10.376  0.00  0.00    +0.000 NA
ATOM     32  C   UNL     1      49.215  11.599  10.232  0.00  0.00    +0.000 A 
ATOM     33  C   UNL     1      48.940  12.681   9.220  0.00  0.00    +0.000 C 
ATOM     34  H   UNL     1      52.837  10.158  11.194  0.00  0.00    +0.000 HD
ENDBRANCH  19  27
ENDBRANCH   1  21
TORSDOF 7
ENDMDL
MODEL 7
REMARK VINA RESULT:    -7.181      2.685     10.301
REMARK INTER + INTRA:         -11.014
REMARK INTER:                  -9.902
REMARK INTRA:                  -1.112
REMARK UNBOUND:                -0.894
REMARK  Name = 
REMARK  10 active torsions:
REMARK  status: ('A' for Active; 'I' for Inactive)
REMARK    1  A    between atoms: C_1  and  C_2
REMARK    2  A    between atoms: C_5  and  C_6
REMARK    3  A    between atoms: N_8  and  C_9
REMARK    4  A    between atoms: C_9  and  C_10
REMARK    5  A    between atoms: C_13  and  C_14
REMARK    6  A    between atoms: C_14  and  N_15
REMARK    7  A    between atoms: N_15  and  C_16
REMARK    8  A    between atoms: C_16  and  C_17
REMARK    9  A    between atoms: C_16  and  C_18
REMARK   10  A    between atoms: C_30  and  C_31
REMARK                            x       y       z     vdW  Elec       q    Type
REMARK                         _______ _______ _______ _____ _____    ______ ____
ROOT
ATOM      1  C   UNL     1      44.827   7.844  11.389  0.00  0.00    +0.000 C 
ENDROOT
BRANCH   1   2
ATOM      2  C   UNL     1      45.992   8.289  12.237  0.00  0.00    +0.000 A 
ATOM      3  C   UNL     1      46.599   7.401  13.135  0.00  0.00    +0.000 A 
ATOM      4  C   UNL     1      47.669   7.817  13.937  0.00  0.00    +0.000 A 
ATOM      5  C   UNL     1      48.152   9.131  13.863  0.00  0.00    +0.000 A 
ATOM      6  C   UNL     1      47.533  10.022  12.975  0.00  0.00    +0.000 A 
ATOM      7  C   UNL     1      46.463   9.606  12.174  0.00  0.00    +0.000 A 
BRANCH   5   8
ATOM      8  C   UNL     1      49.282   9.598  14.759  0.00  0.00    +0.000 C 
BRANCH   8   9
ATOM      9  N   UNL     1      49.940   8.479  15.433  0.00  0.00    +0.000 NA
ATOM     10  H   UNL     1      50.943   8.551  15.251  0.00  0.00    +0.000 HD
BRANCH   9  11
ATOM     11  C   UNL     1      49.765   8.503  16.903  0.00  0.00    +0.000 C 
ATOM     12  C   UNL     1      49.072   9.775  17.409  0.00  0.00    +0.000 C 
BRANCH  11  13
ATOM     13  C   UNL     1      48.979   7.277  17.376  0.00  0.00    +0.000 A 
ATOM     14  C   UNL     1      48.137   7.353  18.488  0.00  0.00    +0.000 A 
ATOM     15  C   UNL     1      47.442   6.218  18.895  0.00  0.00    +0.000 A 
ATOM     16  C   UNL     1      47.599   5.036  18.184  0.00  0.00    +0.000 A 
ATOM     17  C   UNL     1      48.448   5.040  17.091  0.00  0.00    +0.000 A 
ATOM     18  N   UNL     1      49.138   6.126  16.672  0.00  0.00    +0.000 NA
ENDBRANCH  11  13
ENDBRANCH   9  11
ENDBRANCH   8   9
ENDBRANCH   5   8
ENDBRANCH   1   2
BRANCH   1  21
ATOM     19  C   UNL     1      43.780   5.668  10.925  0.00  0.00    +0.000 C 
ATOM     20  O   UNL     1      42.647   6.124  11.033  0.00  0.00    +0.000 OA
ATOM     21  N   UNL     1      44.911   6.434  11.091  0.00  0.00    +0.000 N 
ATOM     22  H   UNL     1      45.790   6.071  10.751  0.00  0.00    +0.000 HD
BRANCH  19  27
ATOM     23  C   UNL     1      47.270   3.868   6.586  0.00  0.00    +0.000 C 
ATOM     24  C   UNL     1      46.368   3.337   7.664  0.00  0.00    +0.000 A 
ATOM     25  C   UNL     1      45.712   4.237   8.518  0.00  0.00    +0.000 A 
ATOM     26  C   UNL     1      44.861   3.729   9.516  0.00  0.00    +0.000 A 
ATOM     27  C   UNL     1      44.036   4.274  10.559  0.00  0.00    +0.000 A 
ATOM     28  C   UNL     1      43.500   3.186  11.235  0.00  0.00    +0.000 A 
ATOM     29  N   UNL     1      43.935   2.032  10.633  0.00  0.00    +0.000 N 
ATOM     30  C   UNL     1      44.760   2.345   9.590  0.00  0.00    +0.000 A 
ATOM     31  N   UNL     1      45.361   1.432   8.809  0.00  0.00    +0.000 NA
ATOM     32  C   UNL     1      46.162   1.961   7.850  0.00  0.00    +0.000 A 
ATOM     33  C   UNL     1      46.855   0.958   6.965  0.00  0.00    +0.000 C 
ATOM     34  H   UNL     1      43.707   1.087  10.906  0.00  0.00    +0.000 HD
ENDBRANCH  19  27
ENDBRANCH   1  21
TORSDOF 7
ENDMDL
MODEL 8
REMARK VINA RESULT:    -7.173      4.494      6.692
REMARK INTER + INTRA:         -11.002
REMARK INTER:                 -10.084
REMARK INTRA:                  -0.918
REMARK UNBOUND:                -0.894
REMARK  Name = 
REMARK  10 active torsions:
REMARK  status: ('A' for Active; 'I' for Inactive)
REMARK    1  A    between atoms: C_1  and  C_2
REMARK    2  A    between atoms: C_5  and  C_6
REMARK    3  A    between atoms: N_8  and  C_9
REMARK    4  A    between atoms: C_9  and  C_10
REMARK    5  A    between atoms: C_13  and  C_14
REMARK    6  A    between atoms: C_14  and  N_15
REMARK    7  A    between atoms: N_15  and  C_16
REMARK    8  A    between atoms: C_16  and  C_17
REMARK    9  A    between atoms: C_16  and  C_18
REMARK   10  A    between atoms: C_30  and  C_31
REMARK                            x       y       z     vdW  Elec       q    Type
REMARK                         _______ _______ _______ _____ _____    ______ ____
ROOT
ATOM      1  C   UNL     1      46.557   4.956  13.342  0.00  0.00    +0.000 C 
ENDROOT
BRANCH   1   2
ATOM      2  C   UNL     1      46.148   6.334  12.886  0.00  0.00    +0.000 A 
ATOM      3  C   UNL     1      46.822   7.469  13.356  0.00  0.00    +0.000 A 
ATOM      4  C   UNL     1      46.431   8.750  12.948  0.00  0.00    +0.000 A 
ATOM      5  C   UNL     1      45.356   8.926  12.066  0.00  0.00    +0.000 A 
ATOM      6  C   UNL     1      44.674   7.790  11.609  0.00  0.00    +0.000 A 
ATOM      7  C   UNL     1      45.063   6.509  12.018  0.00  0.00    +0.000 A 
BRANCH   5   8
ATOM      8  C   UNL     1      44.903  10.313  11.655  0.00  0.00    +0.000 C 
BRANCH   8   9
ATOM      9  N   UNL     1      43.585  10.638  12.199  0.00  0.00    +0.000 NA
ATOM     10  H   UNL     1      43.712  11.352  12.919  0.00  0.00    +0.000 HD
BRANCH   9  11
ATOM     11  C   UNL     1      42.663  11.204  11.188  0.00  0.00    +0.000 C 
ATOM     12  C   UNL     1      42.714  10.467   9.844  0.00  0.00    +0.000 C 
BRANCH  11  13
ATOM     13  C   UNL     1      41.223  11.208  11.708  0.00  0.00    +0.000 A 
ATOM     14  C   UNL     1      40.256  10.374  11.142  0.00  0.00    +0.000 A 
ATOM     15  C   UNL     1      38.955  10.408  11.635  0.00  0.00    +0.000 A 
ATOM     16  C   UNL     1      38.648  11.267  12.681  0.00  0.00    +0.000 A 
ATOM     17  C   UNL     1      39.661  12.059  13.192  0.00  0.00    +0.000 A 
ATOM     18  N   UNL     1      40.934  12.051  12.734  0.00  0.00    +0.000 NA
ENDBRANCH  11  13
ENDBRANCH   9  11
ENDBRANCH   8   9
ENDBRANCH   5   8
ENDBRANCH   1   2
BRANCH   1  21
ATOM     19  C   UNL     1      47.431   3.849  15.357  0.00  0.00    +0.000 C 
ATOM     20  O   UNL     1      47.698   2.819  14.746  0.00  0.00    +0.000 OA
ATOM     21  N   UNL     1      46.861   4.946  14.754  0.00  0.00    +0.000 N 
ATOM     22  H   UNL     1      46.894   5.831  15.239  0.00  0.00    +0.000 HD
BRANCH  19  27
ATOM     23  C   UNL     1      49.658   8.682  17.789  0.00  0.00    +0.000 C 
ATOM     24  C   UNL     1      49.203   7.294  18.140  0.00  0.00    +0.000 A 
ATOM     25  C   UNL     1      48.704   6.457  17.131  0.00  0.00    +0.000 A 
ATOM     26  C   UNL     1      48.291   5.156  17.469  0.00  0.00    +0.000 A 
ATOM     27  C   UNL     1      47.740   4.024  16.776  0.00  0.00    +0.000 A 
ATOM     28  C   UNL     1      47.501   3.057  17.745  0.00  0.00    +0.000 A 
ATOM     29  N   UNL     1      47.909   3.541  18.963  0.00  0.00    +0.000 N 
ATOM     30  C   UNL     1      48.389   4.811  18.812  0.00  0.00    +0.000 A 
ATOM     31  N   UNL     1      48.852   5.563  19.825  0.00  0.00    +0.000 NA
ATOM     32  C   UNL     1      49.254   6.806  19.455  0.00  0.00    +0.000 A 
ATOM     33  C   UNL     1      49.770   7.673  20.573  0.00  0.00    +0.000 C 
ATOM     34  H   UNL     1      47.860   3.060  19.849  0.00  0.00    +0.000 HD
ENDBRANCH  19  27
ENDBRANCH   1  21
TORSDOF 7
ENDMDL
MODEL 9
REMARK VINA RESULT:    -7.132      2.923      9.715
REMARK INTER + INTRA:         -10.945
REMARK INTER:                  -9.649
REMARK INTRA:                  -1.296
REMARK UNBOUND:                -0.894
REMARK  Name = 
REMARK  10 active torsions:
REMARK  status: ('A' for Active; 'I' for Inactive)
REMARK    1  A    between atoms: C_1  and  C_2
REMARK    2  A    between atoms: C_5  and  C_6
REMARK    3  A    between atoms: N_8  and  C_9
REMARK    4  A    between atoms: C_9  and  C_10
REMARK    5  A    between atoms: C_13  and  C_14
REMARK    6  A    between atoms: C_14  and  N_15
REMARK    7  A    between atoms: N_15  and  C_16
REMARK    8  A    between atoms: C_16  and  C_17
REMARK    9  A    between atoms: C_16  and  C_18
REMARK   10  A    between atoms: C_30  and  C_31
REMARK                            x       y       z     vdW  Elec       q    Type
REMARK                         _______ _______ _______ _____ _____    ______ ____
ROOT
ATOM      1  C   UNL     1      47.236   8.668  13.643  0.00  0.00    +0.000 C 
ENDROOT
BRANCH   1   2
ATOM      2  C   UNL     1      48.201   8.357  14.759  0.00  0.00    +0.000 A 
ATOM      3  C   UNL     1      48.954   7.175  14.742  0.00  0.00    +0.000 A 
ATOM      4  C   UNL     1      49.837   6.877  15.787  0.00  0.00    +0.000 A 
ATOM      5  C   UNL     1      49.983   7.749  16.874  0.00  0.00    +0.000 A 
ATOM      6  C   UNL     1      49.218   8.923  16.897  0.00  0.00    +0.000 A 
ATOM      7  C   UNL     1      48.334   9.222  15.853  0.00  0.00    +0.000 A 
BRANCH   5   8
ATOM      8  C   UNL     1      50.906   7.410  18.028  0.00  0.00    +0.000 C 
BRANCH   8   9
ATOM      9  N   UNL     1      50.166   6.915  19.188  0.00  0.00    +0.000 NA
ATOM     10  H   UNL     1      49.170   7.052  19.005  0.00  0.00    +0.000 HD
BRANCH   9  11
ATOM     11  C   UNL     1      50.365   5.467  19.428  0.00  0.00    +0.000 C 
ATOM     12  C   UNL     1      50.177   5.066  20.897  0.00  0.00    +0.000 C 
BRANCH  11  13
ATOM     13  C   UNL     1      49.421   4.638  18.553  0.00  0.00    +0.000 A 
ATOM     14  C   UNL     1      49.885   3.515  17.865  0.00  0.00    +0.000 A 
ATOM     15  C   UNL     1      49.001   2.788  17.073  0.00  0.00    +0.000 A 
ATOM     16  C   UNL     1      47.676   3.192  16.989  0.00  0.00    +0.000 A 
ATOM     17  C   UNL     1      47.290   4.313  17.704  0.00  0.00    +0.000 A 
ATOM     18  N   UNL     1      48.125   5.041  18.480  0.00  0.00    +0.000 NA
ENDBRANCH  11  13
ENDBRANCH   9  11
ENDBRANCH   8   9
ENDBRANCH   5   8
ENDBRANCH   1   2
BRANCH   1  21
ATOM     19  C   UNL     1      45.437   7.576  12.369  0.00  0.00    +0.000 C 
ATOM     20  O   UNL     1      45.157   8.609  11.768  0.00  0.00    +0.000 OA
ATOM     21  N   UNL     1      46.436   7.511  13.313  0.00  0.00    +0.000 N 
ATOM     22  H   UNL     1      46.780   6.602  13.585  0.00  0.00    +0.000 HD
BRANCH  19  27
ATOM     23  C   UNL     1      46.337   4.173   7.695  0.00  0.00    +0.000 C 
ATOM     24  C   UNL     1      45.523   4.245   8.955  0.00  0.00    +0.000 A 
ATOM     25  C   UNL     1      45.685   5.339   9.818  0.00  0.00    +0.000 A 
ATOM     26  C   UNL     1      44.909   5.402  10.990  0.00  0.00    +0.000 A 
ATOM     27  C   UNL     1      44.768   6.304  12.100  0.00  0.00    +0.000 A 
ATOM     28  C   UNL     1      43.847   5.717  12.959  0.00  0.00    +0.000 A 
ATOM     29  N   UNL     1      43.412   4.539  12.405  0.00  0.00    +0.000 N 
ATOM     30  C   UNL     1      44.046   4.334  11.213  0.00  0.00    +0.000 A 
ATOM     31  N   UNL     1      43.848   3.259  10.432  0.00  0.00    +0.000 NA
ATOM     32  C   UNL     1      44.604   3.243   9.305  0.00  0.00    +0.000 A 
ATOM     33  C   UNL     1      44.406   2.043   8.416  0.00  0.00    +0.000 C 
ATOM     34  H   UNL     1      42.741   3.899  12.801  0.00  0.00    +0.000 HD
ENDBRANCH  19  27
ENDBRANCH   1  21
TORSDOF 7
ENDMDL
