MODEL 1
REMARK VINA RESULT:    -8.181      0.000      0.000
REMARK INTER + INTRA:         -12.591
REMARK INTER:                 -11.528
REMARK INTRA:                  -1.063
REMARK UNBOUND:                -1.063
REMARK  Name = 
REMARK  9 active torsions:
REMARK  status: ('A' for Active; 'I' for Inactive)
REMARK    1  A    between atoms: C_1  and  C_2
REMARK    2  A    between atoms: C_2  and  C_3
REMARK    3  A    between atoms: C_2  and  C_14
REMARK    4  A    between atoms: C_3  and  N_4
REMARK    5  A    between atoms: N_4  and  C_5
REMARK    6  A    between atoms: C_8  and  C_9
REMARK    7  A    between atoms: C_18  and  O_19
REMARK    8  A    between atoms: O_19  and  C_20
REMARK    9  A    between atoms: N_22  and  C_23
REMARK                            x       y       z     vdW  Elec       q    Type
REMARK                         _______ _______ _______ _____ _____    ______ ____
ROOT
ATOM      1  C   UNL     1      42.983   4.802  12.967  0.00  0.00    +0.000 C 
ATOM      2  C   UNL     1      43.711   5.680  11.934  0.00  0.00    +0.000 C 
ENDROOT
BRANCH   2   3
ATOM      3  C   UNL     1      45.194   5.792  12.293  0.00  0.00    +0.000 A 
ATOM      4  C   UNL     1      46.011   6.756  11.681  0.00  0.00    +0.000 A 
ATOM      5  C   UNL     1      47.360   6.893  12.041  0.00  0.00    +0.000 A 
ATOM      6  C   UNL     1      47.928   6.053  13.006  0.00  0.00    +0.000 A 
ATOM      7  C   UNL     1      47.143   5.076  13.593  0.00  0.00    +0.000 A 
ATOM      8  C   UNL     1      45.797   4.952  13.238  0.00  0.00    +0.000 A 
BRANCH   7   9
ATOM      9  O   UNL     1      47.528   4.203  14.574  0.00  0.00    +0.000 OA
BRANCH   9  10
ATOM     10  C   UNL     1      47.486   4.590  15.960  0.00  0.00    +0.000 C 
ATOM     11  C   UNL     1      48.716   5.283  16.588  0.00  0.00    +0.000 C 
ATOM     12  N   UNL     1      48.726   4.295  17.689  0.00  0.00    +0.000 NA
ATOM     13  C   UNL     1      48.037   4.809  18.872  0.00  0.00    +0.000 C 
ATOM     14  C   UNL     1      47.826   3.421  16.917  0.00  0.00    +0.000 C 
ENDBRANCH   9  10
ENDBRANCH   7   9
ENDBRANCH   2   3
BRANCH   2  15
ATOM     15  C   UNL     1      43.384   5.105  10.524  0.00  0.00    +0.000 C 
BRANCH  15  16
ATOM     16  N   UNL     1      43.848   3.725  10.386  0.00  0.00    +0.000 N 
ATOM     17  H   UNL     1      43.937   3.235  11.269  0.00  0.00    +0.000 HD
BRANCH  16  18
ATOM     18  C   UNL     1      44.829   3.378   9.457  0.00  0.00    +0.000 A 
ATOM     19  C   UNL     1      45.118   2.022   9.264  0.00  0.00    +0.000 A 
ATOM     20  C   UNL     1      46.015   1.595   8.276  0.00  0.00    +0.000 A 
ATOM     21  C   UNL     1      46.614   2.526   7.423  0.00  0.00    +0.000 A 
ATOM     22  C   UNL     1      46.339   3.884   7.599  0.00  0.00    +0.000 A 
ATOM     23  C   UNL     1      45.450   4.300   8.603  0.00  0.00    +0.000 A 
BRANCH  21  24
ATOM     24  C   UNL     1      47.518   2.028   6.357  0.00  0.00    +0.000 C 
ATOM     25  N   UNL     1      48.728   2.646   6.214  0.00  0.00    +0.000 N 
ATOM     26  O   UNL     1      47.183   1.124   5.598  0.00  0.00    +0.000 OA
ATOM     27  H   UNL     1      48.931   3.541   6.638  0.00  0.00    +0.000 HD
ATOM     28  H   UNL     1      49.267   2.384   5.397  0.00  0.00    +0.000 HD
ENDBRANCH  21  24
ENDBRANCH  16  18
ENDBRANCH  15  16
ENDBRANCH   2  15
TORSDOF 7
ENDMDL
MODEL 2
REMARK VINA RESULT:    -7.540      3.184      5.243
REMARK INTER + INTRA:         -11.689
REMARK INTER:                 -10.622
REMARK INTRA:                  -1.067
REMARK UNBOUND:                -1.063
REMARK  Name = 
REMARK  9 active torsions:
REMARK  status: ('A' for Active; 'I' for Inactive)
REMARK    1  A    between atoms: C_1  and  C_2
REMARK    2  A    between atoms: C_2  and  C_3
REMARK    3  A    between atoms: C_2  and  C_14
REMARK    4  A    between atoms: C_3  and  N_4
REMARK    5  A    between atoms: N_4  and  C_5
REMARK    6  A    between atoms: C_8  and  C_9
REMARK    7  A    between atoms: C_18  and  O_19
REMARK    8  A    between atoms: O_19  and  C_20
REMARK    9  A    between atoms: N_22  and  C_23
REMARK                            x       y       z     vdW  Elec       q    Type
REMARK                         _______ _______ _______ _____ _____    ______ ____
ROOT
ATOM      1  C   UNL     1      45.422   3.469  12.661  0.00  0.00    +0.000 C 
ATOM      2  C   UNL     1      44.495   4.691  12.536  0.00  0.00    +0.000 C 
ENDROOT
BRANCH   2   3
ATOM      3  C   UNL     1      45.325   5.965  12.366  0.00  0.00    +0.000 A 
ATOM      4  C   UNL     1      46.709   5.899  12.146  0.00  0.00    +0.000 A 
ATOM      5  C   UNL     1      47.466   7.061  11.943  0.00  0.00    +0.000 A 
ATOM      6  C   UNL     1      46.857   8.322  11.978  0.00  0.00    +0.000 A 
ATOM      7  C   UNL     1      45.498   8.405  12.229  0.00  0.00    +0.000 A 
ATOM      8  C   UNL     1      44.749   7.241  12.418  0.00  0.00    +0.000 A 
BRANCH   7   9
ATOM      9  O   UNL     1      44.745   9.547  12.259  0.00  0.00    +0.000 OA
BRANCH   9  10
ATOM     10  C   UNL     1      44.307  10.172  11.038  0.00  0.00    +0.000 C 
ATOM     11  C   UNL     1      43.729  11.604  11.089  0.00  0.00    +0.000 C 
ATOM     12  N   UNL     1      42.524  11.157  10.355  0.00  0.00    +0.000 NA
ATOM     13  C   UNL     1      42.640  11.430   8.924  0.00  0.00    +0.000 C 
ATOM     14  C   UNL     1      42.872   9.752  10.634  0.00  0.00    +0.000 C 
ENDBRANCH   9  10
ENDBRANCH   7   9
ENDBRANCH   2   3
BRANCH   2  15
ATOM     15  C   UNL     1      43.469   4.381  11.406  0.00  0.00    +0.000 C 
BRANCH  15  16
ATOM     16  N   UNL     1      43.943   4.852  10.106  0.00  0.00    +0.000 N 
ATOM     17  H   UNL     1      43.267   5.420   9.607  0.00  0.00    +0.000 HD
BRANCH  16  18
ATOM     18  C   UNL     1      44.705   4.035   9.271  0.00  0.00    +0.000 A 
ATOM     19  C   UNL     1      45.639   4.635   8.418  0.00  0.00    +0.000 A 
ATOM     20  C   UNL     1      46.510   3.872   7.629  0.00  0.00    +0.000 A 
ATOM     21  C   UNL     1      46.492   2.477   7.711  0.00  0.00    +0.000 A 
ATOM     22  C   UNL     1      45.568   1.859   8.557  0.00  0.00    +0.000 A 
ATOM     23  C   UNL     1      44.690   2.635   9.331  0.00  0.00    +0.000 A 
BRANCH  21  24
ATOM     24  C   UNL     1      47.466   1.709   6.898  0.00  0.00    +0.000 C 
ATOM     25  N   UNL     1      48.562   2.376   6.428  0.00  0.00    +0.000 N 
ATOM     26  O   UNL     1      47.282   0.530   6.615  0.00  0.00    +0.000 OA
ATOM     27  H   UNL     1      48.618   3.386   6.420  0.00  0.00    +0.000 HD
ATOM     28  H   UNL     1      49.138   1.872   5.765  0.00  0.00    +0.000 HD
ENDBRANCH  21  24
ENDBRANCH  16  18
ENDBRANCH  15  16
ENDBRANCH   2  15
TORSDOF 7
ENDMDL
MODEL 3
REMARK VINA RESULT:    -6.947      2.382      2.857
REMARK INTER + INTRA:         -10.852
REMARK INTER:                  -9.888
REMARK INTRA:                  -0.965
REMARK UNBOUND:                -1.063
REMARK  Name = 
REMARK  9 active torsions:
REMARK  status: ('A' for Active; 'I' for Inactive)
REMARK    1  A    between atoms: C_1  and  C_2
REMARK    2  A    between atoms: C_2  and  C_3
REMARK    3  A    between atoms: C_2  and  C_14
REMARK    4  A    between atoms: C_3  and  N_4
REMARK    5  A    between atoms: N_4  and  C_5
REMARK    6  A    between atoms: C_8  and  C_9
REMARK    7  A    between atoms: C_18  and  O_19
REMARK    8  A    between atoms: O_19  and  C_20
REMARK    9  A    between atoms: N_22  and  C_23
REMARK                            x       y       z     vdW  Elec       q    Type
REMARK                         _______ _______ _______ _____ _____    ______ ____
ROOT
ATOM      1  C   UNL     1      45.667   3.468  12.639  0.00  0.00    +0.000 C 
ATOM      2  C   UNL     1      44.587   4.551  12.466  0.00  0.00    +0.000 C 
ENDROOT
BRANCH   2   3
ATOM      3  C   UNL     1      45.242   5.924  12.304  0.00  0.00    +0.000 A 
ATOM      4  C   UNL     1      44.493   7.101  12.458  0.00  0.00    +0.000 A 
ATOM      5  C   UNL     1      45.099   8.362  12.357  0.00  0.00    +0.000 A 
ATOM      6  C   UNL     1      46.466   8.474  12.078  0.00  0.00    +0.000 A 
ATOM      7  C   UNL     1      47.211   7.323  11.891  0.00  0.00    +0.000 A 
ATOM      8  C   UNL     1      46.603   6.069  12.004  0.00  0.00    +0.000 A 
BRANCH   7   9
ATOM      9  O   UNL     1      48.556   7.254  11.652  0.00  0.00    +0.000 OA
BRANCH   9  10
ATOM     10  C   UNL     1      49.492   7.133  12.739  0.00  0.00    +0.000 C 
ATOM     11  C   UNL     1      48.983   7.279  14.191  0.00  0.00    +0.000 C 
ATOM     12  N   UNL     1      50.020   8.299  14.465  0.00  0.00    +0.000 NA
ATOM     13  C   UNL     1      51.192   7.706  15.108  0.00  0.00    +0.000 C 
ATOM     14  C   UNL     1      50.257   8.449  13.018  0.00  0.00    +0.000 C 
ENDBRANCH   9  10
ENDBRANCH   7   9
ENDBRANCH   2   3
BRANCH   2  15
ATOM     15  C   UNL     1      43.652   4.093  11.308  0.00  0.00    +0.000 C 
BRANCH  15  16
ATOM     16  N   UNL     1      44.076   4.648  10.023  0.00  0.00    +0.000 N 
ATOM     17  H   UNL     1      43.324   5.083   9.500  0.00  0.00    +0.000 HD
BRANCH  16  18
ATOM     18  C   UNL     1      45.003   3.988   9.218  0.00  0.00    +0.000 A 
ATOM     19  C   UNL     1      44.969   2.589   9.166  0.00  0.00    +0.000 A 
ATOM     20  C   UNL     1      45.800   1.865   8.301  0.00  0.00    +0.000 A 
ATOM     21  C   UNL     1      46.661   2.537   7.430  0.00  0.00    +0.000 A 
ATOM     22  C   UNL     1      46.710   3.932   7.465  0.00  0.00    +0.000 A 
ATOM     23  C   UNL     1      45.883   4.646   8.347  0.00  0.00    +0.000 A 
BRANCH  21  24
ATOM     24  C   UNL     1      47.486   1.733   6.494  0.00  0.00    +0.000 C 
ATOM     25  N   UNL     1      48.473   2.381   5.807  0.00  0.00    +0.000 N 
ATOM     26  O   UNL     1      47.270   0.541   6.304  0.00  0.00    +0.000 OA
ATOM     27  H   UNL     1      48.514   3.390   5.741  0.00  0.00    +0.000 HD
ATOM     28  H   UNL     1      48.929   1.848   5.076  0.00  0.00    +0.000 HD
ENDBRANCH  21  24
ENDBRANCH  16  18
ENDBRANCH  15  16
ENDBRANCH   2  15
TORSDOF 7
ENDMDL
MODEL 4
REMARK VINA RESULT:    -6.905      1.380      2.036
REMARK INTER + INTRA:         -10.793
REMARK INTER:                 -10.077
REMARK INTRA:                  -0.716
REMARK UNBOUND:                -1.063
REMARK  Name = 
REMARK  9 active torsions:
REMARK  status: ('A' for Active; 'I' for Inactive)
REMARK    1  A    between atoms: C_1  and  C_2
REMARK    2  A    between atoms: C_2  and  C_3
REMARK    3  A    between atoms: C_2  and  C_14
REMARK    4  A    between atoms: C_3  and  N_4
REMARK    5  A    between atoms: N_4  and  C_5
REMARK    6  A    between atoms: C_8  and  C_9
REMARK    7  A    between atoms: C_18  and  O_19
REMARK    8  A    between atoms: O_19  and  C_20
REMARK    9  A    between atoms: N_22  and  C_23
REMARK                            x       y       z     vdW  Elec       q    Type
REMARK                         _______ _______ _______ _____ _____    ______ ____
ROOT
ATOM      1  C   UNL     1      44.698   7.477  11.747  0.00  0.00    +0.000 C 
ATOM      2  C   UNL     1      45.743   6.408  11.380  0.00  0.00    +0.000 C 
ENDROOT
BRANCH   2   3
ATOM      3  C   UNL     1      47.042   6.657  12.149  0.00  0.00    +0.000 A 
ATOM      4  C   UNL     1      48.049   7.476  11.615  0.00  0.00    +0.000 A 
ATOM      5  C   UNL     1      49.221   7.745  12.337  0.00  0.00    +0.000 A 
ATOM      6  C   UNL     1      49.422   7.183  13.603  0.00  0.00    +0.000 A 
ATOM      7  C   UNL     1      48.453   6.346  14.128  0.00  0.00    +0.000 A 
ATOM      8  C   UNL     1      47.282   6.092  13.408  0.00  0.00    +0.000 A 
BRANCH   7   9
ATOM      9  O   UNL     1      48.473   5.749  15.359  0.00  0.00    +0.000 OA
BRANCH   9  10
ATOM     10  C   UNL     1      49.031   6.431  16.498  0.00  0.00    +0.000 C 
ATOM     11  C   UNL     1      50.280   5.844  17.192  0.00  0.00    +0.000 C 
ATOM     12  N   UNL     1      49.594   5.896  18.502  0.00  0.00    +0.000 NA
ATOM     13  C   UNL     1      49.951   7.105  19.242  0.00  0.00    +0.000 C 
ATOM     14  C   UNL     1      48.301   6.083  17.819  0.00  0.00    +0.000 C 
ENDBRANCH   9  10
ENDBRANCH   7   9
ENDBRANCH   2   3
BRANCH   2  15
ATOM     15  C   UNL     1      45.076   5.016  11.588  0.00  0.00    +0.000 C 
BRANCH  15  16
ATOM     16  N   UNL     1      44.379   4.569  10.382  0.00  0.00    +0.000 N 
ATOM     17  H   UNL     1      43.426   4.266  10.552  0.00  0.00    +0.000 HD
BRANCH  16  18
ATOM     18  C   UNL     1      45.032   3.825   9.400  0.00  0.00    +0.000 A 
ATOM     19  C   UNL     1      45.675   4.507   8.360  0.00  0.00    +0.000 A 
ATOM     20  C   UNL     1      46.437   3.832   7.398  0.00  0.00    +0.000 A 
ATOM     21  C   UNL     1      46.607   2.447   7.484  0.00  0.00    +0.000 A 
ATOM     22  C   UNL     1      45.974   1.748   8.513  0.00  0.00    +0.000 A 
ATOM     23  C   UNL     1      45.201   2.435   9.463  0.00  0.00    +0.000 A 
BRANCH  21  24
ATOM     24  C   UNL     1      47.464   1.777   6.474  0.00  0.00    +0.000 C 
ATOM     25  N   UNL     1      48.714   2.289   6.268  0.00  0.00    +0.000 N 
ATOM     26  O   UNL     1      47.060   0.826   5.814  0.00  0.00    +0.000 OA
ATOM     27  H   UNL     1      48.983   3.207   6.596  0.00  0.00    +0.000 HD
ATOM     28  H   UNL     1      49.226   1.906   5.483  0.00  0.00    +0.000 HD
ENDBRANCH  21  24
ENDBRANCH  16  18
ENDBRANCH  15  16
ENDBRANCH   2  15
TORSDOF 7
ENDMDL
MODEL 5
REMARK VINA RESULT:    -6.788      2.675      4.049
REMARK INTER + INTRA:         -10.629
REMARK INTER:                  -9.842
REMARK INTRA:                  -0.787
REMARK UNBOUND:                -1.063
REMARK  Name = 
REMARK  9 active torsions:
REMARK  status: ('A' for Active; 'I' for Inactive)
REMARK    1  A    between atoms: C_1  and  C_2
REMARK    2  A    between atoms: C_2  and  C_3
REMARK    3  A    between atoms: C_2  and  C_14
REMARK    4  A    between atoms: C_3  and  N_4
REMARK    5  A    between atoms: N_4  and  C_5
REMARK    6  A    between atoms: C_8  and  C_9
REMARK    7  A    between atoms: C_18  and  O_19
REMARK    8  A    between atoms: O_19  and  C_20
REMARK    9  A    between atoms: N_22  and  C_23
REMARK                            x       y       z     vdW  Elec       q    Type
REMARK                         _______ _______ _______ _____ _____    ______ ____
ROOT
ATOM      1  C   UNL     1      43.385   5.572  12.854  0.00  0.00    +0.000 C 
ATOM      2  C   UNL     1      44.537   5.173  11.914  0.00  0.00    +0.000 C 
ENDROOT
BRANCH   2   3
ATOM      3  C   UNL     1      45.871   5.665  12.480  0.00  0.00    +0.000 A 
ATOM      4  C   UNL     1      46.376   5.149  13.684  0.00  0.00    +0.000 A 
ATOM      5  C   UNL     1      47.619   5.562  14.182  0.00  0.00    +0.000 A 
ATOM      6  C   UNL     1      48.378   6.519  13.498  0.00  0.00    +0.000 A 
ATOM      7  C   UNL     1      47.877   7.063  12.328  0.00  0.00    +0.000 A 
ATOM      8  C   UNL     1      46.642   6.637  11.831  0.00  0.00    +0.000 A 
BRANCH   7   9
ATOM      9  O   UNL     1      48.502   7.974  11.521  0.00  0.00    +0.000 OA
BRANCH   9  10
ATOM     10  C   UNL     1      48.933   9.245  12.042  0.00  0.00    +0.000 C 
ATOM     11  C   UNL     1      48.042   9.981  13.068  0.00  0.00    +0.000 C 
ATOM     12  N   UNL     1      48.081  11.207  12.242  0.00  0.00    +0.000 NA
ATOM     13  C   UNL     1      49.109  12.134  12.714  0.00  0.00    +0.000 C 
ATOM     14  C   UNL     1      48.590  10.425  11.101  0.00  0.00    +0.000 C 
ENDBRANCH   9  10
ENDBRANCH   7   9
ENDBRANCH   2   3
BRANCH   2  15
ATOM     15  C   UNL     1      44.419   3.641  11.660  0.00  0.00    +0.000 C 
BRANCH  15  16
ATOM     16  N   UNL     1      43.874   3.357  10.334  0.00  0.00    +0.000 N 
ATOM     17  H   UNL     1      43.016   2.816  10.354  0.00  0.00    +0.000 HD
BRANCH  16  18
ATOM     18  C   UNL     1      44.705   3.040   9.259  0.00  0.00    +0.000 A 
ATOM     19  C   UNL     1      45.123   4.071   8.410  0.00  0.00    +0.000 A 
ATOM     20  C   UNL     1      46.040   3.845   7.375  0.00  0.00    +0.000 A 
ATOM     21  C   UNL     1      46.594   2.575   7.194  0.00  0.00    +0.000 A 
ATOM     22  C   UNL     1      46.191   1.532   8.031  0.00  0.00    +0.000 A 
ATOM     23  C   UNL     1      45.260   1.769   9.056  0.00  0.00    +0.000 A 
BRANCH  21  24
ATOM     24  C   UNL     1      47.600   2.390   6.119  0.00  0.00    +0.000 C 
ATOM     25  N   UNL     1      48.909   2.632   6.430  0.00  0.00    +0.000 N 
ATOM     26  O   UNL     1      47.276   2.074   4.979  0.00  0.00    +0.000 OA
ATOM     27  H   UNL     1      49.182   3.133   7.265  0.00  0.00    +0.000 HD
ATOM     28  H   UNL     1      49.557   2.635   5.652  0.00  0.00    +0.000 HD
ENDBRANCH  21  24
ENDBRANCH  16  18
ENDBRANCH  15  16
ENDBRANCH   2  15
TORSDOF 7
ENDMDL
MODEL 6
REMARK VINA RESULT:    -6.454      2.511      8.484
REMARK INTER + INTRA:         -10.157
REMARK INTER:                  -9.445
REMARK INTRA:                  -0.712
REMARK UNBOUND:                -1.063
REMARK  Name = 
REMARK  9 active torsions:
REMARK  status: ('A' for Active; 'I' for Inactive)
REMARK    1  A    between atoms: C_1  and  C_2
REMARK    2  A    between atoms: C_2  and  C_3
REMARK    3  A    between atoms: C_2  and  C_14
REMARK    4  A    between atoms: C_3  and  N_4
REMARK    5  A    between atoms: N_4  and  C_5
REMARK    6  A    between atoms: C_8  and  C_9
REMARK    7  A    between atoms: C_18  and  O_19
REMARK    8  A    between atoms: O_19  and  C_20
REMARK    9  A    between atoms: N_22  and  C_23
REMARK                            x       y       z     vdW  Elec       q    Type
REMARK                         _______ _______ _______ _____ _____    ______ ____
ROOT
ATOM      1  C   UNL     1      47.203   6.111  13.426  0.00  0.00    +0.000 C 
ATOM      2  C   UNL     1      46.204   5.050  13.918  0.00  0.00    +0.000 C 
ENDROOT
BRANCH   2   3
ATOM      3  C   UNL     1      45.083   4.868  12.892  0.00  0.00    +0.000 A 
ATOM      4  C   UNL     1      43.928   5.664  12.938  0.00  0.00    +0.000 A 
ATOM      5  C   UNL     1      42.921   5.533  11.972  0.00  0.00    +0.000 A 
ATOM      6  C   UNL     1      43.034   4.585  10.949  0.00  0.00    +0.000 A 
ATOM      7  C   UNL     1      44.152   3.768  10.911  0.00  0.00    +0.000 A 
ATOM      8  C   UNL     1      45.158   3.913  11.870  0.00  0.00    +0.000 A 
BRANCH   7   9
ATOM      9  O   UNL     1      44.436   2.822   9.964  0.00  0.00    +0.000 OA
BRANCH   9  10
ATOM     10  C   UNL     1      45.619   2.929   9.150  0.00  0.00    +0.000 C 
ATOM     11  C   UNL     1      45.526   3.616   7.769  0.00  0.00    +0.000 C 
ATOM     12  N   UNL     1      46.158   2.442   7.128  0.00  0.00    +0.000 NA
ATOM     13  C   UNL     1      47.595   2.643   6.949  0.00  0.00    +0.000 C 
ATOM     14  C   UNL     1      45.905   1.641   8.339  0.00  0.00    +0.000 C 
ENDBRANCH   9  10
ENDBRANCH   7   9
ENDBRANCH   2   3
BRANCH   2  15
ATOM     15  C   UNL     1      47.021   3.774  14.279  0.00  0.00    +0.000 C 
BRANCH  15  16
ATOM     16  N   UNL     1      46.999   3.512  15.718  0.00  0.00    +0.000 N 
ATOM     17  H   UNL     1      46.210   3.932  16.196  0.00  0.00    +0.000 HD
BRANCH  16  18
ATOM     18  C   UNL     1      48.172   3.512  16.473  0.00  0.00    +0.000 A 
ATOM     19  C   UNL     1      48.891   2.317  16.594  0.00  0.00    +0.000 A 
ATOM     20  C   UNL     1      50.128   2.267  17.249  0.00  0.00    +0.000 A 
ATOM     21  C   UNL     1      50.696   3.434  17.766  0.00  0.00    +0.000 A 
ATOM     22  C   UNL     1      49.996   4.637  17.655  0.00  0.00    +0.000 A 
ATOM     23  C   UNL     1      48.749   4.672  17.010  0.00  0.00    +0.000 A 
BRANCH  21  24
ATOM     24  C   UNL     1      52.032   3.346  18.406  0.00  0.00    +0.000 C 
ATOM     25  N   UNL     1      52.190   3.946  19.623  0.00  0.00    +0.000 N 
ATOM     26  O   UNL     1      52.978   2.795  17.852  0.00  0.00    +0.000 OA
ATOM     27  H   UNL     1      51.525   4.617  19.986  0.00  0.00    +0.000 HD
ATOM     28  H   UNL     1      53.138   3.993  19.976  0.00  0.00    +0.000 HD
ENDBRANCH  21  24
ENDBRANCH  16  18
ENDBRANCH  15  16
ENDBRANCH   2  15
TORSDOF 7
ENDMDL
MODEL 7
REMARK VINA RESULT:    -6.347      1.921      8.140
REMARK INTER + INTRA:         -10.007
REMARK INTER:                  -9.356
REMARK INTRA:                  -0.651
REMARK UNBOUND:                -1.063
REMARK  Name = 
REMARK  9 active torsions:
REMARK  status: ('A' for Active; 'I' for Inactive)
REMARK    1  A    between atoms: C_1  and  C_2
REMARK    2  A    between atoms: C_2  and  C_3
REMARK    3  A    between atoms: C_2  and  C_14
REMARK    4  A    between atoms: C_3  and  N_4
REMARK    5  A    between atoms: N_4  and  C_5
REMARK    6  A    between atoms: C_8  and  C_9
REMARK    7  A    between atoms: C_18  and  O_19
REMARK    8  A    between atoms: O_19  and  C_20
REMARK    9  A    between atoms: N_22  and  C_23
REMARK                            x       y       z     vdW  Elec       q    Type
REMARK                         _______ _______ _______ _____ _____    ______ ____
ROOT
ATOM      1  C   UNL     1      44.421   8.047  11.406  0.00  0.00    +0.000 C 
ATOM      2  C   UNL     1      45.204   6.861  11.997  0.00  0.00    +0.000 C 
ENDROOT
BRANCH   2   3
ATOM      3  C   UNL     1      44.933   5.595  11.183  0.00  0.00    +0.000 A 
ATOM      4  C   UNL     1      44.161   4.549  11.713  0.00  0.00    +0.000 A 
ATOM      5  C   UNL     1      43.870   3.407  10.953  0.00  0.00    +0.000 A 
ATOM      6  C   UNL     1      44.365   3.275   9.651  0.00  0.00    +0.000 A 
ATOM      7  C   UNL     1      45.156   4.282   9.126  0.00  0.00    +0.000 A 
ATOM      8  C   UNL     1      45.432   5.423   9.885  0.00  0.00    +0.000 A 
BRANCH   7   9
ATOM      9  O   UNL     1      45.685   4.329   7.865  0.00  0.00    +0.000 OA
BRANCH   9  10
ATOM     10  C   UNL     1      45.947   3.117   7.132  0.00  0.00    +0.000 C 
ATOM     11  C   UNL     1      46.604   1.923   7.859  0.00  0.00    +0.000 C 
ATOM     12  N   UNL     1      47.642   1.838   6.808  0.00  0.00    +0.000 NA
ATOM     13  C   UNL     1      47.302   0.830   5.805  0.00  0.00    +0.000 C 
ATOM     14  C   UNL     1      47.267   3.180   6.326  0.00  0.00    +0.000 C 
ENDBRANCH   9  10
ENDBRANCH   7   9
ENDBRANCH   2   3
BRANCH   2  15
ATOM     15  C   UNL     1      46.694   7.300  12.113  0.00  0.00    +0.000 C 
BRANCH  15  16
ATOM     16  N   UNL     1      47.565   6.168  12.426  0.00  0.00    +0.000 N 
ATOM     17  H   UNL     1      47.548   5.436  11.725  0.00  0.00    +0.000 HD
BRANCH  16  18
ATOM     18  C   UNL     1      47.689   5.687  13.729  0.00  0.00    +0.000 A 
ATOM     19  C   UNL     1      48.403   6.451  14.660  0.00  0.00    +0.000 A 
ATOM     20  C   UNL     1      48.481   6.083  16.009  0.00  0.00    +0.000 A 
ATOM     21  C   UNL     1      47.802   4.951  16.467  0.00  0.00    +0.000 A 
ATOM     22  C   UNL     1      47.083   4.174  15.555  0.00  0.00    +0.000 A 
ATOM     23  C   UNL     1      47.026   4.546  14.202  0.00  0.00    +0.000 A 
BRANCH  21  24
ATOM     24  C   UNL     1      47.868   4.624  17.913  0.00  0.00    +0.000 C 
ATOM     25  N   UNL     1      46.920   5.176  18.729  0.00  0.00    +0.000 N 
ATOM     26  O   UNL     1      48.760   3.922  18.376  0.00  0.00    +0.000 OA
ATOM     27  H   UNL     1      46.338   5.949  18.435  0.00  0.00    +0.000 HD
ATOM     28  H   UNL     1      47.065   5.054  19.724  0.00  0.00    +0.000 HD
ENDBRANCH  21  24
ENDBRANCH  16  18
ENDBRANCH  15  16
ENDBRANCH   2  15
TORSDOF 7
ENDMDL
MODEL 8
REMARK VINA RESULT:    -6.283      3.597      7.736
REMARK INTER + INTRA:          -9.916
REMARK INTER:                  -8.788
REMARK INTRA:                  -1.128
REMARK UNBOUND:                -1.063
REMARK  Name = 
REMARK  9 active torsions:
REMARK  status: ('A' for Active; 'I' for Inactive)
REMARK    1  A    between atoms: C_1  and  C_2
REMARK    2  A    between atoms: C_2  and  C_3
REMARK    3  A    between atoms: C_2  and  C_14
REMARK    4  A    between atoms: C_3  and  N_4
REMARK    5  A    between atoms: N_4  and  C_5
REMARK    6  A    between atoms: C_8  and  C_9
REMARK    7  A    between atoms: C_18  and  O_19
REMARK    8  A    between atoms: O_19  and  C_20
REMARK    9  A    between atoms: N_22  and  C_23
REMARK                            x       y       z     vdW  Elec       q    Type
REMARK                         _______ _______ _______ _____ _____    ______ ____
ROOT
ATOM      1  C   UNL     1      46.673   4.650  14.921  0.00  0.00    +0.000 C 
ATOM      2  C   UNL     1      46.872   4.633  13.395  0.00  0.00    +0.000 C 
ENDROOT
BRANCH   2   3
ATOM      3  C   UNL     1      45.520   4.498  12.691  0.00  0.00    +0.000 A 
ATOM      4  C   UNL     1      44.348   4.995  13.282  0.00  0.00    +0.000 A 
ATOM      5  C   UNL     1      43.114   4.916  12.620  0.00  0.00    +0.000 A 
ATOM      6  C   UNL     1      43.021   4.317  11.358  0.00  0.00    +0.000 A 
ATOM      7  C   UNL     1      44.163   3.791  10.778  0.00  0.00    +0.000 A 
ATOM      8  C   UNL     1      45.391   3.884  11.439  0.00  0.00    +0.000 A 
BRANCH   7   9
ATOM      9  O   UNL     1      44.254   3.210   9.542  0.00  0.00    +0.000 OA
BRANCH   9  10
ATOM     10  C   UNL     1      45.518   3.131   8.858  0.00  0.00    +0.000 C 
ATOM     11  C   UNL     1      45.577   3.433   7.344  0.00  0.00    +0.000 C 
ATOM     12  N   UNL     1      46.270   2.149   7.101  0.00  0.00    +0.000 NA
ATOM     13  C   UNL     1      47.719   2.331   7.028  0.00  0.00    +0.000 C 
ATOM     14  C   UNL     1      45.885   1.684   8.446  0.00  0.00    +0.000 C 
ENDBRANCH   9  10
ENDBRANCH   7   9
ENDBRANCH   2   3
BRANCH   2  15
ATOM     15  C   UNL     1      47.720   5.885  13.024  0.00  0.00    +0.000 C 
BRANCH  15  16
ATOM     16  N   UNL     1      47.238   7.083  13.709  0.00  0.00    +0.000 N 
ATOM     17  H   UNL     1      46.669   6.885  14.525  0.00  0.00    +0.000 HD
BRANCH  16  18
ATOM     18  C   UNL     1      46.816   8.206  12.997  0.00  0.00    +0.000 A 
ATOM     19  C   UNL     1      45.445   8.377  12.769  0.00  0.00    +0.000 A 
ATOM     20  C   UNL     1      44.940   9.530  12.154  0.00  0.00    +0.000 A 
ATOM     21  C   UNL     1      45.804  10.566  11.790  0.00  0.00    +0.000 A 
ATOM     22  C   UNL     1      47.175  10.415  12.009  0.00  0.00    +0.000 A 
ATOM     23  C   UNL     1      47.670   9.248  12.613  0.00  0.00    +0.000 A 
BRANCH  21  24
ATOM     24  C   UNL     1      45.223  11.792  11.188  0.00  0.00    +0.000 C 
ATOM     25  N   UNL     1      44.708  12.729  12.039  0.00  0.00    +0.000 N 
ATOM     26  O   UNL     1      45.163  11.948   9.973  0.00  0.00    +0.000 OA
ATOM     27  H   UNL     1      44.507  12.526  13.009  0.00  0.00    +0.000 HD
ATOM     28  H   UNL     1      44.195  13.487  11.605  0.00  0.00    +0.000 HD
ENDBRANCH  21  24
ENDBRANCH  16  18
ENDBRANCH  15  16
ENDBRANCH   2  15
TORSDOF 7
ENDMDL
MODEL 9
REMARK VINA RESULT:    -6.079      2.999      5.121
REMARK INTER + INTRA:          -9.630
REMARK INTER:                  -8.890
REMARK INTRA:                  -0.740
REMARK UNBOUND:                -1.063
REMARK  Name = 
REMARK  9 active torsions:
REMARK  status: ('A' for Active; 'I' for Inactive)
REMARK    1  A    between atoms: C_1  and  C_2
REMARK    2  A    between atoms: C_2  and  C_3
REMARK    3  A    between atoms: C_2  and  C_14
REMARK    4  A    between atoms: C_3  and  N_4
REMARK    5  A    between atoms: N_4  and  C_5
REMARK    6  A    between atoms: C_8  and  C_9
REMARK    7  A    between atoms: C_18  and  O_19
REMARK    8  A    between atoms: O_19  and  C_20
REMARK    9  A    between atoms: N_22  and  C_23
REMARK                            x       y       z     vdW  Elec       q    Type
REMARK                         _______ _______ _______ _____ _____    ______ ____
ROOT
ATOM      1  C   UNL     1      50.535   8.110  14.237  0.00  0.00    +0.000 C 
ATOM      2  C   UNL     1      49.256   7.256  14.304  0.00  0.00    +0.000 C 
ENDROOT
BRANCH   2   3
ATOM      3  C   UNL     1      48.882   6.983  15.763  0.00  0.00    +0.000 A 
ATOM      4  C   UNL     1      48.806   8.030  16.694  0.00  0.00    +0.000 A 
ATOM      5  C   UNL     1      48.419   7.791  18.020  0.00  0.00    +0.000 A 
ATOM      6  C   UNL     1      48.118   6.494  18.451  0.00  0.00    +0.000 A 
ATOM      7  C   UNL     1      48.222   5.446  17.552  0.00  0.00    +0.000 A 
ATOM      8  C   UNL     1      48.598   5.693  16.229  0.00  0.00    +0.000 A 
BRANCH   7   9
ATOM      9  O   UNL     1      47.930   4.132  17.798  0.00  0.00    +0.000 OA
BRANCH   9  10
ATOM     10  C   UNL     1      48.983   3.167  17.984  0.00  0.00    +0.000 C 
ATOM     11  C   UNL     1      50.446   3.587  17.720  0.00  0.00    +0.000 C 
ATOM     12  N   UNL     1      50.630   2.426  16.821  0.00  0.00    +0.000 NA
ATOM     13  C   UNL     1      51.250   1.303  17.522  0.00  0.00    +0.000 C 
ATOM     14  C   UNL     1      49.169   2.241  16.758  0.00  0.00    +0.000 C 
ENDBRANCH   9  10
ENDBRANCH   7   9
ENDBRANCH   2   3
BRANCH   2  15
ATOM     15  C   UNL     1      48.176   7.968  13.437  0.00  0.00    +0.000 C 
BRANCH  15  16
ATOM     16  N   UNL     1      46.838   7.448  13.713  0.00  0.00    +0.000 N 
ATOM     17  H   UNL     1      46.622   7.382  14.702  0.00  0.00    +0.000 HD
BRANCH  16  18
ATOM     18  C   UNL     1      46.291   6.413  12.955  0.00  0.00    +0.000 A 
ATOM     19  C   UNL     1      46.132   5.157  13.553  0.00  0.00    +0.000 A 
ATOM     20  C   UNL     1      45.496   4.101  12.888  0.00  0.00    +0.000 A 
ATOM     21  C   UNL     1      44.962   4.297  11.611  0.00  0.00    +0.000 A 
ATOM     22  C   UNL     1      45.109   5.542  10.997  0.00  0.00    +0.000 A 
ATOM     23  C   UNL     1      45.762   6.588  11.668  0.00  0.00    +0.000 A 
BRANCH  21  24
ATOM     24  C   UNL     1      44.251   3.167  10.963  0.00  0.00    +0.000 C 
ATOM     25  N   UNL     1      44.945   2.424  10.050  0.00  0.00    +0.000 N 
ATOM     26  O   UNL     1      43.071   2.927  11.199  0.00  0.00    +0.000 OA
ATOM     27  H   UNL     1      45.816   2.742   9.645  0.00  0.00    +0.000 HD
ATOM     28  H   UNL     1      44.403   1.751   9.521  0.00  0.00    +0.000 HD
ENDBRANCH  21  24
ENDBRANCH  16  18
ENDBRANCH  15  16
ENDBRANCH   2  15
TORSDOF 7
ENDMDL
