MODEL 1
REMARK VINA RESULT:    -6.669      0.000      0.000
REMARK INTER + INTRA:         -10.015
REMARK INTER:                  -9.204
REMARK INTRA:                  -0.811
REMARK UNBOUND:                -0.811
REMARK  Name = 
REMARK  7 active torsions:
REMARK  status: ('A' for Active; 'I' for Inactive)
REMARK    1  A    between atoms: N_1  and  C_2
REMARK    2  A    between atoms: C_2  and  C_3
REMARK    3  A    between atoms: C_7  and  O_8
REMARK    4  A    between atoms: O_8  and  C_9
REMARK    5  A    between atoms: C_9  and  C_10
REMARK    6  A    between atoms: C_10  and  O_11
REMARK    7  A    between atoms: O_11  and  C_12
REMARK                            x       y       z     vdW  Elec       q    Type
REMARK                         _______ _______ _______ _____ _____    ______ ____
ROOT
ATOM      1  O   UNL     1      43.890   2.328  10.253  0.00  0.00    +0.000 OA
ENDROOT
BRANCH   1   6
ATOM      2  C   UNL     1      46.517   2.272   7.737  0.00  0.00    +0.000 A 
ATOM      3  C   UNL     1      46.666   3.631   7.438  0.00  0.00    +0.000 A 
ATOM      4  C   UNL     1      45.880   4.587   8.082  0.00  0.00    +0.000 A 
ATOM      5  C   UNL     1      44.934   4.196   9.031  0.00  0.00    +0.000 A 
ATOM      6  C   UNL     1      44.772   2.848   9.345  0.00  0.00    +0.000 A 
ATOM      7  C   UNL     1      45.564   1.894   8.696  0.00  0.00    +0.000 A 
BRANCH   2   8
ATOM      8  C   UNL     1      47.351   1.237   7.025  0.00  0.00    +0.000 C 
BRANCH   8   9
ATOM      9  N   UNL     1      48.482   1.843   6.333  0.00  0.00    +0.000 NA
ATOM     10  H   UNL     1      48.738   1.260   5.539  0.00  0.00    +0.000 HD
ATOM     11  H   UNL     1      49.285   1.844   6.962  0.00  0.00    +0.000 HD
ENDBRANCH   8   9
ENDBRANCH   2   8
ENDBRANCH   1   6
BRANCH   1  12
ATOM     12  C   UNL     1      43.339   3.201  11.240  0.00  0.00    +0.000 C 
BRANCH  12  13
ATOM     13  C   UNL     1      44.151   3.150  12.533  0.00  0.00    +0.000 C 
BRANCH  13  14
ATOM     14  O   UNL     1      44.180   4.457  13.105  0.00  0.00    +0.000 OA
BRANCH  14  15
ATOM     15  C   UNL     1      45.292   5.225  12.875  0.00  0.00    +0.000 A 
ATOM     16  C   UNL     1      46.557   4.973  13.419  0.00  0.00    +0.000 A 
ATOM     17  C   UNL     1      47.640   5.806  13.120  0.00  0.00    +0.000 A 
ATOM     18  C   UNL     1      47.470   6.902  12.276  0.00  0.00    +0.000 A 
ATOM     19  C   UNL     1      46.214   7.171  11.734  0.00  0.00    +0.000 A 
ATOM     20  C   UNL     1      45.132   6.338  12.034  0.00  0.00    +0.000 A 
ATOM     21 CL   UNL     1      43.596   6.726  11.336  0.00  0.00    +0.000 Cl
ENDBRANCH  14  15
ENDBRANCH  13  14
ENDBRANCH  12  13
ENDBRANCH   1  12
TORSDOF 7
ENDMDL
MODEL 2
REMARK VINA RESULT:    -6.286      1.495      1.850
REMARK INTER + INTRA:          -9.485
REMARK INTER:                  -8.962
REMARK INTRA:                  -0.523
REMARK UNBOUND:                -0.811
REMARK  Name = 
REMARK  7 active torsions:
REMARK  status: ('A' for Active; 'I' for Inactive)
REMARK    1  A    between atoms: N_1  and  C_2
REMARK    2  A    between atoms: C_2  and  C_3
REMARK    3  A    between atoms: C_7  and  O_8
REMARK    4  A    between atoms: O_8  and  C_9
REMARK    5  A    between atoms: C_9  and  C_10
REMARK    6  A    between atoms: C_10  and  O_11
REMARK    7  A    between atoms: O_11  and  C_12
REMARK                            x       y       z     vdW  Elec       q    Type
REMARK                         _______ _______ _______ _____ _____    ______ ____
ROOT
ATOM      1  O   UNL     1      43.978   2.477  10.355  0.00  0.00    +0.000 OA
ENDROOT
BRANCH   1   6
ATOM      2  C   UNL     1      46.470   2.167   7.722  0.00  0.00    +0.000 A 
ATOM      3  C   UNL     1      46.615   3.493   7.297  0.00  0.00    +0.000 A 
ATOM      4  C   UNL     1      45.872   4.511   7.895  0.00  0.00    +0.000 A 
ATOM      5  C   UNL     1      44.974   4.217   8.921  0.00  0.00    +0.000 A 
ATOM      6  C   UNL     1      44.816   2.904   9.361  0.00  0.00    +0.000 A 
ATOM      7  C   UNL     1      45.565   1.886   8.757  0.00  0.00    +0.000 A 
BRANCH   2   8
ATOM      8  C   UNL     1      47.256   1.063   7.062  0.00  0.00    +0.000 C 
BRANCH   8   9
ATOM      9  N   UNL     1      48.372   1.589   6.284  0.00  0.00    +0.000 NA
ATOM     10  H   UNL     1      48.009   2.069   5.463  0.00  0.00    +0.000 HD
ATOM     11  H   UNL     1      48.926   0.806   5.940  0.00  0.00    +0.000 HD
ENDBRANCH   8   9
ENDBRANCH   2   8
ENDBRANCH   1   6
BRANCH   1  12
ATOM     12  C   UNL     1      43.352   3.459  11.181  0.00  0.00    +0.000 C 
BRANCH  12  13
ATOM     13  C   UNL     1      44.007   3.515  12.560  0.00  0.00    +0.000 C 
BRANCH  13  14
ATOM     14  O   UNL     1      45.422   3.581  12.391  0.00  0.00    +0.000 OA
BRANCH  14  15
ATOM     15  C   UNL     1      46.033   4.787  12.620  0.00  0.00    +0.000 A 
ATOM     16  C   UNL     1      45.816   5.942  11.861  0.00  0.00    +0.000 A 
ATOM     17  C   UNL     1      46.478   7.134  12.176  0.00  0.00    +0.000 A 
ATOM     18  C   UNL     1      47.365   7.184  13.249  0.00  0.00    +0.000 A 
ATOM     19  C   UNL     1      47.598   6.037  14.007  0.00  0.00    +0.000 A 
ATOM     20  C   UNL     1      46.938   4.845  13.693  0.00  0.00    +0.000 A 
ATOM     21 CL   UNL     1      47.272   3.455  14.666  0.00  0.00    +0.000 Cl
ENDBRANCH  14  15
ENDBRANCH  13  14
ENDBRANCH  12  13
ENDBRANCH   1  12
TORSDOF 7
ENDMDL
MODEL 3
REMARK VINA RESULT:    -6.083      2.655      6.090
REMARK INTER + INTRA:          -9.205
REMARK INTER:                  -8.943
REMARK INTRA:                  -0.262
REMARK UNBOUND:                -0.811
REMARK  Name = 
REMARK  7 active torsions:
REMARK  status: ('A' for Active; 'I' for Inactive)
REMARK    1  A    between atoms: N_1  and  C_2
REMARK    2  A    between atoms: C_2  and  C_3
REMARK    3  A    between atoms: C_7  and  O_8
REMARK    4  A    between atoms: O_8  and  C_9
REMARK    5  A    between atoms: C_9  and  C_10
REMARK    6  A    between atoms: C_10  and  O_11
REMARK    7  A    between atoms: O_11  and  C_12
REMARK                            x       y       z     vdW  Elec       q    Type
REMARK                         _______ _______ _______ _____ _____    ______ ____
ROOT
ATOM      1  O   UNL     1      44.197   5.828  11.231  0.00  0.00    +0.000 OA
ENDROOT
BRANCH   1   6
ATOM      2  C   UNL     1      46.706   5.406  13.831  0.00  0.00    +0.000 A 
ATOM      3  C   UNL     1      47.531   6.519  13.628  0.00  0.00    +0.000 A 
ATOM      4  C   UNL     1      47.250   7.428  12.608  0.00  0.00    +0.000 A 
ATOM      5  C   UNL     1      46.146   7.235  11.778  0.00  0.00    +0.000 A 
ATOM      6  C   UNL     1      45.310   6.135  11.965  0.00  0.00    +0.000 A 
ATOM      7  C   UNL     1      45.597   5.227  12.991  0.00  0.00    +0.000 A 
BRANCH   2   8
ATOM      8  C   UNL     1      47.021   4.411  14.920  0.00  0.00    +0.000 C 
BRANCH   8   9
ATOM      9  N   UNL     1      47.383   3.110  14.369  0.00  0.00    +0.000 NA
ATOM     10  H   UNL     1      47.853   3.244  13.477  0.00  0.00    +0.000 HD
ATOM     11  H   UNL     1      46.528   2.591  14.172  0.00  0.00    +0.000 HD
ENDBRANCH   8   9
ENDBRANCH   2   8
ENDBRANCH   1   6
BRANCH   1  12
ATOM     12  C   UNL     1      44.265   4.727  10.324  0.00  0.00    +0.000 C 
BRANCH  12  13
ATOM     13  C   UNL     1      45.368   4.937   9.287  0.00  0.00    +0.000 C 
BRANCH  13  14
ATOM     14  O   UNL     1      45.035   4.199   8.112  0.00  0.00    +0.000 OA
BRANCH  14  15
ATOM     15  C   UNL     1      45.933   3.257   7.679  0.00  0.00    +0.000 A 
ATOM     16  C   UNL     1      46.974   3.509   6.779  0.00  0.00    +0.000 A 
ATOM     17  C   UNL     1      47.850   2.486   6.401  0.00  0.00    +0.000 A 
ATOM     18  C   UNL     1      47.695   1.201   6.917  0.00  0.00    +0.000 A 
ATOM     19  C   UNL     1      46.657   0.934   7.808  0.00  0.00    +0.000 A 
ATOM     20  C   UNL     1      45.780   1.956   8.185  0.00  0.00    +0.000 A 
ATOM     21 CL   UNL     1      44.507   1.562   9.290  0.00  0.00    +0.000 Cl
ENDBRANCH  14  15
ENDBRANCH  13  14
ENDBRANCH  12  13
ENDBRANCH   1  12
TORSDOF 7
ENDMDL
MODEL 4
REMARK VINA RESULT:    -5.925      3.506      6.764
REMARK INTER + INTRA:          -8.987
REMARK INTER:                  -8.572
REMARK INTRA:                  -0.415
REMARK UNBOUND:                -0.811
REMARK  Name = 
REMARK  7 active torsions:
REMARK  status: ('A' for Active; 'I' for Inactive)
REMARK    1  A    between atoms: N_1  and  C_2
REMARK    2  A    between atoms: C_2  and  C_3
REMARK    3  A    between atoms: C_7  and  O_8
REMARK    4  A    between atoms: O_8  and  C_9
REMARK    5  A    between atoms: C_9  and  C_10
REMARK    6  A    between atoms: C_10  and  O_11
REMARK    7  A    between atoms: O_11  and  C_12
REMARK                            x       y       z     vdW  Elec       q    Type
REMARK                         _______ _______ _______ _____ _____    ______ ____
ROOT
ATOM      1  O   UNL     1      46.365   5.049  13.345  0.00  0.00    +0.000 OA
ENDROOT
BRANCH   1   6
ATOM      2  C   UNL     1      47.968   4.468  16.559  0.00  0.00    +0.000 A 
ATOM      3  C   UNL     1      48.821   5.573  16.666  0.00  0.00    +0.000 A 
ATOM      4  C   UNL     1      48.867   6.531  15.652  0.00  0.00    +0.000 A 
ATOM      5  C   UNL     1      48.064   6.394  14.519  0.00  0.00    +0.000 A 
ATOM      6  C   UNL     1      47.206   5.303  14.394  0.00  0.00    +0.000 A 
ATOM      7  C   UNL     1      47.163   4.346  15.416  0.00  0.00    +0.000 A 
BRANCH   2   8
ATOM      8  C   UNL     1      47.933   3.422  17.644  0.00  0.00    +0.000 C 
BRANCH   8   9
ATOM      9  N   UNL     1      46.612   2.817  17.765  0.00  0.00    +0.000 NA
ATOM     10  H   UNL     1      46.068   3.036  16.933  0.00  0.00    +0.000 HD
ATOM     11  H   UNL     1      46.127   3.250  18.550  0.00  0.00    +0.000 HD
ENDBRANCH   8   9
ENDBRANCH   2   8
ENDBRANCH   1   6
BRANCH   1  12
ATOM     12  C   UNL     1      45.522   6.104  12.880  0.00  0.00    +0.000 C 
BRANCH  12  13
ATOM     13  C   UNL     1      45.555   6.202  11.355  0.00  0.00    +0.000 C 
BRANCH  13  14
ATOM     14  O   UNL     1      44.533   5.363  10.822  0.00  0.00    +0.000 OA
BRANCH  14  15
ATOM     15  C   UNL     1      44.899   4.442   9.874  0.00  0.00    +0.000 A 
ATOM     16  C   UNL     1      45.676   4.731   8.746  0.00  0.00    +0.000 A 
ATOM     17  C   UNL     1      46.011   3.723   7.835  0.00  0.00    +0.000 A 
ATOM     18  C   UNL     1      45.571   2.417   8.040  0.00  0.00    +0.000 A 
ATOM     19  C   UNL     1      44.789   2.117   9.154  0.00  0.00    +0.000 A 
ATOM     20  C   UNL     1      44.453   3.124  10.064  0.00  0.00    +0.000 A 
ATOM     21 CL   UNL     1      43.475   2.692  11.424  0.00  0.00    +0.000 Cl
ENDBRANCH  14  15
ENDBRANCH  13  14
ENDBRANCH  12  13
ENDBRANCH   1  12
TORSDOF 7
ENDMDL
MODEL 5
REMARK VINA RESULT:    -5.809      3.213      6.380
REMARK INTER + INTRA:          -8.827
REMARK INTER:                  -8.693
REMARK INTRA:                  -0.134
REMARK UNBOUND:                -0.811
REMARK  Name = 
REMARK  7 active torsions:
REMARK  status: ('A' for Active; 'I' for Inactive)
REMARK    1  A    between atoms: N_1  and  C_2
REMARK    2  A    between atoms: C_2  and  C_3
REMARK    3  A    between atoms: C_7  and  O_8
REMARK    4  A    between atoms: O_8  and  C_9
REMARK    5  A    between atoms: C_9  and  C_10
REMARK    6  A    between atoms: C_10  and  O_11
REMARK    7  A    between atoms: O_11  and  C_12
REMARK                            x       y       z     vdW  Elec       q    Type
REMARK                         _______ _______ _______ _____ _____    ______ ____
ROOT
ATOM      1  O   UNL     1      43.733   3.837  10.508  0.00  0.00    +0.000 OA
ENDROOT
BRANCH   1   6
ATOM      2  C   UNL     1      45.826   5.083  13.210  0.00  0.00    +0.000 A 
ATOM      3  C   UNL     1      45.686   6.470  13.075  0.00  0.00    +0.000 A 
ATOM      4  C   UNL     1      44.882   7.003  12.067  0.00  0.00    +0.000 A 
ATOM      5  C   UNL     1      44.211   6.159  11.182  0.00  0.00    +0.000 A 
ATOM      6  C   UNL     1      44.335   4.776  11.301  0.00  0.00    +0.000 A 
ATOM      7  C   UNL     1      45.143   4.246  12.315  0.00  0.00    +0.000 A 
BRANCH   2   8
ATOM      8  C   UNL     1      46.712   4.507  14.285  0.00  0.00    +0.000 C 
BRANCH   8   9
ATOM      9  N   UNL     1      47.706   5.473  14.737  0.00  0.00    +0.000 NA
ATOM     10  H   UNL     1      48.009   5.225  15.676  0.00  0.00    +0.000 HD
ATOM     11  H   UNL     1      47.261   6.388  14.809  0.00  0.00    +0.000 HD
ENDBRANCH   8   9
ENDBRANCH   2   8
ENDBRANCH   1   6
BRANCH   1  12
ATOM     12  C   UNL     1      44.325   3.537   9.244  0.00  0.00    +0.000 C 
BRANCH  12  13
ATOM     13  C   UNL     1      44.671   2.052   9.138  0.00  0.00    +0.000 C 
BRANCH  13  14
ATOM     14  O   UNL     1      46.068   1.927   8.878  0.00  0.00    +0.000 OA
BRANCH  14  15
ATOM     15  C   UNL     1      46.487   2.070   7.580  0.00  0.00    +0.000 A 
ATOM     16  C   UNL     1      46.540   3.288   6.893  0.00  0.00    +0.000 A 
ATOM     17  C   UNL     1      46.993   3.340   5.570  0.00  0.00    +0.000 A 
ATOM     18  C   UNL     1      47.396   2.176   4.919  0.00  0.00    +0.000 A 
ATOM     19  C   UNL     1      47.340   0.954   5.589  0.00  0.00    +0.000 A 
ATOM     20  C   UNL     1      46.886   0.902   6.910  0.00  0.00    +0.000 A 
ATOM     21 CL   UNL     1      46.834  -0.644   7.686  0.00  0.00    +0.000 Cl
ENDBRANCH  14  15
ENDBRANCH  13  14
ENDBRANCH  12  13
ENDBRANCH   1  12
TORSDOF 7
ENDMDL
MODEL 6
REMARK VINA RESULT:    -5.733      2.708      5.804
REMARK INTER + INTRA:          -8.722
REMARK INTER:                  -8.015
REMARK INTRA:                  -0.707
REMARK UNBOUND:                -0.811
REMARK  Name = 
REMARK  7 active torsions:
REMARK  status: ('A' for Active; 'I' for Inactive)
REMARK    1  A    between atoms: N_1  and  C_2
REMARK    2  A    between atoms: C_2  and  C_3
REMARK    3  A    between atoms: C_7  and  O_8
REMARK    4  A    between atoms: O_8  and  C_9
REMARK    5  A    between atoms: C_9  and  C_10
REMARK    6  A    between atoms: C_10  and  O_11
REMARK    7  A    between atoms: O_11  and  C_12
REMARK                            x       y       z     vdW  Elec       q    Type
REMARK                         _______ _______ _______ _____ _____    ______ ____
ROOT
ATOM      1  O   UNL     1      44.744   4.068  13.310  0.00  0.00    +0.000 OA
ENDROOT
BRANCH   1   6
ATOM      2  C   UNL     1      45.625   7.484  12.421  0.00  0.00    +0.000 A 
ATOM      3  C   UNL     1      46.948   7.573  12.871  0.00  0.00    +0.000 A 
ATOM      4  C   UNL     1      47.561   6.479  13.482  0.00  0.00    +0.000 A 
ATOM      5  C   UNL     1      46.860   5.285  13.653  0.00  0.00    +0.000 A 
ATOM      6  C   UNL     1      45.543   5.175  13.210  0.00  0.00    +0.000 A 
ATOM      7  C   UNL     1      44.934   6.276  12.597  0.00  0.00    +0.000 A 
BRANCH   2   8
ATOM      8  C   UNL     1      44.955   8.673  11.780  0.00  0.00    +0.000 C 
BRANCH   8   9
ATOM      9  N   UNL     1      44.750   9.754  12.737  0.00  0.00    +0.000 NA
ATOM     10  H   UNL     1      43.826  10.154  12.594  0.00  0.00    +0.000 HD
ATOM     11  H   UNL     1      45.421  10.496  12.537  0.00  0.00    +0.000 HD
ENDBRANCH   8   9
ENDBRANCH   2   8
ENDBRANCH   1   6
BRANCH   1  12
ATOM     12  C   UNL     1      44.871   3.048  12.320  0.00  0.00    +0.000 C 
BRANCH  12  13
ATOM     13  C   UNL     1      43.576   2.888  11.525  0.00  0.00    +0.000 C 
BRANCH  13  14
ATOM     14  O   UNL     1      43.728   3.543  10.268  0.00  0.00    +0.000 OA
BRANCH  14  15
ATOM     15  C   UNL     1      44.652   3.030   9.393  0.00  0.00    +0.000 A 
ATOM     16  C   UNL     1      44.757   1.677   9.054  0.00  0.00    +0.000 A 
ATOM     17  C   UNL     1      45.725   1.245   8.142  0.00  0.00    +0.000 A 
ATOM     18  C   UNL     1      46.601   2.160   7.561  0.00  0.00    +0.000 A 
ATOM     19  C   UNL     1      46.514   3.509   7.897  0.00  0.00    +0.000 A 
ATOM     20  C   UNL     1      45.547   3.942   8.809  0.00  0.00    +0.000 A 
ATOM     21 CL   UNL     1      45.491   5.629   9.191  0.00  0.00    +0.000 Cl
ENDBRANCH  14  15
ENDBRANCH  13  14
ENDBRANCH  12  13
ENDBRANCH   1  12
TORSDOF 7
ENDMDL
MODEL 7
REMARK VINA RESULT:    -5.467      5.318      6.704
REMARK INTER + INTRA:          -8.356
REMARK INTER:                  -8.071
REMARK INTRA:                  -0.284
REMARK UNBOUND:                -0.811
REMARK  Name = 
REMARK  7 active torsions:
REMARK  status: ('A' for Active; 'I' for Inactive)
REMARK    1  A    between atoms: N_1  and  C_2
REMARK    2  A    between atoms: C_2  and  C_3
REMARK    3  A    between atoms: C_7  and  O_8
REMARK    4  A    between atoms: O_8  and  C_9
REMARK    5  A    between atoms: C_9  and  C_10
REMARK    6  A    between atoms: C_10  and  O_11
REMARK    7  A    between atoms: O_11  and  C_12
REMARK                            x       y       z     vdW  Elec       q    Type
REMARK                         _______ _______ _______ _____ _____    ______ ____
ROOT
ATOM      1  O   UNL     1      47.003   3.357  14.402  0.00  0.00    +0.000 OA
ENDROOT
BRANCH   1   6
ATOM      2  C   UNL     1      45.011   4.161  11.466  0.00  0.00    +0.000 A 
ATOM      3  C   UNL     1      45.405   5.477  11.195  0.00  0.00    +0.000 A 
ATOM      4  C   UNL     1      46.350   6.111  12.001  0.00  0.00    +0.000 A 
ATOM      5  C   UNL     1      46.911   5.441  13.089  0.00  0.00    +0.000 A 
ATOM      6  C   UNL     1      46.533   4.130  13.375  0.00  0.00    +0.000 A 
ATOM      7  C   UNL     1      45.585   3.498  12.561  0.00  0.00    +0.000 A 
BRANCH   2   8
ATOM      8  C   UNL     1      43.973   3.483  10.608  0.00  0.00    +0.000 C 
BRANCH   8   9
ATOM      9  N   UNL     1      42.906   2.902  11.415  0.00  0.00    +0.000 NA
ATOM     10  H   UNL     1      43.286   2.143  11.975  0.00  0.00    +0.000 HD
ATOM     11  H   UNL     1      42.217   2.484  10.790  0.00  0.00    +0.000 HD
ENDBRANCH   8   9
ENDBRANCH   2   8
ENDBRANCH   1   6
BRANCH   1  12
ATOM     12  C   UNL     1      47.339   3.997  15.633  0.00  0.00    +0.000 C 
BRANCH  12  13
ATOM     13  C   UNL     1      48.157   3.069  16.530  0.00  0.00    +0.000 C 
BRANCH  13  14
ATOM     14  O   UNL     1      49.203   3.826  17.136  0.00  0.00    +0.000 OA
BRANCH  14  15
ATOM     15  C   UNL     1      50.394   3.188  17.370  0.00  0.00    +0.000 A 
ATOM     16  C   UNL     1      50.586   1.805  17.270  0.00  0.00    +0.000 A 
ATOM     17  C   UNL     1      51.843   1.242  17.517  0.00  0.00    +0.000 A 
ATOM     18  C   UNL     1      52.920   2.053  17.869  0.00  0.00    +0.000 A 
ATOM     19  C   UNL     1      52.740   3.430  17.982  0.00  0.00    +0.000 A 
ATOM     20  C   UNL     1      51.485   3.994  17.736  0.00  0.00    +0.000 A 
ATOM     21 CL   UNL     1      51.323   5.709  17.897  0.00  0.00    +0.000 Cl
ENDBRANCH  14  15
ENDBRANCH  13  14
ENDBRANCH  12  13
ENDBRANCH   1  12
TORSDOF 7
ENDMDL
MODEL 8
REMARK VINA RESULT:    -5.303      2.418      3.505
REMARK INTER + INTRA:          -8.130
REMARK INTER:                  -7.676
REMARK INTRA:                  -0.453
REMARK UNBOUND:                -0.811
REMARK  Name = 
REMARK  7 active torsions:
REMARK  status: ('A' for Active; 'I' for Inactive)
REMARK    1  A    between atoms: N_1  and  C_2
REMARK    2  A    between atoms: C_2  and  C_3
REMARK    3  A    between atoms: C_7  and  O_8
REMARK    4  A    between atoms: O_8  and  C_9
REMARK    5  A    between atoms: C_9  and  C_10
REMARK    6  A    between atoms: C_10  and  O_11
REMARK    7  A    between atoms: O_11  and  C_12
REMARK                            x       y       z     vdW  Elec       q    Type
REMARK                         _______ _______ _______ _____ _____    ______ ____
ROOT
ATOM      1  O   UNL     1      45.267   6.177  10.632  0.00  0.00    +0.000 OA
ENDROOT
BRANCH   1   6
ATOM      2  C   UNL     1      45.515   3.484   8.198  0.00  0.00    +0.000 A 
ATOM      3  C   UNL     1      44.832   2.444   8.840  0.00  0.00    +0.000 A 
ATOM      4  C   UNL     1      44.278   2.638  10.106  0.00  0.00    +0.000 A 
ATOM      5  C   UNL     1      44.402   3.872  10.746  0.00  0.00    +0.000 A 
ATOM      6  C   UNL     1      45.076   4.921  10.123  0.00  0.00    +0.000 A 
ATOM      7  C   UNL     1      45.628   4.720   8.852  0.00  0.00    +0.000 A 
BRANCH   2   8
ATOM      8  C   UNL     1      46.132   3.268   6.840  0.00  0.00    +0.000 C 
BRANCH   8   9
ATOM      9  N   UNL     1      47.580   3.440   6.875  0.00  0.00    +0.000 NA
ATOM     10  H   UNL     1      47.853   4.107   6.157  0.00  0.00    +0.000 HD
ATOM     11  H   UNL     1      48.018   2.553   6.628  0.00  0.00    +0.000 HD
ENDBRANCH   8   9
ENDBRANCH   2   8
ENDBRANCH   1   6
BRANCH   1  12
ATOM     12  C   UNL     1      44.851   6.436  11.973  0.00  0.00    +0.000 C 
BRANCH  12  13
ATOM     13  C   UNL     1      45.962   7.118  12.771  0.00  0.00    +0.000 C 
BRANCH  13  14
ATOM     14  O   UNL     1      47.070   6.225  12.863  0.00  0.00    +0.000 OA
BRANCH  14  15
ATOM     15  C   UNL     1      47.376   5.718  14.100  0.00  0.00    +0.000 A 
ATOM     16  C   UNL     1      46.827   4.547  14.635  0.00  0.00    +0.000 A 
ATOM     17  C   UNL     1      47.206   4.098  15.904  0.00  0.00    +0.000 A 
ATOM     18  C   UNL     1      48.137   4.815  16.654  0.00  0.00    +0.000 A 
ATOM     19  C   UNL     1      48.685   5.988  16.137  0.00  0.00    +0.000 A 
ATOM     20  C   UNL     1      48.305   6.438  14.869  0.00  0.00    +0.000 A 
ATOM     21 CL   UNL     1      49.015   7.903  14.284  0.00  0.00    +0.000 Cl
ENDBRANCH  14  15
ENDBRANCH  13  14
ENDBRANCH  12  13
ENDBRANCH   1  12
TORSDOF 7
ENDMDL
MODEL 9
REMARK VINA RESULT:    -5.263      3.272      4.786
REMARK INTER + INTRA:          -8.074
REMARK INTER:                  -7.449
REMARK INTRA:                  -0.625
REMARK UNBOUND:                -0.811
REMARK  Name = 
REMARK  7 active torsions:
REMARK  status: ('A' for Active; 'I' for Inactive)
REMARK    1  A    between atoms: N_1  and  C_2
REMARK    2  A    between atoms: C_2  and  C_3
REMARK    3  A    between atoms: C_7  and  O_8
REMARK    4  A    between atoms: O_8  and  C_9
REMARK    5  A    between atoms: C_9  and  C_10
REMARK    6  A    between atoms: C_10  and  O_11
REMARK    7  A    between atoms: O_11  and  C_12
REMARK                            x       y       z     vdW  Elec       q    Type
REMARK                         _______ _______ _______ _____ _____    ______ ____
ROOT
ATOM      1  O   UNL     1      46.390   6.831  11.359  0.00  0.00    +0.000 OA
ENDROOT
BRANCH   1   6
ATOM      2  C   UNL     1      44.395   3.790  11.262  0.00  0.00    +0.000 A 
ATOM      3  C   UNL     1      44.431   3.458   9.902  0.00  0.00    +0.000 A 
ATOM      4  C   UNL     1      45.131   4.258   8.998  0.00  0.00    +0.000 A 
ATOM      5  C   UNL     1      45.800   5.400   9.441  0.00  0.00    +0.000 A 
ATOM      6  C   UNL     1      45.778   5.747  10.791  0.00  0.00    +0.000 A 
ATOM      7  C   UNL     1      45.075   4.939  11.693  0.00  0.00    +0.000 A 
BRANCH   2   8
ATOM      8  C   UNL     1      43.621   2.938  12.235  0.00  0.00    +0.000 C 
BRANCH   8   9
ATOM      9  N   UNL     1      42.903   1.865  11.557  0.00  0.00    +0.000 NA
ATOM     10  H   UNL     1      43.279   0.969  11.859  0.00  0.00    +0.000 HD
ATOM     11  H   UNL     1      43.087   1.933  10.556  0.00  0.00    +0.000 HD
ENDBRANCH   8   9
ENDBRANCH   2   8
ENDBRANCH   1   6
BRANCH   1  12
ATOM     12  C   UNL     1      46.255   7.024  12.768  0.00  0.00    +0.000 C 
BRANCH  12  13
ATOM     13  C   UNL     1      47.603   7.353  13.409  0.00  0.00    +0.000 C 
BRANCH  13  14
ATOM     14  O   UNL     1      48.246   6.132  13.770  0.00  0.00    +0.000 OA
BRANCH  14  15
ATOM     15  C   UNL     1      48.156   5.731  15.078  0.00  0.00    +0.000 A 
ATOM     16  C   UNL     1      48.635   6.468  16.168  0.00  0.00    +0.000 A 
ATOM     17  C   UNL     1      48.489   5.984  17.473  0.00  0.00    +0.000 A 
ATOM     18  C   UNL     1      47.866   4.759  17.703  0.00  0.00    +0.000 A 
ATOM     19  C   UNL     1      47.394   4.011  16.626  0.00  0.00    +0.000 A 
ATOM     20  C   UNL     1      47.540   4.493  15.322  0.00  0.00    +0.000 A 
ATOM     21 CL   UNL     1      46.938   3.517  14.026  0.00  0.00    +0.000 Cl
ENDBRANCH  14  15
ENDBRANCH  13  14
ENDBRANCH  12  13
ENDBRANCH   1  12
TORSDOF 7
ENDMDL
