MODEL 1
REMARK VINA RESULT:    -7.280      0.000      0.000
REMARK INTER + INTRA:         -10.469
REMARK INTER:                  -9.621
REMARK INTRA:                  -0.847
REMARK UNBOUND:                -0.847
REMARK  Name = 
REMARK  6 active torsions:
REMARK  status: ('A' for Active; 'I' for Inactive)
REMARK    1  A    between atoms: C_2  and  C_19
REMARK    2  A    between atoms: N_3  and  C_4
REMARK    3  A    between atoms: C_4  and  C_5
REMARK    4  A    between atoms: C_8  and  C_9
REMARK    5  A    between atoms: C_9  and  N_10
REMARK    6  A    between atoms: C_13  and  O_14
REMARK                            x       y       z     vdW  Elec       q    Type
REMARK                         _______ _______ _______ _____ _____    ______ ____
ROOT
ATOM      1  C   UNL     1      45.412   7.085  12.557  0.00  0.00    +0.000 C 
ENDROOT
BRANCH   1   2
ATOM      2  C   UNL     1      45.305   6.020  11.498  0.00  0.00    +0.000 A 
ATOM      3  C   UNL     1      44.561   4.861  11.748  0.00  0.00    +0.000 A 
ATOM      4  C   UNL     1      44.420   3.874  10.767  0.00  0.00    +0.000 A 
ATOM      5  C   UNL     1      45.041   4.010   9.518  0.00  0.00    +0.000 A 
ATOM      6  C   UNL     1      45.816   5.158   9.283  0.00  0.00    +0.000 A 
ATOM      7  C   UNL     1      45.951   6.151  10.263  0.00  0.00    +0.000 A 
BRANCH   5   8
ATOM      8  C   UNL     1      44.904   2.931   8.455  0.00  0.00    +0.000 C 
BRANCH   8   9
ATOM      9  N   UNL     1      46.122   2.551   7.711  0.00  0.00    +0.000 NA
ATOM     10  C   UNL     1      46.180   3.141   6.371  0.00  0.00    +0.000 C 
ATOM     11  C   UNL     1      47.409   2.728   5.562  0.00  0.00    +0.000 C 
ATOM     12  C   UNL     1      47.627   1.222   5.570  0.00  0.00    +0.000 C 
ATOM     13  C   UNL     1      47.643   0.695   6.997  0.00  0.00    +0.000 C 
ATOM     14  C   UNL     1      46.395   1.115   7.775  0.00  0.00    +0.000 C 
BRANCH  12  15
ATOM     15  O   UNL     1      46.632   0.556   4.794  0.00  0.00    +0.000 OA
ATOM     16  H   UNL     1      47.046  -0.189   4.326  0.00  0.00    +0.000 HD
ENDBRANCH  12  15
ENDBRANCH   8   9
ENDBRANCH   5   8
ENDBRANCH   1   2
BRANCH   1  19
ATOM     17  O   UNL     1      48.171   7.241  12.714  0.00  0.00    +0.000 OA
ATOM     18  C   UNL     1      47.557   6.819  13.692  0.00  0.00    +0.000 C 
ATOM     19  N   UNL     1      46.196   6.644  13.682  0.00  0.00    +0.000 N 
ATOM     20  H   UNL     1      45.703   6.542  14.565  0.00  0.00    +0.000 HD
BRANCH  18  21
ATOM     21  C   UNL     1      48.245   6.433  14.930  0.00  0.00    +0.000 A 
ATOM     22  C   UNL     1      49.206   7.277  15.477  0.00  0.00    +0.000 A 
ATOM     23  S   UNL     1      49.899   6.660  16.909  0.00  0.00    +0.000 S 
ATOM     24  C   UNL     1      48.911   5.280  16.863  0.00  0.00    +0.000 A 
ATOM     25  N   UNL     1      48.976   4.335  17.837  0.00  0.00    +0.000 NA
ATOM     26  C   UNL     1      48.139   3.355  17.695  0.00  0.00    +0.000 A 
ATOM     27  N   UNL     1      47.257   3.233  16.653  0.00  0.00    +0.000 N 
ATOM     28  C   UNL     1      47.189   4.133  15.621  0.00  0.00    +0.000 A 
ATOM     29  O   UNL     1      46.420   3.963  14.676  0.00  0.00    +0.000 OA
ATOM     30  C   UNL     1      48.082   5.269  15.759  0.00  0.00    +0.000 A 
ATOM     31  H   UNL     1      46.646   2.431  16.587  0.00  0.00    +0.000 HD
ENDBRANCH  18  21
ENDBRANCH   1  19
TORSDOF 6
ENDMDL
MODEL 2
REMARK VINA RESULT:    -6.939      3.469      4.634
REMARK INTER + INTRA:         -10.017
REMARK INTER:                  -8.795
REMARK INTRA:                  -1.222
REMARK UNBOUND:                -0.847
REMARK  Name = 
REMARK  6 active torsions:
REMARK  status: ('A' for Active; 'I' for Inactive)
REMARK    1  A    between atoms: C_2  and  C_19
REMARK    2  A    between atoms: N_3  and  C_4
REMARK    3  A    between atoms: C_4  and  C_5
REMARK    4  A    between atoms: C_8  and  C_9
REMARK    5  A    between atoms: C_9  and  N_10
REMARK    6  A    between atoms: C_13  and  O_14
REMARK                            x       y       z     vdW  Elec       q    Type
REMARK                         _______ _______ _______ _____ _____    ______ ____
ROOT
ATOM      1  C   UNL     1      49.521   8.199  14.268  0.00  0.00    +0.000 C 
ENDROOT
BRANCH   1   2
ATOM      2  C   UNL     1      48.272   7.964  13.460  0.00  0.00    +0.000 A 
ATOM      3  C   UNL     1      48.252   6.961  12.483  0.00  0.00    +0.000 A 
ATOM      4  C   UNL     1      47.092   6.704  11.744  0.00  0.00    +0.000 A 
ATOM      5  C   UNL     1      45.929   7.458  11.947  0.00  0.00    +0.000 A 
ATOM      6  C   UNL     1      45.964   8.487  12.904  0.00  0.00    +0.000 A 
ATOM      7  C   UNL     1      47.123   8.740  13.650  0.00  0.00    +0.000 A 
BRANCH   5   8
ATOM      8  C   UNL     1      44.672   7.192  11.134  0.00  0.00    +0.000 C 
BRANCH   8   9
ATOM      9  N   UNL     1      43.963   5.919  11.375  0.00  0.00    +0.000 NA
ATOM     10  C   UNL     1      43.888   5.567  12.795  0.00  0.00    +0.000 C 
ATOM     11  C   UNL     1      43.198   4.231  13.069  0.00  0.00    +0.000 C 
ATOM     12  C   UNL     1      43.743   3.110  12.196  0.00  0.00    +0.000 C 
ATOM     13  C   UNL     1      43.708   3.514  10.730  0.00  0.00    +0.000 C 
ATOM     14  C   UNL     1      44.416   4.847  10.487  0.00  0.00    +0.000 C 
BRANCH  12  15
ATOM     15  O   UNL     1      45.066   2.749  12.592  0.00  0.00    +0.000 OA
ATOM     16  H   UNL     1      45.058   1.828  12.906  0.00  0.00    +0.000 HD
ENDBRANCH  12  15
ENDBRANCH   8   9
ENDBRANCH   5   8
ENDBRANCH   1   2
BRANCH   1  19
ATOM     17  O   UNL     1      48.546   8.583  16.829  0.00  0.00    +0.000 OA
ATOM     18  C   UNL     1      49.076   7.506  16.566  0.00  0.00    +0.000 C 
ATOM     19  N   UNL     1      49.647   7.250  15.344  0.00  0.00    +0.000 N 
ATOM     20  H   UNL     1      49.842   6.288  15.080  0.00  0.00    +0.000 HD
BRANCH  18  21
ATOM     21  C   UNL     1      49.172   6.428  17.558  0.00  0.00    +0.000 A 
ATOM     22  C   UNL     1      49.817   6.662  18.769  0.00  0.00    +0.000 A 
ATOM     23  S   UNL     1      49.833   5.295  19.791  0.00  0.00    +0.000 S 
ATOM     24  C   UNL     1      48.948   4.374  18.671  0.00  0.00    +0.000 A 
ATOM     25  N   UNL     1      48.587   3.092  18.943  0.00  0.00    +0.000 NA
ATOM     26  C   UNL     1      47.882   2.522  18.016  0.00  0.00    +0.000 A 
ATOM     27  N   UNL     1      47.524   3.120  16.836  0.00  0.00    +0.000 N 
ATOM     28  C   UNL     1      47.906   4.391  16.494  0.00  0.00    +0.000 A 
ATOM     29  O   UNL     1      47.610   4.875  15.403  0.00  0.00    +0.000 OA
ATOM     30  C   UNL     1      48.665   5.082  17.521  0.00  0.00    +0.000 A 
ATOM     31  H   UNL     1      46.993   2.612  16.142  0.00  0.00    +0.000 HD
ENDBRANCH  18  21
ENDBRANCH   1  19
TORSDOF 6
ENDMDL
MODEL 3
REMARK VINA RESULT:    -6.697      4.134      8.839
REMARK INTER + INTRA:          -9.698
REMARK INTER:                  -8.966
REMARK INTRA:                  -0.732
REMARK UNBOUND:                -0.847
REMARK  Name = 
REMARK  6 active torsions:
REMARK  status: ('A' for Active; 'I' for Inactive)
REMARK    1  A    between atoms: C_2  and  C_19
REMARK    2  A    between atoms: N_3  and  C_4
REMARK    3  A    between atoms: C_4  and  C_5
REMARK    4  A    between atoms: C_8  and  C_9
REMARK    5  A    between atoms: C_9  and  N_10
REMARK    6  A    between atoms: C_13  and  O_14
REMARK                            x       y       z     vdW  Elec       q    Type
REMARK                         _______ _______ _______ _____ _____    ______ ____
ROOT
ATOM      1  C   UNL     1      49.038   7.813  15.357  0.00  0.00    +0.000 C 
ENDROOT
BRANCH   1   2
ATOM      2  C   UNL     1      49.536   6.623  16.134  0.00  0.00    +0.000 A 
ATOM      3  C   UNL     1      50.905   6.483  16.394  0.00  0.00    +0.000 A 
ATOM      4  C   UNL     1      51.385   5.403  17.143  0.00  0.00    +0.000 A 
ATOM      5  C   UNL     1      50.512   4.422  17.629  0.00  0.00    +0.000 A 
ATOM      6  C   UNL     1      49.143   4.547  17.336  0.00  0.00    +0.000 A 
ATOM      7  C   UNL     1      48.660   5.632  16.594  0.00  0.00    +0.000 A 
BRANCH   5   8
ATOM      8  C   UNL     1      51.033   3.237  18.428  0.00  0.00    +0.000 C 
BRANCH   8   9
ATOM      9  N   UNL     1      52.317   2.643  18.003  0.00  0.00    +0.000 NA
ATOM     10  C   UNL     1      52.188   1.245  17.583  0.00  0.00    +0.000 C 
ATOM     11  C   UNL     1      53.510   0.593  17.181  0.00  0.00    +0.000 C 
ATOM     12  C   UNL     1      54.603   0.814  18.217  0.00  0.00    +0.000 C 
ATOM     13  C   UNL     1      54.738   2.295  18.538  0.00  0.00    +0.000 C 
ATOM     14  C   UNL     1      53.401   2.915  18.948  0.00  0.00    +0.000 C 
BRANCH  12  15
ATOM     15  O   UNL     1      54.346   0.059  19.400  0.00  0.00    +0.000 OA
ATOM     16  H   UNL     1      54.739  -0.825  19.299  0.00  0.00    +0.000 HD
ENDBRANCH  12  15
ENDBRANCH   8   9
ENDBRANCH   5   8
ENDBRANCH   1   2
BRANCH   1  19
ATOM     17  O   UNL     1      49.000   6.392  12.983  0.00  0.00    +0.000 OA
ATOM     18  C   UNL     1      47.926   6.737  13.469  0.00  0.00    +0.000 C 
ATOM     19  N   UNL     1      47.849   7.502  14.607  0.00  0.00    +0.000 N 
ATOM     20  H   UNL     1      46.968   7.551  15.111  0.00  0.00    +0.000 HD
BRANCH  18  21
ATOM     21  C   UNL     1      46.645   6.390  12.841  0.00  0.00    +0.000 A 
ATOM     22  C   UNL     1      45.888   7.382  12.225  0.00  0.00    +0.000 A 
ATOM     23  S   UNL     1      44.433   6.792  11.555  0.00  0.00    +0.000 S 
ATOM     24  C   UNL     1      44.794   5.200  12.027  0.00  0.00    +0.000 A 
ATOM     25  N   UNL     1      43.957   4.172  11.728  0.00  0.00    +0.000 NA
ATOM     26  C   UNL     1      44.374   3.007  12.115  0.00  0.00    +0.000 A 
ATOM     27  N   UNL     1      45.547   2.788  12.789  0.00  0.00    +0.000 N 
ATOM     28  C   UNL     1      46.399   3.797  13.157  0.00  0.00    +0.000 A 
ATOM     29  O   UNL     1      47.417   3.568  13.808  0.00  0.00    +0.000 OA
ATOM     30  C   UNL     1      45.990   5.116  12.709  0.00  0.00    +0.000 A 
ATOM     31  H   UNL     1      45.805   1.857  13.085  0.00  0.00    +0.000 HD
ENDBRANCH  18  21
ENDBRANCH   1  19
TORSDOF 6
ENDMDL
MODEL 4
REMARK VINA RESULT:    -6.671      3.244      9.136
REMARK INTER + INTRA:          -9.663
REMARK INTER:                  -8.760
REMARK INTRA:                  -0.903
REMARK UNBOUND:                -0.847
REMARK  Name = 
REMARK  6 active torsions:
REMARK  status: ('A' for Active; 'I' for Inactive)
REMARK    1  A    between atoms: C_2  and  C_19
REMARK    2  A    between atoms: N_3  and  C_4
REMARK    3  A    between atoms: C_4  and  C_5
REMARK    4  A    between atoms: C_8  and  C_9
REMARK    5  A    between atoms: C_9  and  N_10
REMARK    6  A    between atoms: C_13  and  O_14
REMARK                            x       y       z     vdW  Elec       q    Type
REMARK                         _______ _______ _______ _____ _____    ______ ____
ROOT
ATOM      1  C   UNL     1      47.724   7.767  11.959  0.00  0.00    +0.000 C 
ENDROOT
BRANCH   1   2
ATOM      2  C   UNL     1      48.341   7.898  13.326  0.00  0.00    +0.000 A 
ATOM      3  C   UNL     1      47.750   8.735  14.281  0.00  0.00    +0.000 A 
ATOM      4  C   UNL     1      48.287   8.845  15.568  0.00  0.00    +0.000 A 
ATOM      5  C   UNL     1      49.443   8.139  15.926  0.00  0.00    +0.000 A 
ATOM      6  C   UNL     1      50.053   7.327  14.954  0.00  0.00    +0.000 A 
ATOM      7  C   UNL     1      49.511   7.210  13.668  0.00  0.00    +0.000 A 
BRANCH   5   8
ATOM      8  C   UNL     1      50.039   8.270  17.319  0.00  0.00    +0.000 C 
BRANCH   8   9
ATOM      9  N   UNL     1      49.461   7.431  18.388  0.00  0.00    +0.000 NA
ATOM     10  C   UNL     1      49.408   6.010  18.034  0.00  0.00    +0.000 C 
ATOM     11  C   UNL     1      48.772   5.126  19.105  0.00  0.00    +0.000 C 
ATOM     12  C   UNL     1      47.440   5.677  19.594  0.00  0.00    +0.000 C 
ATOM     13  C   UNL     1      47.592   7.128  20.026  0.00  0.00    +0.000 C 
ATOM     14  C   UNL     1      48.220   7.988  18.929  0.00  0.00    +0.000 C 
BRANCH  12  15
ATOM     15  O   UNL     1      46.433   5.549  18.590  0.00  0.00    +0.000 OA
ATOM     16  H   UNL     1      45.560   5.607  19.014  0.00  0.00    +0.000 HD
ENDBRANCH  12  15
ENDBRANCH   8   9
ENDBRANCH   5   8
ENDBRANCH   1   2
BRANCH   1  19
ATOM     17  O   UNL     1      44.986   7.470  12.230  0.00  0.00    +0.000 OA
ATOM     18  C   UNL     1      45.647   6.487  11.902  0.00  0.00    +0.000 C 
ATOM     19  N   UNL     1      47.015   6.522  11.809  0.00  0.00    +0.000 N 
ATOM     20  H   UNL     1      47.496   5.785  11.301  0.00  0.00    +0.000 HD
BRANCH  18  21
ATOM     21  C   UNL     1      45.017   5.189  11.627  0.00  0.00    +0.000 A 
ATOM     22  C   UNL     1      44.282   4.555  12.624  0.00  0.00    +0.000 A 
ATOM     23  S   UNL     1      43.631   3.058  12.123  0.00  0.00    +0.000 S 
ATOM     24  C   UNL     1      44.271   3.237  10.560  0.00  0.00    +0.000 A 
ATOM     25  N   UNL     1      44.052   2.301   9.599  0.00  0.00    +0.000 NA
ATOM     26  C   UNL     1      44.567   2.583   8.443  0.00  0.00    +0.000 A 
ATOM     27  N   UNL     1      45.295   3.713   8.174  0.00  0.00    +0.000 N 
ATOM     28  C   UNL     1      45.586   4.660   9.121  0.00  0.00    +0.000 A 
ATOM     29  O   UNL     1      46.287   5.634   8.855  0.00  0.00    +0.000 OA
ATOM     30  C   UNL     1      44.995   4.403  10.423  0.00  0.00    +0.000 A 
ATOM     31  H   UNL     1      45.691   3.863   7.256  0.00  0.00    +0.000 HD
ENDBRANCH  18  21
ENDBRANCH   1  19
TORSDOF 6
ENDMDL
MODEL 5
REMARK VINA RESULT:    -6.628      4.688     10.713
REMARK INTER + INTRA:          -9.606
REMARK INTER:                  -8.727
REMARK INTRA:                  -0.879
REMARK UNBOUND:                -0.847
REMARK  Name = 
REMARK  6 active torsions:
REMARK  status: ('A' for Active; 'I' for Inactive)
REMARK    1  A    between atoms: C_2  and  C_19
REMARK    2  A    between atoms: N_3  and  C_4
REMARK    3  A    between atoms: C_4  and  C_5
REMARK    4  A    between atoms: C_8  and  C_9
REMARK    5  A    between atoms: C_9  and  N_10
REMARK    6  A    between atoms: C_13  and  O_14
REMARK                            x       y       z     vdW  Elec       q    Type
REMARK                         _______ _______ _______ _____ _____    ______ ____
ROOT
ATOM      1  C   UNL     1      48.089   4.693  16.153  0.00  0.00    +0.000 C 
ENDROOT
BRANCH   1   2
ATOM      2  C   UNL     1      48.048   5.631  17.331  0.00  0.00    +0.000 A 
ATOM      3  C   UNL     1      47.298   5.294  18.464  0.00  0.00    +0.000 A 
ATOM      4  C   UNL     1      47.274   6.134  19.582  0.00  0.00    +0.000 A 
ATOM      5  C   UNL     1      47.979   7.345  19.587  0.00  0.00    +0.000 A 
ATOM      6  C   UNL     1      48.702   7.696  18.434  0.00  0.00    +0.000 A 
ATOM      7  C   UNL     1      48.734   6.851  17.316  0.00  0.00    +0.000 A 
BRANCH   5   8
ATOM      8  C   UNL     1      47.940   8.268  20.794  0.00  0.00    +0.000 C 
BRANCH   8   9
ATOM      9  N   UNL     1      46.865   9.280  20.841  0.00  0.00    +0.000 NA
ATOM     10  C   UNL     1      47.140  10.446  19.997  0.00  0.00    +0.000 C 
ATOM     11  C   UNL     1      46.065  11.529  20.063  0.00  0.00    +0.000 C 
ATOM     12  C   UNL     1      45.697  11.893  21.494  0.00  0.00    +0.000 C 
ATOM     13  C   UNL     1      45.339  10.643  22.284  0.00  0.00    +0.000 C 
ATOM     14  C   UNL     1      46.440   9.584  22.209  0.00  0.00    +0.000 C 
BRANCH  12  15
ATOM     15  O   UNL     1      46.755  12.609  22.129  0.00  0.00    +0.000 OA
ATOM     16  H   UNL     1      46.771  12.373  23.072  0.00  0.00    +0.000 HD
ENDBRANCH  12  15
ENDBRANCH   8   9
ENDBRANCH   5   8
ENDBRANCH   1   2
BRANCH   1  19
ATOM     17  O   UNL     1      48.524   6.150  13.841  0.00  0.00    +0.000 OA
ATOM     18  C   UNL     1      47.401   5.689  14.033  0.00  0.00    +0.000 C 
ATOM     19  N   UNL     1      47.074   5.012  15.181  0.00  0.00    +0.000 N 
ATOM     20  H   UNL     1      46.237   4.437  15.195  0.00  0.00    +0.000 HD
BRANCH  18  21
ATOM     21  C   UNL     1      46.315   5.868  13.061  0.00  0.00    +0.000 A 
ATOM     22  C   UNL     1      45.967   7.149  12.645  0.00  0.00    +0.000 A 
ATOM     23  S   UNL     1      44.684   7.159  11.519  0.00  0.00    +0.000 S 
ATOM     24  C   UNL     1      44.589   5.463  11.524  0.00  0.00    +0.000 A 
ATOM     25  N   UNL     1      43.698   4.806  10.735  0.00  0.00    +0.000 NA
ATOM     26  C   UNL     1      43.761   3.513  10.811  0.00  0.00    +0.000 A 
ATOM     27  N   UNL     1      44.627   2.825  11.620  0.00  0.00    +0.000 N 
ATOM     28  C   UNL     1      45.509   3.442  12.469  0.00  0.00    +0.000 A 
ATOM     29  O   UNL     1      46.234   2.791  13.219  0.00  0.00    +0.000 OA
ATOM     30  C   UNL     1      45.500   4.892  12.389  0.00  0.00    +0.000 A 
ATOM     31  H   UNL     1      44.610   1.815  11.651  0.00  0.00    +0.000 HD
ENDBRANCH  18  21
ENDBRANCH   1  19
TORSDOF 6
ENDMDL
MODEL 6
REMARK VINA RESULT:    -6.571      4.471      6.639
REMARK INTER + INTRA:          -9.531
REMARK INTER:                  -8.604
REMARK INTRA:                  -0.927
REMARK UNBOUND:                -0.847
REMARK  Name = 
REMARK  6 active torsions:
REMARK  status: ('A' for Active; 'I' for Inactive)
REMARK    1  A    between atoms: C_2  and  C_19
REMARK    2  A    between atoms: N_3  and  C_4
REMARK    3  A    between atoms: C_4  and  C_5
REMARK    4  A    between atoms: C_8  and  C_9
REMARK    5  A    between atoms: C_9  and  N_10
REMARK    6  A    between atoms: C_13  and  O_14
REMARK                            x       y       z     vdW  Elec       q    Type
REMARK                         _______ _______ _______ _____ _____    ______ ____
ROOT
ATOM      1  C   UNL     1      49.797   6.420  17.716  0.00  0.00    +0.000 C 
ENDROOT
BRANCH   1   2
ATOM      2  C   UNL     1      48.890   5.879  16.643  0.00  0.00    +0.000 A 
ATOM      3  C   UNL     1      48.810   6.527  15.405  0.00  0.00    +0.000 A 
ATOM      4  C   UNL     1      48.000   6.022  14.383  0.00  0.00    +0.000 A 
ATOM      5  C   UNL     1      47.230   4.868  14.580  0.00  0.00    +0.000 A 
ATOM      6  C   UNL     1      47.287   4.239  15.836  0.00  0.00    +0.000 A 
ATOM      7  C   UNL     1      48.104   4.740  16.858  0.00  0.00    +0.000 A 
BRANCH   5   8
ATOM      8  C   UNL     1      46.335   4.326  13.477  0.00  0.00    +0.000 C 
BRANCH   8   9
ATOM      9  N   UNL     1      45.153   5.129  13.104  0.00  0.00    +0.000 NA
ATOM     10  C   UNL     1      43.934   4.326  12.973  0.00  0.00    +0.000 C 
ATOM     11  C   UNL     1      42.705   5.126  12.544  0.00  0.00    +0.000 C 
ATOM     12  C   UNL     1      42.982   6.007  11.334  0.00  0.00    +0.000 C 
ATOM     13  C   UNL     1      44.208   6.874  11.578  0.00  0.00    +0.000 C 
ATOM     14  C   UNL     1      45.422   6.044  11.994  0.00  0.00    +0.000 C 
BRANCH  12  15
ATOM     15  O   UNL     1      43.143   5.221  10.155  0.00  0.00    +0.000 OA
ATOM     16  H   UNL     1      42.821   5.731   9.392  0.00  0.00    +0.000 HD
ENDBRANCH  12  15
ENDBRANCH   8   9
ENDBRANCH   5   8
ENDBRANCH   1   2
BRANCH   1  19
ATOM     17  O   UNL     1      50.329   4.979  20.018  0.00  0.00    +0.000 OA
ATOM     18  C   UNL     1      51.099   4.859  19.067  0.00  0.00    +0.000 C 
ATOM     19  N   UNL     1      50.954   5.584  17.911  0.00  0.00    +0.000 N 
ATOM     20  H   UNL     1      51.441   5.282  17.072  0.00  0.00    +0.000 HD
BRANCH  18  21
ATOM     21  C   UNL     1      52.257   3.958  19.120  0.00  0.00    +0.000 A 
ATOM     22  C   UNL     1      53.321   4.252  19.966  0.00  0.00    +0.000 A 
ATOM     23  S   UNL     1      54.575   3.097  19.888  0.00  0.00    +0.000 S 
ATOM     24  C   UNL     1      53.717   2.156  18.763  0.00  0.00    +0.000 A 
ATOM     25  N   UNL     1      54.224   0.985  18.294  0.00  0.00    +0.000 NA
ATOM     26  C   UNL     1      53.447   0.353  17.470  0.00  0.00    +0.000 A 
ATOM     27  N   UNL     1      52.217   0.802  17.066  0.00  0.00    +0.000 N 
ATOM     28  C   UNL     1      51.685   1.999  17.471  0.00  0.00    +0.000 A 
ATOM     29  O   UNL     1      50.601   2.392  17.046  0.00  0.00    +0.000 OA
ATOM     30  C   UNL     1      52.505   2.723  18.426  0.00  0.00    +0.000 A 
ATOM     31  H   UNL     1      51.669   0.273  16.401  0.00  0.00    +0.000 HD
ENDBRANCH  18  21
ENDBRANCH   1  19
TORSDOF 6
ENDMDL
MODEL 7
REMARK VINA RESULT:    -6.350      3.722      5.195
REMARK INTER + INTRA:          -9.239
REMARK INTER:                  -8.451
REMARK INTRA:                  -0.788
REMARK UNBOUND:                -0.847
REMARK  Name = 
REMARK  6 active torsions:
REMARK  status: ('A' for Active; 'I' for Inactive)
REMARK    1  A    between atoms: C_2  and  C_19
REMARK    2  A    between atoms: N_3  and  C_4
REMARK    3  A    between atoms: C_4  and  C_5
REMARK    4  A    between atoms: C_8  and  C_9
REMARK    5  A    between atoms: C_9  and  N_10
REMARK    6  A    between atoms: C_13  and  O_14
REMARK                            x       y       z     vdW  Elec       q    Type
REMARK                         _______ _______ _______ _____ _____    ______ ____
ROOT
ATOM      1  C   UNL     1      49.622   8.231  13.838  0.00  0.00    +0.000 C 
ENDROOT
BRANCH   1   2
ATOM      2  C   UNL     1      48.285   7.999  13.185  0.00  0.00    +0.000 A 
ATOM      3  C   UNL     1      48.076   6.849  12.413  0.00  0.00    +0.000 A 
ATOM      4  C   UNL     1      46.831   6.597  11.826  0.00  0.00    +0.000 A 
ATOM      5  C   UNL     1      45.771   7.501  11.976  0.00  0.00    +0.000 A 
ATOM      6  C   UNL     1      45.995   8.671  12.721  0.00  0.00    +0.000 A 
ATOM      7  C   UNL     1      47.239   8.919  13.317  0.00  0.00    +0.000 A 
BRANCH   5   8
ATOM      8  C   UNL     1      44.422   7.238  11.324  0.00  0.00    +0.000 C 
BRANCH   8   9
ATOM      9  N   UNL     1      43.818   5.905  11.524  0.00  0.00    +0.000 NA
ATOM     10  C   UNL     1      43.828   5.478  12.926  0.00  0.00    +0.000 C 
ATOM     11  C   UNL     1      43.249   4.083  13.155  0.00  0.00    +0.000 C 
ATOM     12  C   UNL     1      43.837   3.050  12.204  0.00  0.00    +0.000 C 
ATOM     13  C   UNL     1      43.713   3.522  10.764  0.00  0.00    +0.000 C 
ATOM     14  C   UNL     1      44.311   4.915  10.565  0.00  0.00    +0.000 C 
BRANCH  12  15
ATOM     15  O   UNL     1      45.198   2.770  12.531  0.00  0.00    +0.000 OA
ATOM     16  H   UNL     1      45.422   1.881  12.205  0.00  0.00    +0.000 HD
ENDBRANCH  12  15
ENDBRANCH   8   9
ENDBRANCH   5   8
ENDBRANCH   1   2
BRANCH   1  19
ATOM     17  O   UNL     1      48.752   7.895  16.443  0.00  0.00    +0.000 OA
ATOM     18  C   UNL     1      49.464   7.022  15.952  0.00  0.00    +0.000 C 
ATOM     19  N   UNL     1      49.997   7.134  14.692  0.00  0.00    +0.000 N 
ATOM     20  H   UNL     1      50.359   6.303  14.232  0.00  0.00    +0.000 HD
BRANCH  18  21
ATOM     21  C   UNL     1      49.829   5.811  16.699  0.00  0.00    +0.000 A 
ATOM     22  C   UNL     1      48.836   4.925  17.103  0.00  0.00    +0.000 A 
ATOM     23  S   UNL     1      49.449   3.582  17.960  0.00  0.00    +0.000 S 
ATOM     24  C   UNL     1      51.049   4.122  17.777  0.00  0.00    +0.000 A 
ATOM     25  N   UNL     1      52.094   3.401  18.264  0.00  0.00    +0.000 NA
ATOM     26  C   UNL     1      53.261   3.911  18.020  0.00  0.00    +0.000 A 
ATOM     27  N   UNL     1      53.468   5.087  17.347  0.00  0.00    +0.000 N 
ATOM     28  C   UNL     1      52.445   5.874  16.882  0.00  0.00    +0.000 A 
ATOM     29  O   UNL     1      52.669   6.949  16.329  0.00  0.00    +0.000 OA
ATOM     30  C   UNL     1      51.121   5.321  17.099  0.00  0.00    +0.000 A 
ATOM     31  H   UNL     1      54.403   5.444  17.210  0.00  0.00    +0.000 HD
ENDBRANCH  18  21
ENDBRANCH   1  19
TORSDOF 6
ENDMDL
MODEL 8
REMARK VINA RESULT:    -6.341      4.470      7.602
REMARK INTER + INTRA:          -9.228
REMARK INTER:                  -8.670
REMARK INTRA:                  -0.558
REMARK UNBOUND:                -0.847
REMARK  Name = 
REMARK  6 active torsions:
REMARK  status: ('A' for Active; 'I' for Inactive)
REMARK    1  A    between atoms: C_2  and  C_19
REMARK    2  A    between atoms: N_3  and  C_4
REMARK    3  A    between atoms: C_4  and  C_5
REMARK    4  A    between atoms: C_8  and  C_9
REMARK    5  A    between atoms: C_9  and  N_10
REMARK    6  A    between atoms: C_13  and  O_14
REMARK                            x       y       z     vdW  Elec       q    Type
REMARK                         _______ _______ _______ _____ _____    ______ ____
ROOT
ATOM      1  C   UNL     1      46.265   8.276  12.062  0.00  0.00    +0.000 C 
ENDROOT
BRANCH   1   2
ATOM      2  C   UNL     1      47.762   8.443  12.085  0.00  0.00    +0.000 A 
ATOM      3  C   UNL     1      48.338   9.634  11.626  0.00  0.00    +0.000 A 
ATOM      4  C   UNL     1      49.723   9.823  11.670  0.00  0.00    +0.000 A 
ATOM      5  C   UNL     1      50.570   8.817  12.152  0.00  0.00    +0.000 A 
ATOM      6  C   UNL     1      49.991   7.609  12.579  0.00  0.00    +0.000 A 
ATOM      7  C   UNL     1      48.603   7.422  12.544  0.00  0.00    +0.000 A 
BRANCH   5   8
ATOM      8  C   UNL     1      52.078   9.012  12.185  0.00  0.00    +0.000 C 
BRANCH   8   9
ATOM      9  N   UNL     1      52.871   8.359  11.124  0.00  0.00    +0.000 NA
ATOM     10  C   UNL     1      52.058   7.530  10.231  0.00  0.00    +0.000 C 
ATOM     11  C   UNL     1      52.861   6.806   9.151  0.00  0.00    +0.000 C 
ATOM     12  C   UNL     1      54.069   6.076   9.721  0.00  0.00    +0.000 C 
ATOM     13  C   UNL     1      54.912   7.021  10.565  0.00  0.00    +0.000 C 
ATOM     14  C   UNL     1      54.082   7.719  11.642  0.00  0.00    +0.000 C 
BRANCH  12  15
ATOM     15  O   UNL     1      53.666   4.938  10.482  0.00  0.00    +0.000 OA
ATOM     16  H   UNL     1      53.791   4.139   9.941  0.00  0.00    +0.000 HD
ENDBRANCH  12  15
ENDBRANCH   8   9
ENDBRANCH   5   8
ENDBRANCH   1   2
BRANCH   1  19
ATOM     17  O   UNL     1      43.723   7.415  11.390  0.00  0.00    +0.000 OA
ATOM     18  C   UNL     1      44.610   6.572  11.502  0.00  0.00    +0.000 C 
ATOM     19  N   UNL     1      45.883   6.898  11.897  0.00  0.00    +0.000 N 
ATOM     20  H   UNL     1      46.636   6.235  11.736  0.00  0.00    +0.000 HD
BRANCH  18  21
ATOM     21  C   UNL     1      44.356   5.146  11.261  0.00  0.00    +0.000 A 
ATOM     22  C   UNL     1      43.551   4.431  12.141  0.00  0.00    +0.000 A 
ATOM     23  S   UNL     1      43.375   2.791  11.701  0.00  0.00    +0.000 S 
ATOM     24  C   UNL     1      44.325   3.002  10.309  0.00  0.00    +0.000 A 
ATOM     25  N   UNL     1      44.551   1.973   9.449  0.00  0.00    +0.000 NA
ATOM     26  C   UNL     1      45.261   2.285   8.410  0.00  0.00    +0.000 A 
ATOM     27  N   UNL     1      45.777   3.532   8.169  0.00  0.00    +0.000 N 
ATOM     28  C   UNL     1      45.620   4.587   9.030  0.00  0.00    +0.000 A 
ATOM     29  O   UNL     1      46.142   5.677   8.806  0.00  0.00    +0.000 OA
ATOM     30  C   UNL     1      44.797   4.293  10.190  0.00  0.00    +0.000 A 
ATOM     31  H   UNL     1      46.344   3.705   7.351  0.00  0.00    +0.000 HD
ENDBRANCH  18  21
ENDBRANCH   1  19
TORSDOF 6
ENDMDL
MODEL 9
REMARK VINA RESULT:    -6.305      3.813      5.120
REMARK INTER + INTRA:          -9.180
REMARK INTER:                  -8.346
REMARK INTRA:                  -0.834
REMARK UNBOUND:                -0.847
REMARK  Name = 
REMARK  6 active torsions:
REMARK  status: ('A' for Active; 'I' for Inactive)
REMARK    1  A    between atoms: C_2  and  C_19
REMARK    2  A    between atoms: N_3  and  C_4
REMARK    3  A    between atoms: C_4  and  C_5
REMARK    4  A    between atoms: C_8  and  C_9
REMARK    5  A    between atoms: C_9  and  N_10
REMARK    6  A    between atoms: C_13  and  O_14
REMARK                            x       y       z     vdW  Elec       q    Type
REMARK                         _______ _______ _______ _____ _____    ______ ____
ROOT
ATOM      1  C   UNL     1      49.879   7.741  14.478  0.00  0.00    +0.000 C 
ENDROOT
BRANCH   1   2
ATOM      2  C   UNL     1      48.600   7.597  13.696  0.00  0.00    +0.000 A 
ATOM      3  C   UNL     1      47.523   8.451  13.957  0.00  0.00    +0.000 A 
ATOM      4  C   UNL     1      46.338   8.357  13.219  0.00  0.00    +0.000 A 
ATOM      5  C   UNL     1      46.192   7.389  12.216  0.00  0.00    +0.000 A 
ATOM      6  C   UNL     1      47.263   6.510  11.981  0.00  0.00    +0.000 A 
ATOM      7  C   UNL     1      48.453   6.610  12.714  0.00  0.00    +0.000 A 
BRANCH   5   8
ATOM      8  C   UNL     1      44.899   7.273  11.425  0.00  0.00    +0.000 C 
BRANCH   8   9
ATOM      9  N   UNL     1      44.125   6.022  11.566  0.00  0.00    +0.000 NA
ATOM     10  C   UNL     1      44.022   5.569  12.956  0.00  0.00    +0.000 C 
ATOM     11  C   UNL     1      43.264   4.253  13.125  0.00  0.00    +0.000 C 
ATOM     12  C   UNL     1      43.759   3.174  12.172  0.00  0.00    +0.000 C 
ATOM     13  C   UNL     1      43.756   3.688  10.740  0.00  0.00    +0.000 C 
ATOM     14  C   UNL     1      44.532   4.998  10.602  0.00  0.00    +0.000 C 
BRANCH  12  15
ATOM     15  O   UNL     1      45.059   2.718  12.546  0.00  0.00    +0.000 OA
ATOM     16  H   UNL     1      45.049   1.747  12.589  0.00  0.00    +0.000 HD
ENDBRANCH  12  15
ENDBRANCH   8   9
ENDBRANCH   5   8
ENDBRANCH   1   2
BRANCH   1  19
ATOM     17  O   UNL     1      51.449   6.373  16.300  0.00  0.00    +0.000 OA
ATOM     18  C   UNL     1      50.515   7.046  16.730  0.00  0.00    +0.000 C 
ATOM     19  N   UNL     1      49.644   7.704  15.899  0.00  0.00    +0.000 N 
ATOM     20  H   UNL     1      49.055   8.440  16.280  0.00  0.00    +0.000 HD
BRANCH  18  21
ATOM     21  C   UNL     1      50.241   7.161  18.168  0.00  0.00    +0.000 A 
ATOM     22  C   UNL     1      51.104   7.893  18.978  0.00  0.00    +0.000 A 
ATOM     23  S   UNL     1      50.627   7.910  20.617  0.00  0.00    +0.000 S 
ATOM     24  C   UNL     1      49.242   6.984  20.284  0.00  0.00    +0.000 A 
ATOM     25  N   UNL     1      48.361   6.659  21.266  0.00  0.00    +0.000 NA
ATOM     26  C   UNL     1      47.331   5.983  20.864  0.00  0.00    +0.000 A 
ATOM     27  N   UNL     1      47.118   5.589  19.568  0.00  0.00    +0.000 N 
ATOM     28  C   UNL     1      48.002   5.849  18.553  0.00  0.00    +0.000 A 
ATOM     29  O   UNL     1      47.803   5.434  17.413  0.00  0.00    +0.000 OA
ATOM     30  C   UNL     1      49.153   6.640  18.951  0.00  0.00    +0.000 A 
ATOM     31  H   UNL     1      46.305   5.042  19.323  0.00  0.00    +0.000 HD
ENDBRANCH  18  21
ENDBRANCH   1  19
TORSDOF 6
ENDMDL
