MODEL 1
REMARK VINA RESULT:    -9.414      0.000      0.000
REMARK INTER + INTRA:         -13.520
REMARK INTER:                 -12.716
REMARK INTRA:                  -0.804
REMARK UNBOUND:                -0.804
REMARK  Name = 
REMARK  6 active torsions:
REMARK  status: ('A' for Active; 'I' for Inactive)
REMARK    1  A    between atoms: C_2  and  C_4
REMARK    2  A    between atoms: C_7  and  O_8
REMARK    3  A    between atoms: O_8  and  C_9
REMARK    4  A    between atoms: C_13  and  C_14
REMARK    5  A    between atoms: C_14  and  N_15
REMARK    6  A    between atoms: C_16  and  C_18
REMARK                            x       y       z     vdW  Elec       q    Type
REMARK                         _______ _______ _______ _____ _____    ______ ____
ROOT
ATOM      1  C   UNL     1      43.928   3.992  10.902  0.00  0.00    +0.000 A 
ATOM      2  C   UNL     1      42.857   4.270  11.740  0.00  0.00    +0.000 A 
ATOM      3  N   UNL     1      42.892   5.186  12.737  0.00  0.00    +0.000 NA
ATOM      4  C   UNL     1      44.060   5.840  12.919  0.00  0.00    +0.000 A 
ATOM      5  C   UNL     1      45.196   5.634  12.143  0.00  0.00    +0.000 A 
ATOM      6  C   UNL     1      45.094   4.733  11.077  0.00  0.00    +0.000 A 
ENDROOT
BRANCH   1   7
ATOM      7  O   UNL     1      43.746   3.047   9.924  0.00  0.00    +0.000 OA
BRANCH   7  11
ATOM      8  C   UNL     1      46.711   2.267   7.187  0.00  0.00    +0.000 A 
ATOM      9  C   UNL     1      46.104   3.513   7.107  0.00  0.00    +0.000 A 
ATOM     10  C   UNL     1      45.108   3.824   8.029  0.00  0.00    +0.000 A 
ATOM     11  C   UNL     1      44.713   2.868   8.961  0.00  0.00    +0.000 A 
ATOM     12  C   UNL     1      45.386   1.650   8.967  0.00  0.00    +0.000 A 
ATOM     13  N   UNL     1      46.372   1.313   8.097  0.00  0.00    +0.000 NA
BRANCH   8  15
ATOM     14  N   UNL     1      47.738   0.889   5.465  0.00  0.00    +0.000 NA
ATOM     15  C   UNL     1      47.835   1.912   6.255  0.00  0.00    +0.000 C 
ATOM     16  N   UNL     1      48.966   2.680   6.249  0.00  0.00    +0.000 N 
ATOM     17  H   UNL     1      48.577   0.843   4.881  0.00  0.00    +0.000 HD
ATOM     18  H   UNL     1      49.830   2.220   5.995  0.00  0.00    +0.000 HD
ATOM     19  H   UNL     1      49.049   3.282   7.067  0.00  0.00    +0.000 HD
ENDBRANCH   8  15
ENDBRANCH   7  11
ENDBRANCH   1   7
BRANCH   5  20
ATOM     20  C   UNL     1      46.472   6.367  12.426  0.00  0.00    +0.000 C 
BRANCH  20  21
ATOM     21  N   UNL     1      46.863   6.223  13.801  0.00  0.00    +0.000 N 
ATOM     22  C   UNL     1      48.175   6.329  14.181  0.00  0.00    +0.000 C 
ATOM     23  O   UNL     1      49.064   6.610  13.381  0.00  0.00    +0.000 OA
ATOM     24  H   UNL     1      46.201   5.773  14.425  0.00  0.00    +0.000 HD
BRANCH  22  25
ATOM     25  C   UNL     1      48.450   6.154  15.610  0.00  0.00    +0.000 A 
ATOM     26  C   UNL     1      48.985   7.204  16.344  0.00  0.00    +0.000 A 
ATOM     27  S   UNL     1      49.171   6.853  18.003  0.00  0.00    +0.000 S 
ATOM     28  C   UNL     1      48.597   5.265  17.787  0.00  0.00    +0.000 A 
ATOM     29  N   UNL     1      48.515   4.402  18.835  0.00  0.00    +0.000 NA
ATOM     30  C   UNL     1      48.099   3.220  18.522  0.00  0.00    +0.000 A 
ATOM     31  N   UNL     1      47.754   2.823  17.255  0.00  0.00    +0.000 N 
ATOM     32  C   UNL     1      47.784   3.671  16.174  0.00  0.00    +0.000 A 
ATOM     33  O   UNL     1      47.416   3.301  15.064  0.00  0.00    +0.000 OA
ATOM     34  C   UNL     1      48.258   5.010  16.471  0.00  0.00    +0.000 A 
ATOM     35  H   UNL     1      47.428   1.885  17.079  0.00  0.00    +0.000 HD
ENDBRANCH  22  25
ENDBRANCH  20  21
ENDBRANCH   5  20
TORSDOF 6
ENDMDL
MODEL 2
REMARK VINA RESULT:    -8.706      2.858      4.571
REMARK INTER + INTRA:         -12.564
REMARK INTER:                 -11.557
REMARK INTRA:                  -1.007
REMARK UNBOUND:                -0.804
REMARK  Name = 
REMARK  6 active torsions:
REMARK  status: ('A' for Active; 'I' for Inactive)
REMARK    1  A    between atoms: C_2  and  C_4
REMARK    2  A    between atoms: C_7  and  O_8
REMARK    3  A    between atoms: O_8  and  C_9
REMARK    4  A    between atoms: C_13  and  C_14
REMARK    5  A    between atoms: C_14  and  N_15
REMARK    6  A    between atoms: C_16  and  C_18
REMARK                            x       y       z     vdW  Elec       q    Type
REMARK                         _______ _______ _______ _____ _____    ______ ____
ROOT
ATOM      1  C   UNL     1      43.925   3.792  11.029  0.00  0.00    +0.000 A 
ATOM      2  C   UNL     1      42.829   4.385  11.641  0.00  0.00    +0.000 A 
ATOM      3  N   UNL     1      42.913   5.209  12.713  0.00  0.00    +0.000 NA
ATOM      4  C   UNL     1      44.149   5.434  13.209  0.00  0.00    +0.000 A 
ATOM      5  C   UNL     1      45.312   4.886  12.679  0.00  0.00    +0.000 A 
ATOM      6  C   UNL     1      45.189   4.101  11.528  0.00  0.00    +0.000 A 
ENDROOT
BRANCH   1   7
ATOM      7  O   UNL     1      43.693   2.989   9.942  0.00  0.00    +0.000 OA
BRANCH   7  11
ATOM      8  C   UNL     1      46.693   2.261   7.229  0.00  0.00    +0.000 A 
ATOM      9  C   UNL     1      46.115   3.523   7.192  0.00  0.00    +0.000 A 
ATOM     10  C   UNL     1      45.108   3.816   8.107  0.00  0.00    +0.000 A 
ATOM     11  C   UNL     1      44.675   2.830   8.989  0.00  0.00    +0.000 A 
ATOM     12  C   UNL     1      45.320   1.598   8.955  0.00  0.00    +0.000 A 
ATOM     13  N   UNL     1      46.316   1.277   8.090  0.00  0.00    +0.000 NA
BRANCH   8  15
ATOM     14  N   UNL     1      47.755   0.889   5.523  0.00  0.00    +0.000 NA
ATOM     15  C   UNL     1      47.828   1.921   6.303  0.00  0.00    +0.000 C 
ATOM     16  N   UNL     1      48.942   2.713   6.293  0.00  0.00    +0.000 N 
ATOM     17  H   UNL     1      48.596   0.856   4.942  0.00  0.00    +0.000 HD
ATOM     18  H   UNL     1      49.816   2.269   6.046  0.00  0.00    +0.000 HD
ATOM     19  H   UNL     1      49.010   3.324   7.106  0.00  0.00    +0.000 HD
ENDBRANCH   8  15
ENDBRANCH   7  11
ENDBRANCH   1   7
BRANCH   5  20
ATOM     20  C   UNL     1      46.648   5.148  13.306  0.00  0.00    +0.000 C 
BRANCH  20  21
ATOM     21  N   UNL     1      47.304   6.268  12.691  0.00  0.00    +0.000 N 
ATOM     22  C   UNL     1      48.382   6.872  13.282  0.00  0.00    +0.000 C 
ATOM     23  O   UNL     1      48.872   6.451  14.326  0.00  0.00    +0.000 OA
ATOM     24  H   UNL     1      46.790   6.766  11.970  0.00  0.00    +0.000 HD
BRANCH  22  25
ATOM     25  C   UNL     1      48.959   8.012  12.563  0.00  0.00    +0.000 A 
ATOM     26  C   UNL     1      50.316   8.028  12.270  0.00  0.00    +0.000 A 
ATOM     27  S   UNL     1      50.804   9.389  11.365  0.00  0.00    +0.000 S 
ATOM     28  C   UNL     1      49.228  10.034  11.383  0.00  0.00    +0.000 A 
ATOM     29  N   UNL     1      48.952  11.222  10.783  0.00  0.00    +0.000 NA
ATOM     30  C   UNL     1      47.725  11.610  10.905  0.00  0.00    +0.000 A 
ATOM     31  N   UNL     1      46.749  10.913  11.570  0.00  0.00    +0.000 N 
ATOM     32  C   UNL     1      46.973   9.691  12.157  0.00  0.00    +0.000 A 
ATOM     33  O   UNL     1      46.065   9.067  12.695  0.00  0.00    +0.000 OA
ATOM     34  C   UNL     1      48.341   9.216  12.059  0.00  0.00    +0.000 A 
ATOM     35  H   UNL     1      45.806  11.268  11.623  0.00  0.00    +0.000 HD
ENDBRANCH  22  25
ENDBRANCH  20  21
ENDBRANCH   5  20
TORSDOF 6
ENDMDL
MODEL 3
REMARK VINA RESULT:    -8.629      1.344      2.254
REMARK INTER + INTRA:         -12.460
REMARK INTER:                 -11.794
REMARK INTRA:                  -0.666
REMARK UNBOUND:                -0.804
REMARK  Name = 
REMARK  6 active torsions:
REMARK  status: ('A' for Active; 'I' for Inactive)
REMARK    1  A    between atoms: C_2  and  C_4
REMARK    2  A    between atoms: C_7  and  O_8
REMARK    3  A    between atoms: O_8  and  C_9
REMARK    4  A    between atoms: C_13  and  C_14
REMARK    5  A    between atoms: C_14  and  N_15
REMARK    6  A    between atoms: C_16  and  C_18
REMARK                            x       y       z     vdW  Elec       q    Type
REMARK                         _______ _______ _______ _____ _____    ______ ____
ROOT
ATOM      1  C   UNL     1      43.893   4.082  10.960  0.00  0.00    +0.000 A 
ATOM      2  C   UNL     1      42.841   4.413  11.803  0.00  0.00    +0.000 A 
ATOM      3  N   UNL     1      42.948   5.265  12.851  0.00  0.00    +0.000 NA
ATOM      4  C   UNL     1      44.169   5.797  13.078  0.00  0.00    +0.000 A 
ATOM      5  C   UNL     1      45.291   5.528  12.301  0.00  0.00    +0.000 A 
ATOM      6  C   UNL     1      45.121   4.701  11.186  0.00  0.00    +0.000 A 
ENDROOT
BRANCH   1   7
ATOM      7  O   UNL     1      43.638   3.213   9.930  0.00  0.00    +0.000 OA
BRANCH   7  11
ATOM      8  C   UNL     1      46.587   2.488   7.161  0.00  0.00    +0.000 A 
ATOM      9  C   UNL     1      46.260   1.439   8.008  0.00  0.00    +0.000 A 
ATOM     10  C   UNL     1      45.252   1.637   8.948  0.00  0.00    +0.000 A 
ATOM     11  C   UNL     1      44.644   2.886   9.049  0.00  0.00    +0.000 A 
ATOM     12  C   UNL     1      45.035   3.873   8.150  0.00  0.00    +0.000 A 
ATOM     13  N   UNL     1      46.001   3.716   7.209  0.00  0.00    +0.000 NA
BRANCH   8  15
ATOM     14  N   UNL     1      48.838   2.712   6.264  0.00  0.00    +0.000 NA
ATOM     15  C   UNL     1      47.622   2.300   6.087  0.00  0.00    +0.000 C 
ATOM     16  N   UNL     1      47.268   1.687   4.917  0.00  0.00    +0.000 N 
ATOM     17  H   UNL     1      49.396   2.450   5.449  0.00  0.00    +0.000 HD
ATOM     18  H   UNL     1      47.781   1.954   4.088  0.00  0.00    +0.000 HD
ATOM     19  H   UNL     1      46.260   1.641   4.775  0.00  0.00    +0.000 HD
ENDBRANCH   8  15
ENDBRANCH   7  11
ENDBRANCH   1   7
BRANCH   5  20
ATOM     20  C   UNL     1      46.626   6.123  12.635  0.00  0.00    +0.000 C 
BRANCH  20  21
ATOM     21  N   UNL     1      46.965   5.902  14.014  0.00  0.00    +0.000 N 
ATOM     22  C   UNL     1      47.413   4.682  14.448  0.00  0.00    +0.000 C 
ATOM     23  O   UNL     1      47.600   3.745  13.677  0.00  0.00    +0.000 OA
ATOM     24  H   UNL     1      46.608   6.569  14.691  0.00  0.00    +0.000 HD
BRANCH  22  25
ATOM     25  C   UNL     1      47.718   4.578  15.878  0.00  0.00    +0.000 A 
ATOM     26  C   UNL     1      47.196   3.526  16.620  0.00  0.00    +0.000 A 
ATOM     27  S   UNL     1      47.712   3.515  18.246  0.00  0.00    +0.000 S 
ATOM     28  C   UNL     1      48.603   4.949  18.030  0.00  0.00    +0.000 A 
ATOM     29  N   UNL     1      49.291   5.508  19.061  0.00  0.00    +0.000 NA
ATOM     30  C   UNL     1      49.892   6.612  18.766  0.00  0.00    +0.000 A 
ATOM     31  N   UNL     1      49.870   7.208  17.531  0.00  0.00    +0.000 N 
ATOM     32  C   UNL     1      49.222   6.660  16.450  0.00  0.00    +0.000 A 
ATOM     33  O   UNL     1      49.269   7.188  15.344  0.00  0.00    +0.000 OA
ATOM     34  C   UNL     1      48.518   5.422  16.733  0.00  0.00    +0.000 A 
ATOM     35  H   UNL     1      50.369   8.069  17.364  0.00  0.00    +0.000 HD
ENDBRANCH  22  25
ENDBRANCH  20  21
ENDBRANCH   5  20
TORSDOF 6
ENDMDL
MODEL 4
REMARK VINA RESULT:    -8.594      1.101      1.443
REMARK INTER + INTRA:         -12.412
REMARK INTER:                 -11.566
REMARK INTRA:                  -0.846
REMARK UNBOUND:                -0.804
REMARK  Name = 
REMARK  6 active torsions:
REMARK  status: ('A' for Active; 'I' for Inactive)
REMARK    1  A    between atoms: C_2  and  C_4
REMARK    2  A    between atoms: C_7  and  O_8
REMARK    3  A    between atoms: O_8  and  C_9
REMARK    4  A    between atoms: C_13  and  C_14
REMARK    5  A    between atoms: C_14  and  N_15
REMARK    6  A    between atoms: C_16  and  C_18
REMARK                            x       y       z     vdW  Elec       q    Type
REMARK                         _______ _______ _______ _____ _____    ______ ____
ROOT
ATOM      1  C   UNL     1      44.508   4.516  11.000  0.00  0.00    +0.000 A 
ATOM      2  C   UNL     1      44.254   3.722  12.109  0.00  0.00    +0.000 A 
ATOM      3  N   UNL     1      44.630   4.039  13.371  0.00  0.00    +0.000 NA
ATOM      4  C   UNL     1      45.311   5.196  13.528  0.00  0.00    +0.000 A 
ATOM      5  C   UNL     1      45.625   6.062  12.486  0.00  0.00    +0.000 A 
ATOM      6  C   UNL     1      45.154   5.733  11.211  0.00  0.00    +0.000 A 
ENDROOT
BRANCH   1   7
ATOM      7  O   UNL     1      44.057   4.077   9.781  0.00  0.00    +0.000 OA
BRANCH   7  11
ATOM      8  C   UNL     1      46.629   2.343   7.086  0.00  0.00    +0.000 A 
ATOM      9  C   UNL     1      46.076   1.504   8.044  0.00  0.00    +0.000 A 
ATOM     10  C   UNL     1      45.184   2.049   8.964  0.00  0.00    +0.000 A 
ATOM     11  C   UNL     1      44.916   3.415   8.934  0.00  0.00    +0.000 A 
ATOM     12  C   UNL     1      45.514   4.172   7.931  0.00  0.00    +0.000 A 
ATOM     13  N   UNL     1      46.376   3.678   7.006  0.00  0.00    +0.000 NA
BRANCH   8  15
ATOM     14  N   UNL     1      48.517   2.503   5.559  0.00  0.00    +0.000 NA
ATOM     15  C   UNL     1      47.546   1.787   6.032  0.00  0.00    +0.000 C 
ATOM     16  N   UNL     1      47.345   0.514   5.575  0.00  0.00    +0.000 N 
ATOM     17  H   UNL     1      49.050   1.937   4.895  0.00  0.00    +0.000 HD
ATOM     18  H   UNL     1      47.631   0.319   4.625  0.00  0.00    +0.000 HD
ATOM     19  H   UNL     1      46.426   0.142   5.809  0.00  0.00    +0.000 HD
ENDBRANCH   8  15
ENDBRANCH   7  11
ENDBRANCH   1   7
BRANCH   5  20
ATOM     20  C   UNL     1      46.418   7.310  12.727  0.00  0.00    +0.000 C 
BRANCH  20  21
ATOM     21  N   UNL     1      47.044   7.289  14.020  0.00  0.00    +0.000 N 
ATOM     22  C   UNL     1      48.272   6.712  14.206  0.00  0.00    +0.000 C 
ATOM     23  O   UNL     1      48.919   6.244  13.272  0.00  0.00    +0.000 OA
ATOM     24  H   UNL     1      46.447   7.455  14.826  0.00  0.00    +0.000 HD
BRANCH  22  25
ATOM     25  C   UNL     1      48.802   6.745  15.572  0.00  0.00    +0.000 A 
ATOM     26  C   UNL     1      49.440   7.887  16.037  0.00  0.00    +0.000 A 
ATOM     27  S   UNL     1      49.927   7.781  17.669  0.00  0.00    +0.000 S 
ATOM     28  C   UNL     1      49.353   6.183  17.793  0.00  0.00    +0.000 A 
ATOM     29  N   UNL     1      49.475   5.484  18.953  0.00  0.00    +0.000 NA
ATOM     30  C   UNL     1      49.031   4.272  18.895  0.00  0.00    +0.000 A 
ATOM     31  N   UNL     1      48.473   3.698  17.782  0.00  0.00    +0.000 N 
ATOM     32  C   UNL     1      48.293   4.378  16.602  0.00  0.00    +0.000 A 
ATOM     33  O   UNL     1      47.738   3.852  15.642  0.00  0.00    +0.000 OA
ATOM     34  C   UNL     1      48.789   5.742  16.610  0.00  0.00    +0.000 A 
ATOM     35  H   UNL     1      48.138   2.746  17.806  0.00  0.00    +0.000 HD
ENDBRANCH  22  25
ENDBRANCH  20  21
ENDBRANCH   5  20
TORSDOF 6
ENDMDL
MODEL 5
REMARK VINA RESULT:    -8.356      2.019      2.946
REMARK INTER + INTRA:         -12.091
REMARK INTER:                 -11.124
REMARK INTRA:                  -0.967
REMARK UNBOUND:                -0.804
REMARK  Name = 
REMARK  6 active torsions:
REMARK  status: ('A' for Active; 'I' for Inactive)
REMARK    1  A    between atoms: C_2  and  C_4
REMARK    2  A    between atoms: C_7  and  O_8
REMARK    3  A    between atoms: O_8  and  C_9
REMARK    4  A    between atoms: C_13  and  C_14
REMARK    5  A    between atoms: C_14  and  N_15
REMARK    6  A    between atoms: C_16  and  C_18
REMARK                            x       y       z     vdW  Elec       q    Type
REMARK                         _______ _______ _______ _____ _____    ______ ____
ROOT
ATOM      1  C   UNL     1      45.237   5.037  11.406  0.00  0.00    +0.000 A 
ATOM      2  C   UNL     1      45.482   6.395  11.553  0.00  0.00    +0.000 A 
ATOM      3  N   UNL     1      46.137   6.938  12.607  0.00  0.00    +0.000 NA
ATOM      4  C   UNL     1      46.549   6.084  13.570  0.00  0.00    +0.000 A 
ATOM      5  C   UNL     1      46.350   4.708  13.527  0.00  0.00    +0.000 A 
ATOM      6  C   UNL     1      45.735   4.181  12.387  0.00  0.00    +0.000 A 
ENDROOT
BRANCH   1   7
ATOM      7  O   UNL     1      44.572   4.625  10.279  0.00  0.00    +0.000 OA
BRANCH   7  11
ATOM      8  C   UNL     1      46.600   2.694   7.271  0.00  0.00    +0.000 A 
ATOM      9  C   UNL     1      45.984   1.890   8.220  0.00  0.00    +0.000 A 
ATOM     10  C   UNL     1      45.270   2.505   9.245  0.00  0.00    +0.000 A 
ATOM     11  C   UNL     1      45.239   3.895   9.322  0.00  0.00    +0.000 A 
ATOM     12  C   UNL     1      45.882   4.615   8.320  0.00  0.00    +0.000 A 
ATOM     13  N   UNL     1      46.574   4.055   7.295  0.00  0.00    +0.000 NA
BRANCH   8  15
ATOM     14  N   UNL     1      48.062   2.801   5.330  0.00  0.00    +0.000 NA
ATOM     15  C   UNL     1      47.326   2.075   6.110  0.00  0.00    +0.000 C 
ATOM     16  N   UNL     1      47.203   0.732   5.884  0.00  0.00    +0.000 N 
ATOM     17  H   UNL     1      48.507   2.194   4.637  0.00  0.00    +0.000 HD
ATOM     18  H   UNL     1      47.294   0.419   4.927  0.00  0.00    +0.000 HD
ATOM     19  H   UNL     1      46.417   0.310   6.378  0.00  0.00    +0.000 HD
ENDBRANCH   8  15
ENDBRANCH   7  11
ENDBRANCH   1   7
BRANCH   5  20
ATOM     20  C   UNL     1      46.799   3.824  14.651  0.00  0.00    +0.000 C 
BRANCH  20  21
ATOM     21  N   UNL     1      47.318   4.596  15.746  0.00  0.00    +0.000 N 
ATOM     22  C   UNL     1      47.150   4.189  17.043  0.00  0.00    +0.000 C 
ATOM     23  O   UNL     1      46.606   3.125  17.327  0.00  0.00    +0.000 OA
ATOM     24  H   UNL     1      47.558   5.564  15.557  0.00  0.00    +0.000 HD
BRANCH  22  25
ATOM     25  C   UNL     1      47.717   5.065  18.074  0.00  0.00    +0.000 A 
ATOM     26  C   UNL     1      46.872   5.782  18.909  0.00  0.00    +0.000 A 
ATOM     27  S   UNL     1      47.695   6.690  20.096  0.00  0.00    +0.000 S 
ATOM     28  C   UNL     1      49.211   6.200  19.498  0.00  0.00    +0.000 A 
ATOM     29  N   UNL     1      50.365   6.641  20.067  0.00  0.00    +0.000 NA
ATOM     30  C   UNL     1      51.441   6.221  19.490  0.00  0.00    +0.000 A 
ATOM     31  N   UNL     1      51.468   5.396  18.395  0.00  0.00    +0.000 N 
ATOM     32  C   UNL     1      50.330   4.894  17.811  0.00  0.00    +0.000 A 
ATOM     33  O   UNL     1      50.389   4.112  16.867  0.00  0.00    +0.000 OA
ATOM     34  C   UNL     1      49.091   5.348  18.415  0.00  0.00    +0.000 A 
ATOM     35  H   UNL     1      52.345   5.096  17.995  0.00  0.00    +0.000 HD
ENDBRANCH  22  25
ENDBRANCH  20  21
ENDBRANCH   5  20
TORSDOF 6
ENDMDL
MODEL 6
REMARK VINA RESULT:    -8.118      1.627      2.007
REMARK INTER + INTRA:         -11.770
REMARK INTER:                 -10.684
REMARK INTRA:                  -1.085
REMARK UNBOUND:                -0.804
REMARK  Name = 
REMARK  6 active torsions:
REMARK  status: ('A' for Active; 'I' for Inactive)
REMARK    1  A    between atoms: C_2  and  C_4
REMARK    2  A    between atoms: C_7  and  O_8
REMARK    3  A    between atoms: O_8  and  C_9
REMARK    4  A    between atoms: C_13  and  C_14
REMARK    5  A    between atoms: C_14  and  N_15
REMARK    6  A    between atoms: C_16  and  C_18
REMARK                            x       y       z     vdW  Elec       q    Type
REMARK                         _______ _______ _______ _____ _____    ______ ____
ROOT
ATOM      1  C   UNL     1      45.079   6.265  11.210  0.00  0.00    +0.000 A 
ATOM      2  C   UNL     1      44.387   7.453  11.397  0.00  0.00    +0.000 A 
ATOM      3  N   UNL     1      44.955   8.601  11.839  0.00  0.00    +0.000 NA
ATOM      4  C   UNL     1      46.274   8.552  12.127  0.00  0.00    +0.000 A 
ATOM      5  C   UNL     1      47.060   7.414  11.984  0.00  0.00    +0.000 A 
ATOM      6  C   UNL     1      46.451   6.272  11.456  0.00  0.00    +0.000 A 
ENDROOT
BRANCH   1   7
ATOM      7  O   UNL     1      44.378   5.182  10.745  0.00  0.00    +0.000 OA
BRANCH   7  11
ATOM      8  C   UNL     1      46.066   2.438   8.193  0.00  0.00    +0.000 A 
ATOM      9  C   UNL     1      46.215   3.775   7.853  0.00  0.00    +0.000 A 
ATOM     10  C   UNL     1      45.674   4.738   8.701  0.00  0.00    +0.000 A 
ATOM     11  C   UNL     1      44.960   4.336   9.827  0.00  0.00    +0.000 A 
ATOM     12  C   UNL     1      44.871   2.972  10.088  0.00  0.00    +0.000 A 
ATOM     13  N   UNL     1      45.396   2.003   9.296  0.00  0.00    +0.000 NA
BRANCH   8  15
ATOM     14  N   UNL     1      46.774   0.148   7.774  0.00  0.00    +0.000 NA
ATOM     15  C   UNL     1      46.689   1.366   7.342  0.00  0.00    +0.000 C 
ATOM     16  N   UNL     1      47.166   1.691   6.103  0.00  0.00    +0.000 N 
ATOM     17  H   UNL     1      47.179  -0.435   7.038  0.00  0.00    +0.000 HD
ATOM     18  H   UNL     1      47.936   1.138   5.750  0.00  0.00    +0.000 HD
ATOM     19  H   UNL     1      47.289   2.693   5.967  0.00  0.00    +0.000 HD
ENDBRANCH   8  15
ENDBRANCH   7  11
ENDBRANCH   1   7
BRANCH   5  20
ATOM     20  C   UNL     1      48.511   7.422  12.362  0.00  0.00    +0.000 C 
BRANCH  20  21
ATOM     21  N   UNL     1      48.738   6.687  13.575  0.00  0.00    +0.000 N 
ATOM     22  C   UNL     1      48.733   7.310  14.795  0.00  0.00    +0.000 C 
ATOM     23  O   UNL     1      48.475   8.505  14.914  0.00  0.00    +0.000 OA
ATOM     24  H   UNL     1      49.172   5.772  13.487  0.00  0.00    +0.000 HD
BRANCH  22  25
ATOM     25  C   UNL     1      48.987   6.455  15.959  0.00  0.00    +0.000 A 
ATOM     26  C   UNL     1      49.978   6.803  16.866  0.00  0.00    +0.000 A 
ATOM     27  S   UNL     1      50.088   5.741  18.197  0.00  0.00    +0.000 S 
ATOM     28  C   UNL     1      48.853   4.748  17.576  0.00  0.00    +0.000 A 
ATOM     29  N   UNL     1      48.457   3.628  18.237  0.00  0.00    +0.000 NA
ATOM     30  C   UNL     1      47.537   2.949  17.636  0.00  0.00    +0.000 A 
ATOM     31  N   UNL     1      46.976   3.291  16.433  0.00  0.00    +0.000 N 
ATOM     32  C   UNL     1      47.315   4.433  15.749  0.00  0.00    +0.000 A 
ATOM     33  O   UNL     1      46.754   4.741  14.703  0.00  0.00    +0.000 OA
ATOM     34  C   UNL     1      48.356   5.226  16.377  0.00  0.00    +0.000 A 
ATOM     35  H   UNL     1      46.254   2.720  16.018  0.00  0.00    +0.000 HD
ENDBRANCH  22  25
ENDBRANCH  20  21
ENDBRANCH   5  20
TORSDOF 6
ENDMDL
MODEL 7
REMARK VINA RESULT:    -8.023      3.189      4.553
REMARK INTER + INTRA:         -11.640
REMARK INTER:                 -10.571
REMARK INTRA:                  -1.070
REMARK UNBOUND:                -0.804
REMARK  Name = 
REMARK  6 active torsions:
REMARK  status: ('A' for Active; 'I' for Inactive)
REMARK    1  A    between atoms: C_2  and  C_4
REMARK    2  A    between atoms: C_7  and  O_8
REMARK    3  A    between atoms: O_8  and  C_9
REMARK    4  A    between atoms: C_13  and  C_14
REMARK    5  A    between atoms: C_14  and  N_15
REMARK    6  A    between atoms: C_16  and  C_18
REMARK                            x       y       z     vdW  Elec       q    Type
REMARK                         _______ _______ _______ _____ _____    ______ ____
ROOT
ATOM      1  C   UNL     1      44.647   4.343  11.291  0.00  0.00    +0.000 A 
ATOM      2  C   UNL     1      45.269   3.591  12.277  0.00  0.00    +0.000 A 
ATOM      3  N   UNL     1      45.806   4.115  13.405  0.00  0.00    +0.000 NA
ATOM      4  C   UNL     1      45.734   5.457  13.545  0.00  0.00    +0.000 A 
ATOM      5  C   UNL     1      45.140   6.304  12.616  0.00  0.00    +0.000 A 
ATOM      6  C   UNL     1      44.534   5.716  11.501  0.00  0.00    +0.000 A 
ENDROOT
BRANCH   1   7
ATOM      7  O   UNL     1      44.137   3.678  10.205  0.00  0.00    +0.000 OA
BRANCH   7  11
ATOM      8  C   UNL     1      46.648   2.300   7.259  0.00  0.00    +0.000 A 
ATOM      9  C   UNL     1      46.407   3.666   7.280  0.00  0.00    +0.000 A 
ATOM     10  C   UNL     1      45.577   4.177   8.275  0.00  0.00    +0.000 A 
ATOM     11  C   UNL     1      44.974   3.306   9.178  0.00  0.00    +0.000 A 
ATOM     12  C   UNL     1      45.282   1.953   9.081  0.00  0.00    +0.000 A 
ATOM     13  N   UNL     1      46.098   1.417   8.137  0.00  0.00    +0.000 NA
BRANCH   8  15
ATOM     14  N   UNL     1      48.741   2.261   6.018  0.00  0.00    +0.000 NA
ATOM     15  C   UNL     1      47.589   1.712   6.244  0.00  0.00    +0.000 C 
ATOM     16  N   UNL     1      47.216   0.589   5.559  0.00  0.00    +0.000 N 
ATOM     17  H   UNL     1      49.249   1.691   5.337  0.00  0.00    +0.000 HD
ATOM     18  H   UNL     1      47.600   0.472   4.631  0.00  0.00    +0.000 HD
ATOM     19  H   UNL     1      46.217   0.395   5.616  0.00  0.00    +0.000 HD
ENDBRANCH   8  15
ENDBRANCH   7  11
ENDBRANCH   1   7
BRANCH   5  20
ATOM     20  C   UNL     1      45.133   7.790  12.816  0.00  0.00    +0.000 C 
BRANCH  20  21
ATOM     21  N   UNL     1      46.457   8.337  12.718  0.00  0.00    +0.000 N 
ATOM     22  C   UNL     1      46.684   9.540  12.103  0.00  0.00    +0.000 C 
ATOM     23  O   UNL     1      45.768  10.230  11.664  0.00  0.00    +0.000 OA
ATOM     24  H   UNL     1      47.234   7.698  12.859  0.00  0.00    +0.000 HD
BRANCH  22  25
ATOM     25  C   UNL     1      48.079   9.989  12.057  0.00  0.00    +0.000 A 
ATOM     26  C   UNL     1      48.378  11.332  12.240  0.00  0.00    +0.000 A 
ATOM     27  S   UNL     1      50.050  11.668  12.232  0.00  0.00    +0.000 S 
ATOM     28  C   UNL     1      50.431  10.037  11.925  0.00  0.00    +0.000 A 
ATOM     29  N   UNL     1      51.722   9.634  11.785  0.00  0.00    +0.000 NA
ATOM     30  C   UNL     1      51.864   8.378  11.519  0.00  0.00    +0.000 A 
ATOM     31  N   UNL     1      50.830   7.487  11.382  0.00  0.00    +0.000 N 
ATOM     32  C   UNL     1      49.514   7.841  11.554  0.00  0.00    +0.000 A 
ATOM     33  O   UNL     1      48.616   7.008  11.480  0.00  0.00    +0.000 OA
ATOM     34  C   UNL     1      49.299   9.247  11.842  0.00  0.00    +0.000 A 
ATOM     35  H   UNL     1      51.010   6.515  11.181  0.00  0.00    +0.000 HD
ENDBRANCH  22  25
ENDBRANCH  20  21
ENDBRANCH   5  20
TORSDOF 6
ENDMDL
MODEL 8
REMARK VINA RESULT:    -7.660      3.898      8.226
REMARK INTER + INTRA:         -11.151
REMARK INTER:                  -9.945
REMARK INTRA:                  -1.206
REMARK UNBOUND:                -0.804
REMARK  Name = 
REMARK  6 active torsions:
REMARK  status: ('A' for Active; 'I' for Inactive)
REMARK    1  A    between atoms: C_2  and  C_4
REMARK    2  A    between atoms: C_7  and  O_8
REMARK    3  A    between atoms: O_8  and  C_9
REMARK    4  A    between atoms: C_13  and  C_14
REMARK    5  A    between atoms: C_14  and  N_15
REMARK    6  A    between atoms: C_16  and  C_18
REMARK                            x       y       z     vdW  Elec       q    Type
REMARK                         _______ _______ _______ _____ _____    ______ ____
ROOT
ATOM      1  C   UNL     1      48.014   7.851  19.081  0.00  0.00    +0.000 A 
ATOM      2  C   UNL     1      47.677   8.985  19.807  0.00  0.00    +0.000 A 
ATOM      3  N   UNL     1      47.547  10.221  19.267  0.00  0.00    +0.000 NA
ATOM      4  C   UNL     1      47.786  10.331  17.942  0.00  0.00    +0.000 A 
ATOM      5  C   UNL     1      48.136   9.263  17.122  0.00  0.00    +0.000 A 
ATOM      6  C   UNL     1      48.187   7.993  17.705  0.00  0.00    +0.000 A 
ENDROOT
BRANCH   1   7
ATOM      7  O   UNL     1      48.098   6.660  19.756  0.00  0.00    +0.000 OA
BRANCH   7  11
ATOM      8  C   UNL     1      49.356   3.298  17.756  0.00  0.00    +0.000 A 
ATOM      9  C   UNL     1      47.999   3.583  17.699  0.00  0.00    +0.000 A 
ATOM     10  C   UNL     1      47.534   4.724  18.347  0.00  0.00    +0.000 A 
ATOM     11  C   UNL     1      48.425   5.510  19.073  0.00  0.00    +0.000 A 
ATOM     12  C   UNL     1      49.768   5.147  19.066  0.00  0.00    +0.000 A 
ATOM     13  N   UNL     1      50.264   4.053  18.434  0.00  0.00    +0.000 NA
BRANCH   8  15
ATOM     14  N   UNL     1      49.426   1.764  15.869  0.00  0.00    +0.000 NA
ATOM     15  C   UNL     1      49.913   2.113  17.017  0.00  0.00    +0.000 C 
ATOM     16  N   UNL     1      50.943   1.404  17.571  0.00  0.00    +0.000 N 
ATOM     17  H   UNL     1      49.966   0.973  15.509  0.00  0.00    +0.000 HD
ATOM     18  H   UNL     1      51.003   0.423  17.333  0.00  0.00    +0.000 HD
ATOM     19  H   UNL     1      51.074   1.592  18.565  0.00  0.00    +0.000 HD
ENDBRANCH   8  15
ENDBRANCH   7  11
ENDBRANCH   1   7
BRANCH   5  20
ATOM     20  C   UNL     1      48.426   9.466  15.666  0.00  0.00    +0.000 C 
BRANCH  20  21
ATOM     21  N   UNL     1      47.464   8.787  14.843  0.00  0.00    +0.000 N 
ATOM     22  C   UNL     1      47.856   7.870  13.903  0.00  0.00    +0.000 C 
ATOM     23  O   UNL     1      49.032   7.543  13.763  0.00  0.00    +0.000 OA
ATOM     24  H   UNL     1      46.538   9.197  14.778  0.00  0.00    +0.000 HD
BRANCH  22  25
ATOM     25  C   UNL     1      46.784   7.250  13.118  0.00  0.00    +0.000 A 
ATOM     26  C   UNL     1      45.964   8.042  12.326  0.00  0.00    +0.000 A 
ATOM     27  S   UNL     1      44.821   7.152  11.424  0.00  0.00    +0.000 S 
ATOM     28  C   UNL     1      45.345   5.683  12.106  0.00  0.00    +0.000 A 
ATOM     29  N   UNL     1      44.758   4.505  11.766  0.00  0.00    +0.000 NA
ATOM     30  C   UNL     1      45.229   3.475  12.387  0.00  0.00    +0.000 A 
ATOM     31  N   UNL     1      46.237   3.516  13.315  0.00  0.00    +0.000 N 
ATOM     32  C   UNL     1      46.886   4.677  13.660  0.00  0.00    +0.000 A 
ATOM     33  O   UNL     1      47.822   4.672  14.453  0.00  0.00    +0.000 OA
ATOM     34  C   UNL     1      46.384   5.868  13.000  0.00  0.00    +0.000 A 
ATOM     35  H   UNL     1      46.566   2.672  13.759  0.00  0.00    +0.000 HD
ENDBRANCH  22  25
ENDBRANCH  20  21
ENDBRANCH   5  20
TORSDOF 6
ENDMDL
MODEL 9
REMARK VINA RESULT:    -7.579      1.982      2.545
REMARK INTER + INTRA:         -11.041
REMARK INTER:                 -10.303
REMARK INTRA:                  -0.737
REMARK UNBOUND:                -0.804
REMARK  Name = 
REMARK  6 active torsions:
REMARK  status: ('A' for Active; 'I' for Inactive)
REMARK    1  A    between atoms: C_2  and  C_4
REMARK    2  A    between atoms: C_7  and  O_8
REMARK    3  A    between atoms: O_8  and  C_9
REMARK    4  A    between atoms: C_13  and  C_14
REMARK    5  A    between atoms: C_14  and  N_15
REMARK    6  A    between atoms: C_16  and  C_18
REMARK                            x       y       z     vdW  Elec       q    Type
REMARK                         _______ _______ _______ _____ _____    ______ ____
ROOT
ATOM      1  C   UNL     1      44.960   5.762  11.191  0.00  0.00    +0.000 A 
ATOM      2  C   UNL     1      44.451   7.052  11.260  0.00  0.00    +0.000 A 
ATOM      3  N   UNL     1      44.992   8.041  12.011  0.00  0.00    +0.000 NA
ATOM      4  C   UNL     1      46.081   7.720  12.743  0.00  0.00    +0.000 A 
ATOM      5  C   UNL     1      46.667   6.459  12.754  0.00  0.00    +0.000 A 
ATOM      6  C   UNL     1      46.122   5.487  11.909  0.00  0.00    +0.000 A 
ENDROOT
BRANCH   1   7
ATOM      7  O   UNL     1      44.317   4.863  10.379  0.00  0.00    +0.000 OA
BRANCH   7  11
ATOM      8  C   UNL     1      46.556   2.706   7.692  0.00  0.00    +0.000 A 
ATOM      9  C   UNL     1      45.860   1.977   8.647  0.00  0.00    +0.000 A 
ATOM     10  C   UNL     1      45.074   2.669   9.564  0.00  0.00    +0.000 A 
ATOM     11  C   UNL     1      45.050   4.061   9.534  0.00  0.00    +0.000 A 
ATOM     12  C   UNL     1      45.776   4.702   8.535  0.00  0.00    +0.000 A 
ATOM     13  N   UNL     1      46.542   4.065   7.612  0.00  0.00    +0.000 NA
BRANCH   8  15
ATOM     14  N   UNL     1      47.046   0.804   6.256  0.00  0.00    +0.000 NA
ATOM     15  C   UNL     1      47.366   1.998   6.641  0.00  0.00    +0.000 C 
ATOM     16  N   UNL     1      48.448   2.629   6.095  0.00  0.00    +0.000 N 
ATOM     17  H   UNL     1      47.682   0.517   5.508  0.00  0.00    +0.000 HD
ATOM     18  H   UNL     1      49.203   2.042   5.766  0.00  0.00    +0.000 HD
ATOM     19  H   UNL     1      48.763   3.433   6.637  0.00  0.00    +0.000 HD
ENDBRANCH   8  15
ENDBRANCH   7  11
ENDBRANCH   1   7
BRANCH   5  20
ATOM     20  C   UNL     1      47.852   6.163  13.623  0.00  0.00    +0.000 C 
BRANCH  20  21
ATOM     21  N   UNL     1      47.746   6.824  14.894  0.00  0.00    +0.000 N 
ATOM     22  C   UNL     1      48.599   6.524  15.923  0.00  0.00    +0.000 C 
ATOM     23  O   UNL     1      49.525   5.727  15.791  0.00  0.00    +0.000 OA
ATOM     24  H   UNL     1      46.872   7.300  15.097  0.00  0.00    +0.000 HD
BRANCH  22  25
ATOM     25  C   UNL     1      48.386   7.258  17.174  0.00  0.00    +0.000 A 
ATOM     26  C   UNL     1      48.543   8.637  17.200  0.00  0.00    +0.000 A 
ATOM     27  S   UNL     1      48.183   9.338  18.713  0.00  0.00    +0.000 S 
ATOM     28  C   UNL     1      47.861   7.815  19.402  0.00  0.00    +0.000 A 
ATOM     29  N   UNL     1      47.503   7.700  20.709  0.00  0.00    +0.000 NA
ATOM     30  C   UNL     1      47.325   6.485  21.109  0.00  0.00    +0.000 A 
ATOM     31  N   UNL     1      47.469   5.374  20.319  0.00  0.00    +0.000 N 
ATOM     32  C   UNL     1      47.790   5.444  18.985  0.00  0.00    +0.000 A 
ATOM     33  O   UNL     1      47.856   4.434  18.291  0.00  0.00    +0.000 OA
ATOM     34  C   UNL     1      48.014   6.789  18.488  0.00  0.00    +0.000 A 
ATOM     35  H   UNL     1      47.307   4.450  20.692  0.00  0.00    +0.000 HD
ENDBRANCH  22  25
ENDBRANCH  20  21
ENDBRANCH   5  20
TORSDOF 6
ENDMDL
