MODEL 1
REMARK VINA RESULT:    -8.720      0.000      0.000
REMARK INTER + INTRA:         -12.652
REMARK INTER:                 -11.779
REMARK INTRA:                  -0.873
REMARK UNBOUND:                -0.873
REMARK  Name = 
REMARK  7 active torsions:
REMARK  status: ('A' for Active; 'I' for Inactive)
REMARK    1  A    between atoms: C_1  and  O_2
REMARK    2  A    between atoms: O_2  and  C_3
REMARK    3  A    between atoms: C_5  and  C_6
REMARK    4  A    between atoms: C_6  and  C_7
REMARK    5  A    between atoms: C_7  and  N_8
REMARK    6  A    between atoms: C_12  and  C_13
REMARK    7  A    between atoms: C_19  and  C_20
REMARK                            x       y       z     vdW  Elec       q    Type
REMARK                         _______ _______ _______ _____ _____    ______ ____
ROOT
ATOM      1  C   UNL     1      43.373   5.403  12.286  0.00  0.00    +0.000 C 
ENDROOT
BRANCH   1   4
ATOM      2  C   UNL     1      46.722   4.467  13.850  0.00  0.00    +0.000 A 
ATOM      3  C   UNL     1      45.382   4.414  13.469  0.00  0.00    +0.000 A 
ATOM      4  C   UNL     1      44.848   5.397  12.627  0.00  0.00    +0.000 A 
ATOM      5  C   UNL     1      45.675   6.441  12.182  0.00  0.00    +0.000 A 
ATOM      6  C   UNL     1      47.018   6.552  12.590  0.00  0.00    +0.000 A 
ATOM      7  C   UNL     1      47.525   5.525  13.406  0.00  0.00    +0.000 A 
BRANCH   6   8
ATOM      8  C   UNL     1      47.830   7.751  12.264  0.00  0.00    +0.000 A 
ATOM      9  C   UNL     1      49.185   7.624  11.901  0.00  0.00    +0.000 A 
ATOM     10  C   UNL     1      49.945   8.725  11.496  0.00  0.00    +0.000 A 
ATOM     11  C   UNL     1      49.363   9.985  11.435  0.00  0.00    +0.000 A 
ATOM     12  C   UNL     1      48.030  10.146  11.802  0.00  0.00    +0.000 A 
ATOM     13  C   UNL     1      47.276   9.044  12.223  0.00  0.00    +0.000 A 
ENDBRANCH   6   8
BRANCH   2  15
ATOM     14  C   UNL     1      47.299   3.836  16.066  0.00  0.00    +0.000 C 
ATOM     15  O   UNL     1      47.359   3.576  14.669  0.00  0.00    +0.000 OA
ENDBRANCH   2  15
ENDBRANCH   1   4
BRANCH   1  16
ATOM     16  C   UNL     1      43.108   4.578  11.021  0.00  0.00    +0.000 C 
BRANCH  16  17
ATOM     17  N   UNL     1      43.899   5.073   9.886  0.00  0.00    +0.000 N 
ATOM     18  C   UNL     1      44.657   4.056   9.274  0.00  0.00    +0.000 A 
ATOM     19  C   UNL     1      45.463   4.377   8.184  0.00  0.00    +0.000 A 
ATOM     20  C   UNL     1      46.218   3.375   7.568  0.00  0.00    +0.000 A 
ATOM     21  C   UNL     1      46.157   2.067   8.050  0.00  0.00    +0.000 A 
ATOM     22  C   UNL     1      45.318   1.834   9.123  0.00  0.00    +0.000 A 
ATOM     23  N   UNL     1      44.576   2.791   9.730  0.00  0.00    +0.000 NA
ATOM     24  H   UNL     1      44.527   5.828  10.151  0.00  0.00    +0.000 HD
BRANCH  21  25
ATOM     25  C   UNL     1      46.974   1.005   7.411  0.00  0.00    +0.000 C 
ATOM     26  N   UNL     1      47.917   1.358   6.487  0.00  0.00    +0.000 N 
ATOM     27  O   UNL     1      46.806  -0.173   7.695  0.00  0.00    +0.000 OA
ATOM     28  H   UNL     1      48.131   2.291   6.175  0.00  0.00    +0.000 HD
ATOM     29  H   UNL     1      48.445   0.600   6.072  0.00  0.00    +0.000 HD
ENDBRANCH  21  25
ENDBRANCH  16  17
ENDBRANCH   1  16
TORSDOF 6
ENDMDL
MODEL 2
REMARK VINA RESULT:    -7.741      1.731      4.032
REMARK INTER + INTRA:         -11.329
REMARK INTER:                 -10.361
REMARK INTRA:                  -0.968
REMARK UNBOUND:                -0.873
REMARK  Name = 
REMARK  7 active torsions:
REMARK  status: ('A' for Active; 'I' for Inactive)
REMARK    1  A    between atoms: C_1  and  O_2
REMARK    2  A    between atoms: O_2  and  C_3
REMARK    3  A    between atoms: C_5  and  C_6
REMARK    4  A    between atoms: C_6  and  C_7
REMARK    5  A    between atoms: C_7  and  N_8
REMARK    6  A    between atoms: C_12  and  C_13
REMARK    7  A    between atoms: C_19  and  C_20
REMARK                            x       y       z     vdW  Elec       q    Type
REMARK                         _______ _______ _______ _____ _____    ______ ____
ROOT
ATOM      1  C   UNL     1      43.861   5.647  11.981  0.00  0.00    +0.000 C 
ENDROOT
BRANCH   1   4
ATOM      2  C   UNL     1      47.481   6.842  11.903  0.00  0.00    +0.000 A 
ATOM      3  C   UNL     1      46.151   6.638  11.542  0.00  0.00    +0.000 A 
ATOM      4  C   UNL     1      45.281   5.959  12.405  0.00  0.00    +0.000 A 
ATOM      5  C   UNL     1      45.769   5.478  13.630  0.00  0.00    +0.000 A 
ATOM      6  C   UNL     1      47.119   5.622  14.001  0.00  0.00    +0.000 A 
ATOM      7  C   UNL     1      47.950   6.342  13.124  0.00  0.00    +0.000 A 
BRANCH   6   8
ATOM      8  C   UNL     1      47.666   4.955  15.209  0.00  0.00    +0.000 A 
ATOM      9  C   UNL     1      48.484   5.661  16.113  0.00  0.00    +0.000 A 
ATOM     10  C   UNL     1      48.932   5.086  17.305  0.00  0.00    +0.000 A 
ATOM     11  C   UNL     1      48.562   3.788  17.631  0.00  0.00    +0.000 A 
ATOM     12  C   UNL     1      47.767   3.057  16.752  0.00  0.00    +0.000 A 
ATOM     13  C   UNL     1      47.333   3.631  15.551  0.00  0.00    +0.000 A 
ENDBRANCH   6   8
BRANCH   2  15
ATOM     14  C   UNL     1      49.021   8.641  11.721  0.00  0.00    +0.000 C 
ATOM     15  O   UNL     1      48.429   7.481  11.151  0.00  0.00    +0.000 OA
ENDBRANCH   2  15
ENDBRANCH   1   4
BRANCH   1  16
ATOM     16  C   UNL     1      43.825   5.171  10.524  0.00  0.00    +0.000 C 
BRANCH  16  17
ATOM     17  N   UNL     1      44.038   3.720  10.432  0.00  0.00    +0.000 N 
ATOM     18  C   UNL     1      44.896   3.368   9.371  0.00  0.00    +0.000 A 
ATOM     19  C   UNL     1      45.188   2.023   9.157  0.00  0.00    +0.000 A 
ATOM     20  C   UNL     1      46.039   1.663   8.108  0.00  0.00    +0.000 A 
ATOM     21  C   UNL     1      46.587   2.653   7.291  0.00  0.00    +0.000 A 
ATOM     22  C   UNL     1      46.260   3.961   7.587  0.00  0.00    +0.000 A 
ATOM     23  N   UNL     1      45.439   4.329   8.600  0.00  0.00    +0.000 NA
ATOM     24  H   UNL     1      43.167   3.206  10.326  0.00  0.00    +0.000 HD
BRANCH  21  25
ATOM     25  C   UNL     1      47.475   2.271   6.163  0.00  0.00    +0.000 C 
ATOM     26  N   UNL     1      48.819   2.501   6.269  0.00  0.00    +0.000 N 
ATOM     27  O   UNL     1      47.019   1.768   5.147  0.00  0.00    +0.000 OA
ATOM     28  H   UNL     1      49.297   2.915   7.053  0.00  0.00    +0.000 HD
ATOM     29  H   UNL     1      49.384   2.232   5.473  0.00  0.00    +0.000 HD
ENDBRANCH  21  25
ENDBRANCH  16  17
ENDBRANCH   1  16
TORSDOF 6
ENDMDL
MODEL 3
REMARK VINA RESULT:    -7.651      1.651      2.238
REMARK INTER + INTRA:         -11.207
REMARK INTER:                 -10.857
REMARK INTRA:                  -0.350
REMARK UNBOUND:                -0.873
REMARK  Name = 
REMARK  7 active torsions:
REMARK  status: ('A' for Active; 'I' for Inactive)
REMARK    1  A    between atoms: C_1  and  O_2
REMARK    2  A    between atoms: O_2  and  C_3
REMARK    3  A    between atoms: C_5  and  C_6
REMARK    4  A    between atoms: C_6  and  C_7
REMARK    5  A    between atoms: C_7  and  N_8
REMARK    6  A    between atoms: C_12  and  C_13
REMARK    7  A    between atoms: C_19  and  C_20
REMARK                            x       y       z     vdW  Elec       q    Type
REMARK                         _______ _______ _______ _____ _____    ______ ____
ROOT
ATOM      1  C   UNL     1      43.555   4.575  12.466  0.00  0.00    +0.000 C 
ENDROOT
BRANCH   1   4
ATOM      2  C   UNL     1      46.986   6.050  13.231  0.00  0.00    +0.000 A 
ATOM      3  C   UNL     1      45.938   5.139  13.110  0.00  0.00    +0.000 A 
ATOM      4  C   UNL     1      44.731   5.527  12.515  0.00  0.00    +0.000 A 
ATOM      5  C   UNL     1      44.587   6.845  12.055  0.00  0.00    +0.000 A 
ATOM      6  C   UNL     1      45.607   7.804  12.209  0.00  0.00    +0.000 A 
ATOM      7  C   UNL     1      46.816   7.364  12.778  0.00  0.00    +0.000 A 
BRANCH   6   8
ATOM      8  C   UNL     1      45.380   9.235  11.887  0.00  0.00    +0.000 A 
ATOM      9  C   UNL     1      46.424  10.173  12.010  0.00  0.00    +0.000 A 
ATOM     10  C   UNL     1      46.264  11.506  11.621  0.00  0.00    +0.000 A 
ATOM     11  C   UNL     1      45.055  11.934  11.090  0.00  0.00    +0.000 A 
ATOM     12  C   UNL     1      43.999  11.035  10.971  0.00  0.00    +0.000 A 
ATOM     13  C   UNL     1      44.156   9.704  11.375  0.00  0.00    +0.000 A 
ENDBRANCH   6   8
BRANCH   2  15
ATOM     14  C   UNL     1      48.656   6.718  14.782  0.00  0.00    +0.000 C 
ATOM     15  O   UNL     1      48.208   5.799  13.795  0.00  0.00    +0.000 OA
ENDBRANCH   2  15
ENDBRANCH   1   4
BRANCH   1  16
ATOM     16  C   UNL     1      43.181   4.254  11.014  0.00  0.00    +0.000 C 
BRANCH  16  17
ATOM     17  N   UNL     1      44.056   4.961  10.069  0.00  0.00    +0.000 N 
ATOM     18  C   UNL     1      44.862   4.080   9.319  0.00  0.00    +0.000 A 
ATOM     19  C   UNL     1      45.749   4.608   8.384  0.00  0.00    +0.000 A 
ATOM     20  C   UNL     1      46.551   3.743   7.634  0.00  0.00    +0.000 A 
ATOM     21  C   UNL     1      46.455   2.365   7.829  0.00  0.00    +0.000 A 
ATOM     22  C   UNL     1      45.536   1.928   8.763  0.00  0.00    +0.000 A 
ATOM     23  N   UNL     1      44.748   2.750   9.497  0.00  0.00    +0.000 NA
ATOM     24  H   UNL     1      44.661   5.636  10.531  0.00  0.00    +0.000 HD
BRANCH  21  25
ATOM     25  C   UNL     1      47.321   1.445   7.048  0.00  0.00    +0.000 C 
ATOM     26  N   UNL     1      48.450   1.939   6.456  0.00  0.00    +0.000 N 
ATOM     27  O   UNL     1      47.031   0.264   6.923  0.00  0.00    +0.000 OA
ATOM     28  H   UNL     1      48.777   2.891   6.488  0.00  0.00    +0.000 HD
ATOM     29  H   UNL     1      49.006   1.277   5.928  0.00  0.00    +0.000 HD
ENDBRANCH  21  25
ENDBRANCH  16  17
ENDBRANCH   1  16
TORSDOF 6
ENDMDL
MODEL 4
REMARK VINA RESULT:    -7.289      2.983      7.072
REMARK INTER + INTRA:         -10.719
REMARK INTER:                  -9.894
REMARK INTRA:                  -0.825
REMARK UNBOUND:                -0.873
REMARK  Name = 
REMARK  7 active torsions:
REMARK  status: ('A' for Active; 'I' for Inactive)
REMARK    1  A    between atoms: C_1  and  O_2
REMARK    2  A    between atoms: O_2  and  C_3
REMARK    3  A    between atoms: C_5  and  C_6
REMARK    4  A    between atoms: C_6  and  C_7
REMARK    5  A    between atoms: C_7  and  N_8
REMARK    6  A    between atoms: C_12  and  C_13
REMARK    7  A    between atoms: C_19  and  C_20
REMARK                            x       y       z     vdW  Elec       q    Type
REMARK                         _______ _______ _______ _____ _____    ______ ____
ROOT
ATOM      1  C   UNL     1      46.071   6.872  11.054  0.00  0.00    +0.000 C 
ENDROOT
BRANCH   1   4
ATOM      2  C   UNL     1      43.903   3.758  10.683  0.00  0.00    +0.000 A 
ATOM      3  C   UNL     1      44.409   4.964  11.164  0.00  0.00    +0.000 A 
ATOM      4  C   UNL     1      45.450   5.613  10.488  0.00  0.00    +0.000 A 
ATOM      5  C   UNL     1      45.984   5.027   9.329  0.00  0.00    +0.000 A 
ATOM      6  C   UNL     1      45.531   3.784   8.847  0.00  0.00    +0.000 A 
ATOM      7  C   UNL     1      44.460   3.184   9.534  0.00  0.00    +0.000 A 
BRANCH   6   8
ATOM      8  C   UNL     1      46.221   3.088   7.733  0.00  0.00    +0.000 A 
ATOM      9  C   UNL     1      46.586   1.732   7.848  0.00  0.00    +0.000 A 
ATOM     10  C   UNL     1      47.148   1.027   6.781  0.00  0.00    +0.000 A 
ATOM     11  C   UNL     1      47.352   1.660   5.562  0.00  0.00    +0.000 A 
ATOM     12  C   UNL     1      47.017   3.004   5.420  0.00  0.00    +0.000 A 
ATOM     13  C   UNL     1      46.468   3.712   6.496  0.00  0.00    +0.000 A 
ENDBRANCH   6   8
BRANCH   2  15
ATOM     14  C   UNL     1      43.262   2.161  12.321  0.00  0.00    +0.000 C 
ATOM     15  O   UNL     1      42.897   3.025  11.252  0.00  0.00    +0.000 OA
ENDBRANCH   2  15
ENDBRANCH   1   4
BRANCH   1  16
ATOM     16  C   UNL     1      47.562   6.658  11.339  0.00  0.00    +0.000 C 
BRANCH  16  17
ATOM     17  N   UNL     1      47.941   7.213  12.645  0.00  0.00    +0.000 N 
ATOM     18  C   UNL     1      47.849   6.262  13.681  0.00  0.00    +0.000 A 
ATOM     19  C   UNL     1      48.173   6.645  14.980  0.00  0.00    +0.000 A 
ATOM     20  C   UNL     1      48.086   5.710  16.015  0.00  0.00    +0.000 A 
ATOM     21  C   UNL     1      47.677   4.405  15.736  0.00  0.00    +0.000 A 
ATOM     22  C   UNL     1      47.394   4.106  14.417  0.00  0.00    +0.000 A 
ATOM     23  N   UNL     1      47.475   4.998  13.401  0.00  0.00    +0.000 NA
ATOM     24  H   UNL     1      47.381   8.022  12.900  0.00  0.00    +0.000 HD
BRANCH  21  25
ATOM     25  C   UNL     1      47.564   3.414  16.837  0.00  0.00    +0.000 C 
ATOM     26  N   UNL     1      48.695   2.797  17.294  0.00  0.00    +0.000 N 
ATOM     27  O   UNL     1      46.477   3.142  17.327  0.00  0.00    +0.000 OA
ATOM     28  H   UNL     1      49.634   2.939  16.958  0.00  0.00    +0.000 HD
ATOM     29  H   UNL     1      48.569   2.123  18.040  0.00  0.00    +0.000 HD
ENDBRANCH  21  25
ENDBRANCH  16  17
ENDBRANCH   1  16
TORSDOF 6
ENDMDL
MODEL 5
REMARK VINA RESULT:    -7.270      3.308      7.137
REMARK INTER + INTRA:         -10.693
REMARK INTER:                  -9.700
REMARK INTRA:                  -0.993
REMARK UNBOUND:                -0.873
REMARK  Name = 
REMARK  7 active torsions:
REMARK  status: ('A' for Active; 'I' for Inactive)
REMARK    1  A    between atoms: C_1  and  O_2
REMARK    2  A    between atoms: O_2  and  C_3
REMARK    3  A    between atoms: C_5  and  C_6
REMARK    4  A    between atoms: C_6  and  C_7
REMARK    5  A    between atoms: C_7  and  N_8
REMARK    6  A    between atoms: C_12  and  C_13
REMARK    7  A    between atoms: C_19  and  C_20
REMARK                            x       y       z     vdW  Elec       q    Type
REMARK                         _______ _______ _______ _____ _____    ______ ____
ROOT
ATOM      1  C   UNL     1      47.183   7.961  12.065  0.00  0.00    +0.000 C 
ENDROOT
BRANCH   1   4
ATOM      2  C   UNL     1      44.079   5.758  12.295  0.00  0.00    +0.000 A 
ATOM      3  C   UNL     1      45.017   6.751  12.575  0.00  0.00    +0.000 A 
ATOM      4  C   UNL     1      46.109   6.952  11.720  0.00  0.00    +0.000 A 
ATOM      5  C   UNL     1      46.251   6.135  10.587  0.00  0.00    +0.000 A 
ATOM      6  C   UNL     1      45.350   5.090  10.305  0.00  0.00    +0.000 A 
ATOM      7  C   UNL     1      44.249   4.945  11.167  0.00  0.00    +0.000 A 
BRANCH   6   8
ATOM      8  C   UNL     1      45.608   4.119   9.212  0.00  0.00    +0.000 A 
ATOM      9  C   UNL     1      46.207   4.536   8.007  0.00  0.00    +0.000 A 
ATOM     10  C   UNL     1      46.548   3.627   7.002  0.00  0.00    +0.000 A 
ATOM     11  C   UNL     1      46.308   2.271   7.181  0.00  0.00    +0.000 A 
ATOM     12  C   UNL     1      45.704   1.828   8.354  0.00  0.00    +0.000 A 
ATOM     13  C   UNL     1      45.348   2.743   9.353  0.00  0.00    +0.000 A 
ENDBRANCH   6   8
BRANCH   2  15
ATOM     14  C   UNL     1      42.944   4.167  13.644  0.00  0.00    +0.000 C 
ATOM     15  O   UNL     1      42.978   5.458  13.050  0.00  0.00    +0.000 OA
ENDBRANCH   2  15
ENDBRANCH   1   4
BRANCH   1  16
ATOM     16  C   UNL     1      48.478   7.250  12.478  0.00  0.00    +0.000 C 
BRANCH  16  17
ATOM     17  N   UNL     1      48.860   7.595  13.853  0.00  0.00    +0.000 N 
ATOM     18  C   UNL     1      48.504   6.593  14.778  0.00  0.00    +0.000 A 
ATOM     19  C   UNL     1      48.800   6.782  16.126  0.00  0.00    +0.000 A 
ATOM     20  C   UNL     1      48.453   5.794  17.052  0.00  0.00    +0.000 A 
ATOM     21  C   UNL     1      47.817   4.630  16.616  0.00  0.00    +0.000 A 
ATOM     22  C   UNL     1      47.580   4.517  15.260  0.00  0.00    +0.000 A 
ATOM     23  N   UNL     1      47.911   5.463  14.348  0.00  0.00    +0.000 NA
ATOM     24  H   UNL     1      48.453   8.475  14.160  0.00  0.00    +0.000 HD
BRANCH  21  25
ATOM     25  C   UNL     1      47.429   3.588  17.600  0.00  0.00    +0.000 C 
ATOM     26  N   UNL     1      48.231   3.365  18.684  0.00  0.00    +0.000 N 
ATOM     27  O   UNL     1      46.412   2.927  17.445  0.00  0.00    +0.000 OA
ATOM     28  H   UNL     1      49.091   3.844  18.902  0.00  0.00    +0.000 HD
ATOM     29  H   UNL     1      47.931   2.640  19.323  0.00  0.00    +0.000 HD
ENDBRANCH  21  25
ENDBRANCH  16  17
ENDBRANCH   1  16
TORSDOF 6
ENDMDL
MODEL 6
REMARK VINA RESULT:    -7.231      2.278      3.207
REMARK INTER + INTRA:         -10.641
REMARK INTER:                  -9.768
REMARK INTRA:                  -0.873
REMARK UNBOUND:                -0.873
REMARK  Name = 
REMARK  7 active torsions:
REMARK  status: ('A' for Active; 'I' for Inactive)
REMARK    1  A    between atoms: C_1  and  O_2
REMARK    2  A    between atoms: O_2  and  C_3
REMARK    3  A    between atoms: C_5  and  C_6
REMARK    4  A    between atoms: C_6  and  C_7
REMARK    5  A    between atoms: C_7  and  N_8
REMARK    6  A    between atoms: C_12  and  C_13
REMARK    7  A    between atoms: C_19  and  C_20
REMARK                            x       y       z     vdW  Elec       q    Type
REMARK                         _______ _______ _______ _____ _____    ______ ____
ROOT
ATOM      1  C   UNL     1      44.377   4.473  12.271  0.00  0.00    +0.000 C 
ENDROOT
BRANCH   1   4
ATOM      2  C   UNL     1      44.664   8.196  11.500  0.00  0.00    +0.000 A 
ATOM      3  C   UNL     1      44.131   6.917  11.654  0.00  0.00    +0.000 A 
ATOM      4  C   UNL     1      44.914   5.886  12.189  0.00  0.00    +0.000 A 
ATOM      5  C   UNL     1      46.242   6.155  12.556  0.00  0.00    +0.000 A 
ATOM      6  C   UNL     1      46.825   7.422  12.365  0.00  0.00    +0.000 A 
ATOM      7  C   UNL     1      45.995   8.438  11.859  0.00  0.00    +0.000 A 
BRANCH   6   8
ATOM      8  C   UNL     1      48.276   7.648  12.585  0.00  0.00    +0.000 A 
ATOM      9  C   UNL     1      49.170   7.687  11.497  0.00  0.00    +0.000 A 
ATOM     10  C   UNL     1      50.523   7.993  11.667  0.00  0.00    +0.000 A 
ATOM     11  C   UNL     1      51.016   8.279  12.933  0.00  0.00    +0.000 A 
ATOM     12  C   UNL     1      50.162   8.234  14.031  0.00  0.00    +0.000 A 
ATOM     13  C   UNL     1      48.810   7.911  13.860  0.00  0.00    +0.000 A 
ENDBRANCH   6   8
BRANCH   2  15
ATOM     14  C   UNL     1      44.449  10.560  11.426  0.00  0.00    +0.000 C 
ATOM     15  O   UNL     1      44.008   9.282  10.986  0.00  0.00    +0.000 OA
ENDBRANCH   2  15
ENDBRANCH   1   4
BRANCH   1  16
ATOM     16  C   UNL     1      43.661   4.092  10.971  0.00  0.00    +0.000 C 
BRANCH  16  17
ATOM     17  N   UNL     1      44.017   2.732  10.544  0.00  0.00    +0.000 N 
ATOM     18  C   UNL     1      44.872   2.726   9.423  0.00  0.00    +0.000 A 
ATOM     19  C   UNL     1      45.292   1.505   8.901  0.00  0.00    +0.000 A 
ATOM     20  C   UNL     1      46.140   1.488   7.790  0.00  0.00    +0.000 A 
ATOM     21  C   UNL     1      46.557   2.692   7.219  0.00  0.00    +0.000 A 
ATOM     22  C   UNL     1      46.107   3.855   7.813  0.00  0.00    +0.000 A 
ATOM     23  N   UNL     1      45.288   3.891   8.890  0.00  0.00    +0.000 NA
ATOM     24  H   UNL     1      43.200   2.166  10.329  0.00  0.00    +0.000 HD
BRANCH  21  25
ATOM     25  C   UNL     1      47.442   2.676   6.026  0.00  0.00    +0.000 C 
ATOM     26  N   UNL     1      48.786   2.497   6.198  0.00  0.00    +0.000 N 
ATOM     27  O   UNL     1      46.984   2.830   4.903  0.00  0.00    +0.000 OA
ATOM     28  H   UNL     1      49.267   2.371   7.074  0.00  0.00    +0.000 HD
ATOM     29  H   UNL     1      49.351   2.502   5.358  0.00  0.00    +0.000 HD
ENDBRANCH  21  25
ENDBRANCH  16  17
ENDBRANCH   1  16
TORSDOF 6
ENDMDL
MODEL 7
REMARK VINA RESULT:    -6.798      3.920      7.711
REMARK INTER + INTRA:         -10.056
REMARK INTER:                  -9.021
REMARK INTRA:                  -1.035
REMARK UNBOUND:                -0.873
REMARK  Name = 
REMARK  7 active torsions:
REMARK  status: ('A' for Active; 'I' for Inactive)
REMARK    1  A    between atoms: C_1  and  O_2
REMARK    2  A    between atoms: O_2  and  C_3
REMARK    3  A    between atoms: C_5  and  C_6
REMARK    4  A    between atoms: C_6  and  C_7
REMARK    5  A    between atoms: C_7  and  N_8
REMARK    6  A    between atoms: C_12  and  C_13
REMARK    7  A    between atoms: C_19  and  C_20
REMARK                            x       y       z     vdW  Elec       q    Type
REMARK                         _______ _______ _______ _____ _____    ______ ____
ROOT
ATOM      1  C   UNL     1      48.187   9.147  13.065  0.00  0.00    +0.000 C 
ENDROOT
BRANCH   1   4
ATOM      2  C   UNL     1      44.733   9.561  11.505  0.00  0.00    +0.000 A 
ATOM      3  C   UNL     1      45.984   9.862  12.040  0.00  0.00    +0.000 A 
ATOM      4  C   UNL     1      46.867   8.834  12.395  0.00  0.00    +0.000 A 
ATOM      5  C   UNL     1      46.470   7.499  12.216  0.00  0.00    +0.000 A 
ATOM      6  C   UNL     1      45.193   7.161  11.727  0.00  0.00    +0.000 A 
ATOM      7  C   UNL     1      44.352   8.222  11.349  0.00  0.00    +0.000 A 
BRANCH   6   8
ATOM      8  C   UNL     1      44.717   5.755  11.713  0.00  0.00    +0.000 A 
ATOM      9  C   UNL     1      44.112   5.190  12.853  0.00  0.00    +0.000 A 
ATOM     10  C   UNL     1      43.568   3.902  12.836  0.00  0.00    +0.000 A 
ATOM     11  C   UNL     1      43.608   3.148  11.671  0.00  0.00    +0.000 A 
ATOM     12  C   UNL     1      44.213   3.671  10.532  0.00  0.00    +0.000 A 
ATOM     13  C   UNL     1      44.771   4.956  10.556  0.00  0.00    +0.000 A 
ENDBRANCH   6   8
BRANCH   2  15
ATOM     14  C   UNL     1      42.567   9.942  10.609  0.00  0.00    +0.000 C 
ATOM     15  O   UNL     1      43.782  10.469  11.126  0.00  0.00    +0.000 OA
ENDBRANCH   2  15
ENDBRANCH   1   4
BRANCH   1  16
ATOM     16  C   UNL     1      48.973   7.859  13.339  0.00  0.00    +0.000 C 
BRANCH  16  17
ATOM     17  N   UNL     1      49.514   7.845  14.704  0.00  0.00    +0.000 N 
ATOM     18  C   UNL     1      49.027   6.762  15.465  0.00  0.00    +0.000 A 
ATOM     19  C   UNL     1      49.449   6.620  16.784  0.00  0.00    +0.000 A 
ATOM     20  C   UNL     1      48.973   5.549  17.546  0.00  0.00    +0.000 A 
ATOM     21  C   UNL     1      48.084   4.636  16.978  0.00  0.00    +0.000 A 
ATOM     22  C   UNL     1      47.733   4.843  15.658  0.00  0.00    +0.000 A 
ATOM     23  N   UNL     1      48.186   5.873  14.903  0.00  0.00    +0.000 NA
ATOM     24  H   UNL     1      49.318   8.706  15.209  0.00  0.00    +0.000 HD
BRANCH  21  25
ATOM     25  C   UNL     1      47.561   3.510  17.792  0.00  0.00    +0.000 C 
ATOM     26  N   UNL     1      48.209   3.167  18.946  0.00  0.00    +0.000 N 
ATOM     27  O   UNL     1      46.571   2.886  17.438  0.00  0.00    +0.000 OA
ATOM     28  H   UNL     1      49.033   3.605  19.324  0.00  0.00    +0.000 HD
ATOM     29  H   UNL     1      47.821   2.388  19.464  0.00  0.00    +0.000 HD
ENDBRANCH  21  25
ENDBRANCH  16  17
ENDBRANCH   1  16
TORSDOF 6
ENDMDL
MODEL 8
REMARK VINA RESULT:    -6.714      3.504      7.845
REMARK INTER + INTRA:          -9.942
REMARK INTER:                  -9.267
REMARK INTRA:                  -0.675
REMARK UNBOUND:                -0.873
REMARK  Name = 
REMARK  7 active torsions:
REMARK  status: ('A' for Active; 'I' for Inactive)
REMARK    1  A    between atoms: C_1  and  O_2
REMARK    2  A    between atoms: O_2  and  C_3
REMARK    3  A    between atoms: C_5  and  C_6
REMARK    4  A    between atoms: C_6  and  C_7
REMARK    5  A    between atoms: C_7  and  N_8
REMARK    6  A    between atoms: C_12  and  C_13
REMARK    7  A    between atoms: C_19  and  C_20
REMARK                            x       y       z     vdW  Elec       q    Type
REMARK                         _______ _______ _______ _____ _____    ______ ____
ROOT
ATOM      1  C   UNL     1      45.891   6.786  10.690  0.00  0.00    +0.000 C 
ENDROOT
BRANCH   1   4
ATOM      2  C   UNL     1      43.987   3.484  10.609  0.00  0.00    +0.000 A 
ATOM      3  C   UNL     1      44.411   4.754  10.997  0.00  0.00    +0.000 A 
ATOM      4  C   UNL     1      45.352   5.449  10.228  0.00  0.00    +0.000 A 
ATOM      5  C   UNL     1      45.870   4.846   9.071  0.00  0.00    +0.000 A 
ATOM      6  C   UNL     1      45.502   3.544   8.681  0.00  0.00    +0.000 A 
ATOM      7  C   UNL     1      44.527   2.896   9.459  0.00  0.00    +0.000 A 
BRANCH   6   8
ATOM      8  C   UNL     1      46.188   2.847   7.564  0.00  0.00    +0.000 A 
ATOM      9  C   UNL     1      46.419   3.505   6.340  0.00  0.00    +0.000 A 
ATOM     10  C   UNL     1      47.147   2.906   5.308  0.00  0.00    +0.000 A 
ATOM     11  C   UNL     1      47.671   1.632   5.478  0.00  0.00    +0.000 A 
ATOM     12  C   UNL     1      47.447   0.948   6.669  0.00  0.00    +0.000 A 
ATOM     13  C   UNL     1      46.704   1.545   7.696  0.00  0.00    +0.000 A 
ENDBRANCH   6   8
BRANCH   2  15
ATOM     14  C   UNL     1      43.288   2.532  12.671  0.00  0.00    +0.000 C 
ATOM     15  O   UNL     1      43.082   2.702  11.274  0.00  0.00    +0.000 OA
ENDBRANCH   2  15
ENDBRANCH   1   4
BRANCH   1  16
ATOM     16  C   UNL     1      47.032   6.589  11.695  0.00  0.00    +0.000 C 
BRANCH  16  17
ATOM     17  N   UNL     1      47.300   7.823  12.446  0.00  0.00    +0.000 N 
ATOM     18  C   UNL     1      47.828   7.569  13.728  0.00  0.00    +0.000 A 
ATOM     19  C   UNL     1      48.128   8.645  14.559  0.00  0.00    +0.000 A 
ATOM     20  C   UNL     1      48.653   8.405  15.832  0.00  0.00    +0.000 A 
ATOM     21  C   UNL     1      48.872   7.093  16.254  0.00  0.00    +0.000 A 
ATOM     22  C   UNL     1      48.564   6.088  15.358  0.00  0.00    +0.000 A 
ATOM     23  N   UNL     1      48.057   6.302  14.120  0.00  0.00    +0.000 NA
ATOM     24  H   UNL     1      46.471   8.403  12.548  0.00  0.00    +0.000 HD
BRANCH  21  25
ATOM     25  C   UNL     1      49.411   6.834  17.614  0.00  0.00    +0.000 C 
ATOM     26  N   UNL     1      49.772   5.560  17.954  0.00  0.00    +0.000 N 
ATOM     27  O   UNL     1      49.524   7.740  18.427  0.00  0.00    +0.000 OA
ATOM     28  H   UNL     1      49.712   4.742  17.368  0.00  0.00    +0.000 HD
ATOM     29  H   UNL     1      50.126   5.429  18.893  0.00  0.00    +0.000 HD
ENDBRANCH  21  25
ENDBRANCH  16  17
ENDBRANCH   1  16
TORSDOF 6
ENDMDL
MODEL 9
REMARK VINA RESULT:    -6.529      4.428      7.067
REMARK INTER + INTRA:          -9.692
REMARK INTER:                  -8.961
REMARK INTRA:                  -0.731
REMARK UNBOUND:                -0.873
REMARK  Name = 
REMARK  7 active torsions:
REMARK  status: ('A' for Active; 'I' for Inactive)
REMARK    1  A    between atoms: C_1  and  O_2
REMARK    2  A    between atoms: O_2  and  C_3
REMARK    3  A    between atoms: C_5  and  C_6
REMARK    4  A    between atoms: C_6  and  C_7
REMARK    5  A    between atoms: C_7  and  N_8
REMARK    6  A    between atoms: C_12  and  C_13
REMARK    7  A    between atoms: C_19  and  C_20
REMARK                            x       y       z     vdW  Elec       q    Type
REMARK                         _______ _______ _______ _____ _____    ______ ____
ROOT
ATOM      1  C   UNL     1      47.353   4.044  17.179  0.00  0.00    +0.000 C 
ENDROOT
BRANCH   1   4
ATOM      2  C   UNL     1      50.318   6.101  18.408  0.00  0.00    +0.000 A 
ATOM      3  C   UNL     1      49.025   5.746  18.028  0.00  0.00    +0.000 A 
ATOM      4  C   UNL     1      48.729   4.421  17.684  0.00  0.00    +0.000 A 
ATOM      5  C   UNL     1      49.752   3.461  17.716  0.00  0.00    +0.000 A 
ATOM      6  C   UNL     1      51.080   3.798  18.044  0.00  0.00    +0.000 A 
ATOM      7  C   UNL     1      51.327   5.130  18.419  0.00  0.00    +0.000 A 
BRANCH   6   8
ATOM      8  C   UNL     1      52.186   2.818  17.899  0.00  0.00    +0.000 A 
ATOM      9  C   UNL     1      51.916   1.468  17.599  0.00  0.00    +0.000 A 
ATOM     10  C   UNL     1      52.940   0.548  17.362  0.00  0.00    +0.000 A 
ATOM     11  C   UNL     1      54.266   0.958  17.409  0.00  0.00    +0.000 A 
ATOM     12  C   UNL     1      54.567   2.282  17.717  0.00  0.00    +0.000 A 
ATOM     13  C   UNL     1      53.539   3.198  17.970  0.00  0.00    +0.000 A 
ENDBRANCH   6   8
BRANCH   2  15
ATOM     14  C   UNL     1      49.748   8.234  19.285  0.00  0.00    +0.000 C 
ATOM     15  O   UNL     1      50.735   7.356  18.759  0.00  0.00    +0.000 OA
ENDBRANCH   2  15
ENDBRANCH   1   4
BRANCH   1  16
ATOM     16  C   UNL     1      47.365   3.875  15.655  0.00  0.00    +0.000 C 
BRANCH  16  17
ATOM     17  N   UNL     1      46.813   5.059  14.983  0.00  0.00    +0.000 N 
ATOM     18  C   UNL     1      46.193   4.742  13.757  0.00  0.00    +0.000 A 
ATOM     19  C   UNL     1      45.626   5.767  13.003  0.00  0.00    +0.000 A 
ATOM     20  C   UNL     1      45.008   5.463  11.787  0.00  0.00    +0.000 A 
ATOM     21  C   UNL     1      44.964   4.140  11.343  0.00  0.00    +0.000 A 
ATOM     22  C   UNL     1      45.534   3.186  12.164  0.00  0.00    +0.000 A 
ATOM     23  N   UNL     1      46.135   3.461  13.346  0.00  0.00    +0.000 NA
ATOM     24  H   UNL     1      47.517   5.773  14.812  0.00  0.00    +0.000 HD
BRANCH  21  25
ATOM     25  C   UNL     1      44.326   3.818  10.042  0.00  0.00    +0.000 C 
ATOM     26  N   UNL     1      44.342   4.753   9.044  0.00  0.00    +0.000 N 
ATOM     27  O   UNL     1      43.783   2.738   9.859  0.00  0.00    +0.000 OA
ATOM     28  H   UNL     1      44.752   5.672   9.090  0.00  0.00    +0.000 HD
ATOM     29  H   UNL     1      43.888   4.492   8.177  0.00  0.00    +0.000 HD
ENDBRANCH  21  25
ENDBRANCH  16  17
ENDBRANCH   1  16
TORSDOF 6
ENDMDL
