MODEL 1
REMARK VINA RESULT:    -7.816      0.000      0.000
REMARK INTER + INTRA:         -10.925
REMARK INTER:                  -9.873
REMARK INTRA:                  -1.052
REMARK UNBOUND:                -1.052
REMARK  Name = 
REMARK  5 active torsions:
REMARK  status: ('A' for Active; 'I' for Inactive)
REMARK    1  A    between atoms: N_1  and  C_2
REMARK    2  A    between atoms: C_4  and  N_5
REMARK    3  A    between atoms: N_5  and  C_6
REMARK    4  A    between atoms: C_6  and  C_7
REMARK    5  A    between atoms: C_11  and  C_12
REMARK                            x       y       z     vdW  Elec       q    Type
REMARK                         _______ _______ _______ _____ _____    ______ ____
ROOT
ATOM      1  C   UNL     1      43.411   4.781  11.346  0.00  0.00    +0.000 C 
ENDROOT
BRANCH   1   2
ATOM      2  C   UNL     1      44.697   5.074  12.084  0.00  0.00    +0.000 A 
ATOM      3  C   UNL     1      45.309   4.105  12.886  0.00  0.00    +0.000 A 
ATOM      4  C   UNL     1      46.524   4.382  13.508  0.00  0.00    +0.000 A 
ATOM      5  C   UNL     1      47.143   5.623  13.327  0.00  0.00    +0.000 A 
ATOM      6  C   UNL     1      46.567   6.620  12.521  0.00  0.00    +0.000 A 
ATOM      7  C   UNL     1      45.320   6.328  11.935  0.00  0.00    +0.000 A 
BRANCH   6   8
ATOM      8  C   UNL     1      47.270   7.894  12.230  0.00  0.00    +0.000 A 
ATOM      9  C   UNL     1      48.632   7.904  11.869  0.00  0.00    +0.000 A 
ATOM     10  C   UNL     1      49.287   9.088  11.515  0.00  0.00    +0.000 A 
ATOM     11  C   UNL     1      48.592  10.292  11.506  0.00  0.00    +0.000 A 
ATOM     12  C   UNL     1      47.250  10.315  11.872  0.00  0.00    +0.000 A 
ATOM     13  C   UNL     1      46.600   9.131  12.239  0.00  0.00    +0.000 A 
ENDBRANCH   6   8
ENDBRANCH   1   2
BRANCH   1  14
ATOM     14  N   UNL     1      43.624   4.864   9.905  0.00  0.00    +0.000 N 
ATOM     15  H   UNL     1      42.746   4.927   9.397  0.00  0.00    +0.000 HD
BRANCH  14  18
ATOM     16  C   UNL     1      46.311   3.432   7.705  0.00  0.00    +0.000 A 
ATOM     17  C   UNL     1      45.507   4.364   8.383  0.00  0.00    +0.000 A 
ATOM     18  C   UNL     1      44.525   3.972   9.308  0.00  0.00    +0.000 A 
ATOM     19  C   UNL     1      44.355   2.597   9.528  0.00  0.00    +0.000 A 
ATOM     20  C   UNL     1      45.184   1.655   8.914  0.00  0.00    +0.000 A 
ATOM     21  C   UNL     1      46.171   2.073   8.024  0.00  0.00    +0.000 A 
ATOM     22 CL   UNL     1      47.172   0.880   7.275  0.00  0.00    +0.000 Cl
BRANCH  16  23
ATOM     23  N   UNL     1      47.366   3.901   6.893  0.00  0.00    +0.000 N 
ATOM     24  H   UNL     1      47.801   4.751   7.235  0.00  0.00    +0.000 HD
ATOM     25  H   UNL     1      47.096   3.966   5.913  0.00  0.00    +0.000 HD
ENDBRANCH  16  23
ENDBRANCH  14  18
ENDBRANCH   1  14
TORSDOF 5
ENDMDL
MODEL 2
REMARK VINA RESULT:    -7.594      1.211      1.612
REMARK INTER + INTRA:         -10.644
REMARK INTER:                  -9.740
REMARK INTRA:                  -0.903
REMARK UNBOUND:                -1.052
REMARK  Name = 
REMARK  5 active torsions:
REMARK  status: ('A' for Active; 'I' for Inactive)
REMARK    1  A    between atoms: N_1  and  C_2
REMARK    2  A    between atoms: C_4  and  N_5
REMARK    3  A    between atoms: N_5  and  C_6
REMARK    4  A    between atoms: C_6  and  C_7
REMARK    5  A    between atoms: C_11  and  C_12
REMARK                            x       y       z     vdW  Elec       q    Type
REMARK                         _______ _______ _______ _____ _____    ______ ____
ROOT
ATOM      1  C   UNL     1      43.964   4.643  10.357  0.00  0.00    +0.000 C 
ENDROOT
BRANCH   1   2
ATOM      2  C   UNL     1      44.995   4.954  11.417  0.00  0.00    +0.000 A 
ATOM      3  C   UNL     1      45.283   4.042  12.437  0.00  0.00    +0.000 A 
ATOM      4  C   UNL     1      46.279   4.328  13.367  0.00  0.00    +0.000 A 
ATOM      5  C   UNL     1      47.003   5.522  13.281  0.00  0.00    +0.000 A 
ATOM      6  C   UNL     1      46.752   6.460  12.265  0.00  0.00    +0.000 A 
ATOM      7  C   UNL     1      45.715   6.163  11.361  0.00  0.00    +0.000 A 
BRANCH   6   8
ATOM      8  C   UNL     1      47.591   7.673  12.096  0.00  0.00    +0.000 A 
ATOM      9  C   UNL     1      48.961   7.570  11.785  0.00  0.00    +0.000 A 
ATOM     10  C   UNL     1      49.745   8.702  11.545  0.00  0.00    +0.000 A 
ATOM     11  C   UNL     1      49.175   9.969  11.603  0.00  0.00    +0.000 A 
ATOM     12  C   UNL     1      47.827  10.103  11.922  0.00  0.00    +0.000 A 
ATOM     13  C   UNL     1      47.048   8.968  12.176  0.00  0.00    +0.000 A 
ENDBRANCH   6   8
ENDBRANCH   1   2
BRANCH   1  14
ATOM     14  N   UNL     1      44.055   3.242   9.957  0.00  0.00    +0.000 N 
ATOM     15  H   UNL     1      44.142   2.626  10.760  0.00  0.00    +0.000 HD
BRANCH  14  18
ATOM     16  C   UNL     1      46.461   1.332   7.795  0.00  0.00    +0.000 A 
ATOM     17  C   UNL     1      45.487   1.615   8.767  0.00  0.00    +0.000 A 
ATOM     18  C   UNL     1      44.933   2.898   8.920  0.00  0.00    +0.000 A 
ATOM     19  C   UNL     1      45.400   3.911   8.070  0.00  0.00    +0.000 A 
ATOM     20  C   UNL     1      46.322   3.640   7.055  0.00  0.00    +0.000 A 
ATOM     21  C   UNL     1      46.832   2.353   6.906  0.00  0.00    +0.000 A 
ATOM     22 CL   UNL     1      47.978   2.056   5.646  0.00  0.00    +0.000 Cl
BRANCH  16  23
ATOM     23  N   UNL     1      46.875  -0.004   7.609  0.00  0.00    +0.000 N 
ATOM     24  H   UNL     1      46.344  -0.677   8.151  0.00  0.00    +0.000 HD
ATOM     25  H   UNL     1      47.881  -0.114   7.725  0.00  0.00    +0.000 HD
ENDBRANCH  16  23
ENDBRANCH  14  18
ENDBRANCH   1  14
TORSDOF 5
ENDMDL
MODEL 3
REMARK VINA RESULT:    -7.293      2.982      6.601
REMARK INTER + INTRA:         -10.264
REMARK INTER:                  -9.357
REMARK INTRA:                  -0.907
REMARK UNBOUND:                -1.052
REMARK  Name = 
REMARK  5 active torsions:
REMARK  status: ('A' for Active; 'I' for Inactive)
REMARK    1  A    between atoms: N_1  and  C_2
REMARK    2  A    between atoms: C_4  and  N_5
REMARK    3  A    between atoms: N_5  and  C_6
REMARK    4  A    between atoms: C_6  and  C_7
REMARK    5  A    between atoms: C_11  and  C_12
REMARK                            x       y       z     vdW  Elec       q    Type
REMARK                         _______ _______ _______ _____ _____    ______ ____
ROOT
ATOM      1  C   UNL     1      43.834   6.629  11.432  0.00  0.00    +0.000 C 
ENDROOT
BRANCH   1   2
ATOM      2  C   UNL     1      43.953   5.146  11.162  0.00  0.00    +0.000 A 
ATOM      3  C   UNL     1      43.226   4.214  11.909  0.00  0.00    +0.000 A 
ATOM      4  C   UNL     1      43.308   2.858  11.601  0.00  0.00    +0.000 A 
ATOM      5  C   UNL     1      44.107   2.423  10.539  0.00  0.00    +0.000 A 
ATOM      6  C   UNL     1      44.845   3.328   9.756  0.00  0.00    +0.000 A 
ATOM      7  C   UNL     1      44.773   4.688  10.113  0.00  0.00    +0.000 A 
BRANCH   6   8
ATOM      8  C   UNL     1      45.602   2.890   8.558  0.00  0.00    +0.000 A 
ATOM      9  C   UNL     1      45.900   3.793   7.518  0.00  0.00    +0.000 A 
ATOM     10  C   UNL     1      46.680   3.416   6.421  0.00  0.00    +0.000 A 
ATOM     11  C   UNL     1      47.189   2.125   6.340  0.00  0.00    +0.000 A 
ATOM     12  C   UNL     1      46.900   1.206   7.345  0.00  0.00    +0.000 A 
ATOM     13  C   UNL     1      46.107   1.584   8.435  0.00  0.00    +0.000 A 
ENDBRANCH   6   8
ENDBRANCH   1   2
BRANCH   1  14
ATOM     14  N   UNL     1      44.622   6.995  12.604  0.00  0.00    +0.000 N 
ATOM     15  H   UNL     1      44.062   7.484  13.297  0.00  0.00    +0.000 HD
BRANCH  14  18
ATOM     16  C   UNL     1      48.334   7.551  12.441  0.00  0.00    +0.000 A 
ATOM     17  C   UNL     1      47.091   6.900  12.515  0.00  0.00    +0.000 A 
ATOM     18  C   UNL     1      45.874   7.594  12.409  0.00  0.00    +0.000 A 
ATOM     19  C   UNL     1      45.935   8.985  12.239  0.00  0.00    +0.000 A 
ATOM     20  C   UNL     1      47.157   9.647  12.099  0.00  0.00    +0.000 A 
ATOM     21  C   UNL     1      48.349   8.930  12.178  0.00  0.00    +0.000 A 
ATOM     22 CL   UNL     1      49.843   9.782  12.010  0.00  0.00    +0.000 Cl
BRANCH  16  23
ATOM     23  N   UNL     1      49.513   6.777  12.421  0.00  0.00    +0.000 N 
ATOM     24  H   UNL     1      49.347   5.778  12.354  0.00  0.00    +0.000 HD
ATOM     25  H   UNL     1      50.144   7.020  13.183  0.00  0.00    +0.000 HD
ENDBRANCH  16  23
ENDBRANCH  14  18
ENDBRANCH   1  14
TORSDOF 5
ENDMDL
MODEL 4
REMARK VINA RESULT:    -7.186      3.039      6.664
REMARK INTER + INTRA:         -10.129
REMARK INTER:                  -9.288
REMARK INTRA:                  -0.841
REMARK UNBOUND:                -1.052
REMARK  Name = 
REMARK  5 active torsions:
REMARK  status: ('A' for Active; 'I' for Inactive)
REMARK    1  A    between atoms: N_1  and  C_2
REMARK    2  A    between atoms: C_4  and  N_5
REMARK    3  A    between atoms: N_5  and  C_6
REMARK    4  A    between atoms: C_6  and  C_7
REMARK    5  A    between atoms: C_11  and  C_12
REMARK                            x       y       z     vdW  Elec       q    Type
REMARK                         _______ _______ _______ _____ _____    ______ ____
ROOT
ATOM      1  C   UNL     1      43.807   6.236  10.832  0.00  0.00    +0.000 C 
ENDROOT
BRANCH   1   2
ATOM      2  C   UNL     1      44.046   4.767  10.570  0.00  0.00    +0.000 A 
ATOM      3  C   UNL     1      43.364   3.783  11.292  0.00  0.00    +0.000 A 
ATOM      4  C   UNL     1      43.558   2.437  10.990  0.00  0.00    +0.000 A 
ATOM      5  C   UNL     1      44.426   2.063   9.959  0.00  0.00    +0.000 A 
ATOM      6  C   UNL     1      45.122   3.021   9.203  0.00  0.00    +0.000 A 
ATOM      7  C   UNL     1      44.936   4.372   9.553  0.00  0.00    +0.000 A 
BRANCH   6   8
ATOM      8  C   UNL     1      45.954   2.641   8.034  0.00  0.00    +0.000 A 
ATOM      9  C   UNL     1      46.523   1.357   7.935  0.00  0.00    +0.000 A 
ATOM     10  C   UNL     1      47.242   0.958   6.804  0.00  0.00    +0.000 A 
ATOM     11  C   UNL     1      47.404   1.835   5.738  0.00  0.00    +0.000 A 
ATOM     12  C   UNL     1      46.866   3.116   5.812  0.00  0.00    +0.000 A 
ATOM     13  C   UNL     1      46.158   3.516   6.952  0.00  0.00    +0.000 A 
ENDBRANCH   6   8
ENDBRANCH   1   2
BRANCH   1  14
ATOM     14  N   UNL     1      43.907   6.519  12.260  0.00  0.00    +0.000 N 
ATOM     15  H   UNL     1      43.213   7.199  12.558  0.00  0.00    +0.000 HD
BRANCH  14  18
ATOM     16  C   UNL     1      47.063   8.261  13.316  0.00  0.00    +0.000 A 
ATOM     17  C   UNL     1      45.743   8.054  12.882  0.00  0.00    +0.000 A 
ATOM     18  C   UNL     1      45.172   6.772  12.806  0.00  0.00    +0.000 A 
ATOM     19  C   UNL     1      45.978   5.681  13.167  0.00  0.00    +0.000 A 
ATOM     20  C   UNL     1      47.271   5.867  13.662  0.00  0.00    +0.000 A 
ATOM     21  C   UNL     1      47.802   7.151  13.756  0.00  0.00    +0.000 A 
ATOM     22 CL   UNL     1      49.409   7.343  14.363  0.00  0.00    +0.000 Cl
BRANCH  16  23
ATOM     23  N   UNL     1      47.526   9.581  13.496  0.00  0.00    +0.000 N 
ATOM     24  H   UNL     1      47.410   9.932  14.441  0.00  0.00    +0.000 HD
ATOM     25  H   UNL     1      47.152  10.217  12.793  0.00  0.00    +0.000 HD
ENDBRANCH  16  23
ENDBRANCH  14  18
ENDBRANCH   1  14
TORSDOF 5
ENDMDL
MODEL 5
REMARK VINA RESULT:    -7.116      3.129      6.847
REMARK INTER + INTRA:         -10.041
REMARK INTER:                  -9.228
REMARK INTRA:                  -0.812
REMARK UNBOUND:                -1.052
REMARK  Name = 
REMARK  5 active torsions:
REMARK  status: ('A' for Active; 'I' for Inactive)
REMARK    1  A    between atoms: N_1  and  C_2
REMARK    2  A    between atoms: C_4  and  N_5
REMARK    3  A    between atoms: N_5  and  C_6
REMARK    4  A    between atoms: C_6  and  C_7
REMARK    5  A    between atoms: C_11  and  C_12
REMARK                            x       y       z     vdW  Elec       q    Type
REMARK                         _______ _______ _______ _____ _____    ______ ____
ROOT
ATOM      1  C   UNL     1      44.372   6.744  11.357  0.00  0.00    +0.000 C 
ENDROOT
BRANCH   1   2
ATOM      2  C   UNL     1      44.285   5.265  11.062  0.00  0.00    +0.000 A 
ATOM      3  C   UNL     1      43.416   4.434  11.776  0.00  0.00    +0.000 A 
ATOM      4  C   UNL     1      43.311   3.085  11.444  0.00  0.00    +0.000 A 
ATOM      5  C   UNL     1      44.065   2.557  10.391  0.00  0.00    +0.000 A 
ATOM      6  C   UNL     1      44.942   3.360   9.641  0.00  0.00    +0.000 A 
ATOM      7  C   UNL     1      45.057   4.711  10.022  0.00  0.00    +0.000 A 
BRANCH   6   8
ATOM      8  C   UNL     1      45.657   2.837   8.451  0.00  0.00    +0.000 A 
ATOM      9  C   UNL     1      45.981   3.681   7.371  0.00  0.00    +0.000 A 
ATOM     10  C   UNL     1      46.724   3.222   6.278  0.00  0.00    +0.000 A 
ATOM     11  C   UNL     1      47.167   1.905   6.243  0.00  0.00    +0.000 A 
ATOM     12  C   UNL     1      46.851   1.044   7.289  0.00  0.00    +0.000 A 
ATOM     13  C   UNL     1      46.096   1.503   8.375  0.00  0.00    +0.000 A 
ENDBRANCH   6   8
ENDBRANCH   1   2
BRANCH   1  14
ATOM     14  N   UNL     1      44.974   6.965  12.668  0.00  0.00    +0.000 N 
ATOM     15  H   UNL     1      44.329   7.423  13.306  0.00  0.00    +0.000 HD
BRANCH  14  18
ATOM     16  C   UNL     1      47.826   9.361  13.158  0.00  0.00    +0.000 A 
ATOM     17  C   UNL     1      46.542   8.793  13.227  0.00  0.00    +0.000 A 
ATOM     18  C   UNL     1      46.265   7.509  12.730  0.00  0.00    +0.000 A 
ATOM     19  C   UNL     1      47.321   6.801  12.137  0.00  0.00    +0.000 A 
ATOM     20  C   UNL     1      48.618   7.318  12.113  0.00  0.00    +0.000 A 
ATOM     21  C   UNL     1      48.872   8.582  12.641  0.00  0.00    +0.000 A 
ATOM     22 CL   UNL     1      50.488   9.195  12.587  0.00  0.00    +0.000 Cl
BRANCH  16  23
ATOM     23  N   UNL     1      48.063  10.597  13.797  0.00  0.00    +0.000 N 
ATOM     24  H   UNL     1      48.898  10.608  14.373  0.00  0.00    +0.000 HD
ATOM     25  H   UNL     1      47.239  10.937  14.292  0.00  0.00    +0.000 HD
ENDBRANCH  16  23
ENDBRANCH  14  18
ENDBRANCH   1  14
TORSDOF 5
ENDMDL
MODEL 6
REMARK VINA RESULT:    -6.936      3.401      6.960
REMARK INTER + INTRA:          -9.813
REMARK INTER:                  -9.009
REMARK INTRA:                  -0.805
REMARK UNBOUND:                -1.052
REMARK  Name = 
REMARK  5 active torsions:
REMARK  status: ('A' for Active; 'I' for Inactive)
REMARK    1  A    between atoms: N_1  and  C_2
REMARK    2  A    between atoms: C_4  and  N_5
REMARK    3  A    between atoms: N_5  and  C_6
REMARK    4  A    between atoms: C_6  and  C_7
REMARK    5  A    between atoms: C_11  and  C_12
REMARK                            x       y       z     vdW  Elec       q    Type
REMARK                         _______ _______ _______ _____ _____    ______ ____
ROOT
ATOM      1  C   UNL     1      45.982   7.393  11.973  0.00  0.00    +0.000 C 
ENDROOT
BRANCH   1   2
ATOM      2  C   UNL     1      45.139   6.287  11.383  0.00  0.00    +0.000 A 
ATOM      3  C   UNL     1      43.773   6.188  11.664  0.00  0.00    +0.000 A 
ATOM      4  C   UNL     1      43.007   5.193  11.060  0.00  0.00    +0.000 A 
ATOM      5  C   UNL     1      43.595   4.297  10.162  0.00  0.00    +0.000 A 
ATOM      6  C   UNL     1      44.963   4.369   9.844  0.00  0.00    +0.000 A 
ATOM      7  C   UNL     1      45.721   5.359  10.497  0.00  0.00    +0.000 A 
BRANCH   6   8
ATOM      8  C   UNL     1      45.571   3.499   8.808  0.00  0.00    +0.000 A 
ATOM      9  C   UNL     1      46.226   4.051   7.689  0.00  0.00    +0.000 A 
ATOM     10  C   UNL     1      46.873   3.246   6.746  0.00  0.00    +0.000 A 
ATOM     11  C   UNL     1      46.886   1.865   6.903  0.00  0.00    +0.000 A 
ATOM     12  C   UNL     1      46.235   1.289   7.990  0.00  0.00    +0.000 A 
ATOM     13  C   UNL     1      45.578   2.097   8.925  0.00  0.00    +0.000 A 
ENDBRANCH   6   8
ENDBRANCH   1   2
BRANCH   1  14
ATOM     14  N   UNL     1      47.356   6.940  12.159  0.00  0.00    +0.000 N 
ATOM     15  H   UNL     1      47.658   6.332  11.403  0.00  0.00    +0.000 HD
BRANCH  14  18
ATOM     16  C   UNL     1      47.480   4.935  15.334  0.00  0.00    +0.000 A 
ATOM     17  C   UNL     1      47.170   5.321  14.019  0.00  0.00    +0.000 A 
ATOM     18  C   UNL     1      47.738   6.458  13.419  0.00  0.00    +0.000 A 
ATOM     19  C   UNL     1      48.627   7.222  14.190  0.00  0.00    +0.000 A 
ATOM     20  C   UNL     1      48.998   6.824  15.476  0.00  0.00    +0.000 A 
ATOM     21  C   UNL     1      48.444   5.675  16.036  0.00  0.00    +0.000 A 
ATOM     22 CL   UNL     1      48.919   5.218  17.634  0.00  0.00    +0.000 Cl
BRANCH  16  23
ATOM     23  N   UNL     1      46.978   3.711  15.824  0.00  0.00    +0.000 N 
ATOM     24  H   UNL     1      47.700   3.052  16.097  0.00  0.00    +0.000 HD
ATOM     25  H   UNL     1      46.288   3.300  15.197  0.00  0.00    +0.000 HD
ENDBRANCH  16  23
ENDBRANCH  14  18
ENDBRANCH   1  14
TORSDOF 5
ENDMDL
MODEL 7
REMARK VINA RESULT:    -6.586      2.004      3.882
REMARK INTER + INTRA:          -9.371
REMARK INTER:                  -8.786
REMARK INTRA:                  -0.585
REMARK UNBOUND:                -1.052
REMARK  Name = 
REMARK  5 active torsions:
REMARK  status: ('A' for Active; 'I' for Inactive)
REMARK    1  A    between atoms: N_1  and  C_2
REMARK    2  A    between atoms: C_4  and  N_5
REMARK    3  A    between atoms: N_5  and  C_6
REMARK    4  A    between atoms: C_6  and  C_7
REMARK    5  A    between atoms: C_11  and  C_12
REMARK                            x       y       z     vdW  Elec       q    Type
REMARK                         _______ _______ _______ _____ _____    ______ ____
ROOT
ATOM      1  C   UNL     1      44.084   4.773  11.033  0.00  0.00    +0.000 C 
ENDROOT
BRANCH   1   2
ATOM      2  C   UNL     1      45.365   5.352  11.590  0.00  0.00    +0.000 A 
ATOM      3  C   UNL     1      46.029   6.397  10.941  0.00  0.00    +0.000 A 
ATOM      4  C   UNL     1      47.175   6.952  11.506  0.00  0.00    +0.000 A 
ATOM      5  C   UNL     1      47.661   6.476  12.728  0.00  0.00    +0.000 A 
ATOM      6  C   UNL     1      47.016   5.434  13.418  0.00  0.00    +0.000 A 
ATOM      7  C   UNL     1      45.883   4.866  12.806  0.00  0.00    +0.000 A 
BRANCH   6   8
ATOM      8  C   UNL     1      47.455   5.001  14.768  0.00  0.00    +0.000 A 
ATOM      9  C   UNL     1      48.239   5.843  15.581  0.00  0.00    +0.000 A 
ATOM     10  C   UNL     1      48.593   5.482  16.885  0.00  0.00    +0.000 A 
ATOM     11  C   UNL     1      48.165   4.268  17.410  0.00  0.00    +0.000 A 
ATOM     12  C   UNL     1      47.402   3.409  16.626  0.00  0.00    +0.000 A 
ATOM     13  C   UNL     1      47.060   3.768  15.317  0.00  0.00    +0.000 A 
ENDBRANCH   6   8
ENDBRANCH   1   2
BRANCH   1  14
ATOM     14  N   UNL     1      44.284   3.381  10.643  0.00  0.00    +0.000 N 
ATOM     15  H   UNL     1      44.623   2.818  11.418  0.00  0.00    +0.000 HD
BRANCH  14  18
ATOM     16  C   UNL     1      46.309   1.654   7.992  0.00  0.00    +0.000 A 
ATOM     17  C   UNL     1      45.523   1.860   9.138  0.00  0.00    +0.000 A 
ATOM     18  C   UNL     1      44.964   3.112   9.448  0.00  0.00    +0.000 A 
ATOM     19  C   UNL     1      45.231   4.175   8.572  0.00  0.00    +0.000 A 
ATOM     20  C   UNL     1      45.956   3.980   7.393  0.00  0.00    +0.000 A 
ATOM     21  C   UNL     1      46.473   2.721   7.095  0.00  0.00    +0.000 A 
ATOM     22 CL   UNL     1      47.373   2.519   5.634  0.00  0.00    +0.000 Cl
BRANCH  16  23
ATOM     23  N   UNL     1      46.725   0.344   7.673  0.00  0.00    +0.000 N 
ATOM     24  H   UNL     1      46.081  -0.377   7.980  0.00  0.00    +0.000 HD
ATOM     25  H   UNL     1      47.684   0.165   7.966  0.00  0.00    +0.000 HD
ENDBRANCH  16  23
ENDBRANCH  14  18
ENDBRANCH   1  14
TORSDOF 5
ENDMDL
MODEL 8
REMARK VINA RESULT:    -6.578      4.317      7.438
REMARK INTER + INTRA:          -9.360
REMARK INTER:                  -8.771
REMARK INTRA:                  -0.589
REMARK UNBOUND:                -1.052
REMARK  Name = 
REMARK  5 active torsions:
REMARK  status: ('A' for Active; 'I' for Inactive)
REMARK    1  A    between atoms: N_1  and  C_2
REMARK    2  A    between atoms: C_4  and  N_5
REMARK    3  A    between atoms: N_5  and  C_6
REMARK    4  A    between atoms: C_6  and  C_7
REMARK    5  A    between atoms: C_11  and  C_12
REMARK                            x       y       z     vdW  Elec       q    Type
REMARK                         _______ _______ _______ _____ _____    ______ ____
ROOT
ATOM      1  C   UNL     1      46.145   5.314  13.952  0.00  0.00    +0.000 C 
ENDROOT
BRANCH   1   2
ATOM      2  C   UNL     1      45.173   4.977  12.845  0.00  0.00    +0.000 A 
ATOM      3  C   UNL     1      43.829   5.355  12.922  0.00  0.00    +0.000 A 
ATOM      4  C   UNL     1      42.967   5.085  11.861  0.00  0.00    +0.000 A 
ATOM      5  C   UNL     1      43.442   4.445  10.712  0.00  0.00    +0.000 A 
ATOM      6  C   UNL     1      44.788   4.058  10.591  0.00  0.00    +0.000 A 
ATOM      7  C   UNL     1      45.628   4.309  11.692  0.00  0.00    +0.000 A 
BRANCH   6   8
ATOM      8  C   UNL     1      45.326   3.484   9.333  0.00  0.00    +0.000 A 
ATOM      9  C   UNL     1      45.778   4.317   8.290  0.00  0.00    +0.000 A 
ATOM     10  C   UNL     1      46.360   3.792   7.132  0.00  0.00    +0.000 A 
ATOM     11  C   UNL     1      46.511   2.418   6.991  0.00  0.00    +0.000 A 
ATOM     12  C   UNL     1      46.062   1.568   7.998  0.00  0.00    +0.000 A 
ATOM     13  C   UNL     1      45.467   2.096   9.150  0.00  0.00    +0.000 A 
ENDBRANCH   6   8
ENDBRANCH   1   2
BRANCH   1  14
ATOM     14  N   UNL     1      46.469   4.119  14.723  0.00  0.00    +0.000 N 
ATOM     15  H   UNL     1      45.633   3.636  15.039  0.00  0.00    +0.000 HD
BRANCH  14  18
ATOM     16  C   UNL     1      49.151   5.454  16.990  0.00  0.00    +0.000 A 
ATOM     17  C   UNL     1      48.088   5.413  16.072  0.00  0.00    +0.000 A 
ATOM     18  C   UNL     1      47.445   4.212  15.726  0.00  0.00    +0.000 A 
ATOM     19  C   UNL     1      47.912   3.031  16.321  0.00  0.00    +0.000 A 
ATOM     20  C   UNL     1      48.925   3.055  17.283  0.00  0.00    +0.000 A 
ATOM     21  C   UNL     1      49.525   4.263  17.631  0.00  0.00    +0.000 A 
ATOM     22 CL   UNL     1      50.782   4.253  18.818  0.00  0.00    +0.000 Cl
BRANCH  16  23
ATOM     23  N   UNL     1      49.660   6.707  17.391  0.00  0.00    +0.000 N 
ATOM     24  H   UNL     1      50.188   7.186  16.670  0.00  0.00    +0.000 HD
ATOM     25  H   UNL     1      50.165   6.650  18.275  0.00  0.00    +0.000 HD
ENDBRANCH  16  23
ENDBRANCH  14  18
ENDBRANCH   1  14
TORSDOF 5
ENDMDL
MODEL 9
REMARK VINA RESULT:    -6.390      3.505      7.118
REMARK INTER + INTRA:          -9.123
REMARK INTER:                  -8.302
REMARK INTRA:                  -0.821
REMARK UNBOUND:                -1.052
REMARK  Name = 
REMARK  5 active torsions:
REMARK  status: ('A' for Active; 'I' for Inactive)
REMARK    1  A    between atoms: N_1  and  C_2
REMARK    2  A    between atoms: C_4  and  N_5
REMARK    3  A    between atoms: N_5  and  C_6
REMARK    4  A    between atoms: C_6  and  C_7
REMARK    5  A    between atoms: C_11  and  C_12
REMARK                            x       y       z     vdW  Elec       q    Type
REMARK                         _______ _______ _______ _____ _____    ______ ____
ROOT
ATOM      1  C   UNL     1      45.901   6.847  12.871  0.00  0.00    +0.000 C 
ENDROOT
BRANCH   1   2
ATOM      2  C   UNL     1      45.032   5.879  12.101  0.00  0.00    +0.000 A 
ATOM      3  C   UNL     1      43.658   5.790  12.342  0.00  0.00    +0.000 A 
ATOM      4  C   UNL     1      42.870   4.933  11.578  0.00  0.00    +0.000 A 
ATOM      5  C   UNL     1      43.445   4.166  10.559  0.00  0.00    +0.000 A 
ATOM      6  C   UNL     1      44.820   4.234  10.277  0.00  0.00    +0.000 A 
ATOM      7  C   UNL     1      45.599   5.080  11.090  0.00  0.00    +0.000 A 
BRANCH   6   8
ATOM      8  C   UNL     1      45.419   3.514   9.126  0.00  0.00    +0.000 A 
ATOM      9  C   UNL     1      45.956   4.218   8.030  0.00  0.00    +0.000 A 
ATOM     10  C   UNL     1      46.595   3.557   6.976  0.00  0.00    +0.000 A 
ATOM     11  C   UNL     1      46.718   2.173   6.996  0.00  0.00    +0.000 A 
ATOM     12  C   UNL     1      46.186   1.449   8.059  0.00  0.00    +0.000 A 
ATOM     13  C   UNL     1      45.535   2.113   9.106  0.00  0.00    +0.000 A 
ENDBRANCH   6   8
ENDBRANCH   1   2
BRANCH   1  14
ATOM     14  N   UNL     1      45.178   8.089  13.120  0.00  0.00    +0.000 N 
ATOM     15  H   UNL     1      44.172   7.951  13.097  0.00  0.00    +0.000 HD
BRANCH  14  18
ATOM     16  C   UNL     1      45.123  11.162  10.960  0.00  0.00    +0.000 A 
ATOM     17  C   UNL     1      44.682  10.083  11.745  0.00  0.00    +0.000 A 
ATOM     18  C   UNL     1      45.575   9.245  12.434  0.00  0.00    +0.000 A 
ATOM     19  C   UNL     1      46.946   9.510  12.301  0.00  0.00    +0.000 A 
ATOM     20  C   UNL     1      47.406  10.614  11.579  0.00  0.00    +0.000 A 
ATOM     21  C   UNL     1      46.497  11.447  10.930  0.00  0.00    +0.000 A 
ATOM     22 CL   UNL     1      47.102  12.797  10.036  0.00  0.00    +0.000 Cl
BRANCH  16  23
ATOM     23  N   UNL     1      44.169  12.041  10.406  0.00  0.00    +0.000 N 
ATOM     24  H   UNL     1      44.530  12.619   9.655  0.00  0.00    +0.000 HD
ATOM     25  H   UNL     1      43.686  12.583  11.121  0.00  0.00    +0.000 HD
ENDBRANCH  16  23
ENDBRANCH  14  18
ENDBRANCH   1  14
TORSDOF 5
ENDMDL
