MODEL 1
REMARK VINA RESULT:    -8.208      0.000      0.000
REMARK INTER + INTRA:         -11.740
REMARK INTER:                 -10.847
REMARK INTRA:                  -0.893
REMARK UNBOUND:                -0.893
REMARK  Name = 
REMARK  6 active torsions:
REMARK  status: ('A' for Active; 'I' for Inactive)
REMARK    1  A    between atoms: N_1  and  C_2
REMARK    2  A    between atoms: C_6  and  C_7
REMARK    3  A    between atoms: C_7  and  C_8
REMARK    4  A    between atoms: C_11  and  C_12
REMARK    5  A    between atoms: C_12  and  N_13
REMARK    6  A    between atoms: C_14  and  C_16
REMARK                            x       y       z     vdW  Elec       q    Type
REMARK                         _______ _______ _______ _____ _____    ______ ____
ROOT
ATOM      1  C   UNL     1      44.817   4.622  10.262  0.00  0.00    +0.000 A 
ATOM      2  C   UNL     1      44.380   4.680  11.582  0.00  0.00    +0.000 A 
ATOM      3  C   UNL     1      44.924   5.643  12.431  0.00  0.00    +0.000 A 
ATOM      4  C   UNL     1      45.898   6.522  11.955  0.00  0.00    +0.000 A 
ATOM      5  C   UNL     1      46.283   6.380  10.627  0.00  0.00    +0.000 A 
ATOM      6  N   UNL     1      45.775   5.453   9.779  0.00  0.00    +0.000 NA
ENDROOT
BRANCH   1   7
ATOM      7  C   UNL     1      44.170   3.663   9.283  0.00  0.00    +0.000 C 
BRANCH   7  12
ATOM      8  C   UNL     1      46.620   2.832   6.455  0.00  0.00    +0.000 A 
ATOM      9  C   UNL     1      47.086   1.583   6.872  0.00  0.00    +0.000 A 
ATOM     10  C   UNL     1      46.555   0.970   8.007  0.00  0.00    +0.000 A 
ATOM     11  C   UNL     1      45.590   1.629   8.768  0.00  0.00    +0.000 A 
ATOM     12  C   UNL     1      45.170   2.920   8.419  0.00  0.00    +0.000 A 
ATOM     13  C   UNL     1      45.703   3.513   7.263  0.00  0.00    +0.000 A 
BRANCH   8  14
ATOM     14  N   UNL     1      47.231   3.486   5.377  0.00  0.00    +0.000 N 
ATOM     15  H   UNL     1      48.034   2.985   5.006  0.00  0.00    +0.000 HD
ATOM     16  H   UNL     1      46.578   3.748   4.644  0.00  0.00    +0.000 HD
ENDBRANCH   8  14
ENDBRANCH   7  12
ENDBRANCH   1   7
BRANCH   4  17
ATOM     17  C   UNL     1      46.458   7.619  12.811  0.00  0.00    +0.000 C 
BRANCH  17  18
ATOM     18  N   UNL     1      47.004   7.091  14.038  0.00  0.00    +0.000 N 
ATOM     19  C   UNL     1      48.287   6.614  14.110  0.00  0.00    +0.000 C 
ATOM     20  O   UNL     1      49.046   6.637  13.144  0.00  0.00    +0.000 OA
ATOM     21  H   UNL     1      46.341   6.840  14.765  0.00  0.00    +0.000 HD
BRANCH  19  22
ATOM     22  C   UNL     1      48.732   6.139  15.426  0.00  0.00    +0.000 A 
ATOM     23  C   UNL     1      49.769   6.789  16.083  0.00  0.00    +0.000 A 
ATOM     24  S   UNL     1      50.096   6.159  17.634  0.00  0.00    +0.000 S 
ATOM     25  C   UNL     1      48.906   4.955  17.457  0.00  0.00    +0.000 A 
ATOM     26  N   UNL     1      48.675   4.046  18.444  0.00  0.00    +0.000 NA
ATOM     27  C   UNL     1      47.768   3.174  18.162  0.00  0.00    +0.000 A 
ATOM     28  N   UNL     1      47.065   3.126  16.984  0.00  0.00    +0.000 N 
ATOM     29  C   UNL     1      47.247   4.037  15.972  0.00  0.00    +0.000 A 
ATOM     30  O   UNL     1      46.582   3.988  14.943  0.00  0.00    +0.000 OA
ATOM     31  C   UNL     1      48.261   5.041  16.238  0.00  0.00    +0.000 A 
ATOM     32  H   UNL     1      46.365   2.418  16.828  0.00  0.00    +0.000 HD
ENDBRANCH  19  22
ENDBRANCH  17  18
ENDBRANCH   4  17
TORSDOF 6
ENDMDL
MODEL 2
REMARK VINA RESULT:    -8.010      1.066      1.322
REMARK INTER + INTRA:         -11.479
REMARK INTER:                 -10.510
REMARK INTRA:                  -0.969
REMARK UNBOUND:                -0.893
REMARK  Name = 
REMARK  6 active torsions:
REMARK  status: ('A' for Active; 'I' for Inactive)
REMARK    1  A    between atoms: N_1  and  C_2
REMARK    2  A    between atoms: C_6  and  C_7
REMARK    3  A    between atoms: C_7  and  C_8
REMARK    4  A    between atoms: C_11  and  C_12
REMARK    5  A    between atoms: C_12  and  N_13
REMARK    6  A    between atoms: C_14  and  C_16
REMARK                            x       y       z     vdW  Elec       q    Type
REMARK                         _______ _______ _______ _____ _____    ______ ____
ROOT
ATOM      1  C   UNL     1      44.608   5.601  11.183  0.00  0.00    +0.000 A 
ATOM      2  C   UNL     1      44.301   6.942  11.392  0.00  0.00    +0.000 A 
ATOM      3  C   UNL     1      45.161   7.719  12.166  0.00  0.00    +0.000 A 
ATOM      4  C   UNL     1      46.304   7.145  12.726  0.00  0.00    +0.000 A 
ATOM      5  C   UNL     1      46.522   5.796  12.475  0.00  0.00    +0.000 A 
ATOM      6  N   UNL     1      45.704   5.016  11.730  0.00  0.00    +0.000 NA
ENDROOT
BRANCH   1   7
ATOM      7  C   UNL     1      43.756   4.755  10.258  0.00  0.00    +0.000 C 
BRANCH   7  12
ATOM      8  C   UNL     1      46.199   3.450   7.608  0.00  0.00    +0.000 A 
ATOM      9  C   UNL     1      46.128   2.076   7.842  0.00  0.00    +0.000 A 
ATOM     10  C   UNL     1      45.238   1.561   8.786  0.00  0.00    +0.000 A 
ATOM     11  C   UNL     1      44.449   2.425   9.543  0.00  0.00    +0.000 A 
ATOM     12  C   UNL     1      44.565   3.814   9.387  0.00  0.00    +0.000 A 
ATOM     13  C   UNL     1      45.454   4.312   8.421  0.00  0.00    +0.000 A 
BRANCH   8  14
ATOM     14  N   UNL     1      47.168   3.966   6.737  0.00  0.00    +0.000 N 
ATOM     15  H   UNL     1      47.106   3.586   5.797  0.00  0.00    +0.000 HD
ATOM     16  H   UNL     1      47.203   4.982   6.733  0.00  0.00    +0.000 HD
ENDBRANCH   8  14
ENDBRANCH   7  12
ENDBRANCH   1   7
BRANCH   4  17
ATOM     17  C   UNL     1      47.295   7.959  13.505  0.00  0.00    +0.000 C 
BRANCH  17  18
ATOM     18  N   UNL     1      47.658   7.296  14.734  0.00  0.00    +0.000 N 
ATOM     19  C   UNL     1      48.933   6.847  14.961  0.00  0.00    +0.000 C 
ATOM     20  O   UNL     1      49.837   7.011  14.144  0.00  0.00    +0.000 OA
ATOM     21  H   UNL     1      46.899   6.938  15.305  0.00  0.00    +0.000 HD
BRANCH  19  22
ATOM     22  C   UNL     1      49.181   6.222  16.266  0.00  0.00    +0.000 A 
ATOM     23  C   UNL     1      50.138   6.756  17.120  0.00  0.00    +0.000 A 
ATOM     24  S   UNL     1      50.232   5.958  18.624  0.00  0.00    +0.000 S 
ATOM     25  C   UNL     1      49.041   4.832  18.165  0.00  0.00    +0.000 A 
ATOM     26  N   UNL     1      48.652   3.838  19.010  0.00  0.00    +0.000 NA
ATOM     27  C   UNL     1      47.765   3.040  18.521  0.00  0.00    +0.000 A 
ATOM     28  N   UNL     1      47.229   3.143  17.261  0.00  0.00    +0.000 N 
ATOM     29  C   UNL     1      47.574   4.143  16.385  0.00  0.00    +0.000 A 
ATOM     30  O   UNL     1      47.053   4.227  15.277  0.00  0.00    +0.000 OA
ATOM     31  C   UNL     1      48.571   5.069  16.887  0.00  0.00    +0.000 A 
ATOM     32  H   UNL     1      46.536   2.485  16.940  0.00  0.00    +0.000 HD
ENDBRANCH  19  22
ENDBRANCH  17  18
ENDBRANCH   4  17
TORSDOF 6
ENDMDL
MODEL 3
REMARK VINA RESULT:    -7.606      2.685      4.396
REMARK INTER + INTRA:         -10.944
REMARK INTER:                 -10.056
REMARK INTRA:                  -0.888
REMARK UNBOUND:                -0.893
REMARK  Name = 
REMARK  6 active torsions:
REMARK  status: ('A' for Active; 'I' for Inactive)
REMARK    1  A    between atoms: N_1  and  C_2
REMARK    2  A    between atoms: C_6  and  C_7
REMARK    3  A    between atoms: C_7  and  C_8
REMARK    4  A    between atoms: C_11  and  C_12
REMARK    5  A    between atoms: C_12  and  N_13
REMARK    6  A    between atoms: C_14  and  C_16
REMARK                            x       y       z     vdW  Elec       q    Type
REMARK                         _______ _______ _______ _____ _____    ______ ____
ROOT
ATOM      1  C   UNL     1      44.967   4.514   9.747  0.00  0.00    +0.000 A 
ATOM      2  C   UNL     1      45.753   5.653   9.892  0.00  0.00    +0.000 A 
ATOM      3  C   UNL     1      46.164   6.032  11.170  0.00  0.00    +0.000 A 
ATOM      4  C   UNL     1      45.775   5.278  12.278  0.00  0.00    +0.000 A 
ATOM      5  C   UNL     1      44.978   4.166  12.039  0.00  0.00    +0.000 A 
ATOM      6  N   UNL     1      44.562   3.774  10.811  0.00  0.00    +0.000 NA
ENDROOT
BRANCH   1   7
ATOM      7  C   UNL     1      44.595   4.010   8.367  0.00  0.00    +0.000 C 
BRANCH   7  12
ATOM      8  C   UNL     1      47.331   2.383   6.233  0.00  0.00    +0.000 A 
ATOM      9  C   UNL     1      47.441   1.137   6.855  0.00  0.00    +0.000 A 
ATOM     10  C   UNL     1      46.584   0.787   7.899  0.00  0.00    +0.000 A 
ATOM     11  C   UNL     1      45.643   1.703   8.365  0.00  0.00    +0.000 A 
ATOM     12  C   UNL     1      45.572   2.991   7.815  0.00  0.00    +0.000 A 
ATOM     13  C   UNL     1      46.432   3.320   6.755  0.00  0.00    +0.000 A 
BRANCH   8  14
ATOM     14  N   UNL     1      48.263   2.767   5.259  0.00  0.00    +0.000 N 
ATOM     15  H   UNL     1      48.895   3.496   5.576  0.00  0.00    +0.000 HD
ATOM     16  H   UNL     1      48.764   1.982   4.853  0.00  0.00    +0.000 HD
ENDBRANCH   8  14
ENDBRANCH   7  12
ENDBRANCH   1   7
BRANCH   4  17
ATOM     17  C   UNL     1      46.252   5.607  13.662  0.00  0.00    +0.000 C 
BRANCH  17  18
ATOM     18  N   UNL     1      46.870   6.910  13.701  0.00  0.00    +0.000 N 
ATOM     19  C   UNL     1      48.208   7.065  13.958  0.00  0.00    +0.000 C 
ATOM     20  O   UNL     1      48.952   6.105  14.140  0.00  0.00    +0.000 OA
ATOM     21  H   UNL     1      46.252   7.710  13.797  0.00  0.00    +0.000 HD
BRANCH  19  22
ATOM     22  C   UNL     1      48.721   8.441  13.933  0.00  0.00    +0.000 A 
ATOM     23  C   UNL     1      48.403   9.318  14.962  0.00  0.00    +0.000 A 
ATOM     24  S   UNL     1      49.153  10.843  14.817  0.00  0.00    +0.000 S 
ATOM     25  C   UNL     1      49.880  10.407  13.341  0.00  0.00    +0.000 A 
ATOM     26  N   UNL     1      50.665  11.286  12.659  0.00  0.00    +0.000 NA
ATOM     27  C   UNL     1      51.124  10.832  11.543  0.00  0.00    +0.000 A 
ATOM     28  N   UNL     1      50.873   9.579  11.043  0.00  0.00    +0.000 N 
ATOM     29  C   UNL     1      50.108   8.652  11.708  0.00  0.00    +0.000 A 
ATOM     30  O   UNL     1      49.927   7.528  11.251  0.00  0.00    +0.000 OA
ATOM     31  C   UNL     1      49.564   9.113  12.971  0.00  0.00    +0.000 A 
ATOM     32  H   UNL     1      51.266   9.285  10.162  0.00  0.00    +0.000 HD
ENDBRANCH  19  22
ENDBRANCH  17  18
ENDBRANCH   4  17
TORSDOF 6
ENDMDL
MODEL 4
REMARK VINA RESULT:    -7.344      2.619      3.318
REMARK INTER + INTRA:         -10.597
REMARK INTER:                  -9.597
REMARK INTRA:                  -1.000
REMARK UNBOUND:                -0.893
REMARK  Name = 
REMARK  6 active torsions:
REMARK  status: ('A' for Active; 'I' for Inactive)
REMARK    1  A    between atoms: N_1  and  C_2
REMARK    2  A    between atoms: C_6  and  C_7
REMARK    3  A    between atoms: C_7  and  C_8
REMARK    4  A    between atoms: C_11  and  C_12
REMARK    5  A    between atoms: C_12  and  N_13
REMARK    6  A    between atoms: C_14  and  C_16
REMARK                            x       y       z     vdW  Elec       q    Type
REMARK                         _______ _______ _______ _____ _____    ______ ____
ROOT
ATOM      1  C   UNL     1      45.245   5.631  11.742  0.00  0.00    +0.000 A 
ATOM      2  C   UNL     1      45.709   6.934  11.595  0.00  0.00    +0.000 A 
ATOM      3  C   UNL     1      46.756   7.374  12.405  0.00  0.00    +0.000 A 
ATOM      4  C   UNL     1      47.313   6.513  13.352  0.00  0.00    +0.000 A 
ATOM      5  C   UNL     1      46.776   5.234  13.437  0.00  0.00    +0.000 A 
ATOM      6  N   UNL     1      45.759   4.780  12.667  0.00  0.00    +0.000 NA
ENDROOT
BRANCH   1   7
ATOM      7  C   UNL     1      44.186   5.084  10.806  0.00  0.00    +0.000 C 
BRANCH   7  12
ATOM      8  C   UNL     1      46.088   3.608   7.824  0.00  0.00    +0.000 A 
ATOM      9  C   UNL     1      45.806   2.249   7.982  0.00  0.00    +0.000 A 
ATOM     10  C   UNL     1      44.941   1.816   8.986  0.00  0.00    +0.000 A 
ATOM     11  C   UNL     1      44.392   2.736   9.878  0.00  0.00    +0.000 A 
ATOM     12  C   UNL     1      44.729   4.094   9.795  0.00  0.00    +0.000 A 
ATOM     13  C   UNL     1      45.589   4.514   8.767  0.00  0.00    +0.000 A 
BRANCH   8  14
ATOM     14  N   UNL     1      47.040   4.024   6.883  0.00  0.00    +0.000 N 
ATOM     15  H   UNL     1      46.898   4.978   6.564  0.00  0.00    +0.000 HD
ATOM     16  H   UNL     1      47.997   3.865   7.184  0.00  0.00    +0.000 HD
ENDBRANCH   8  14
ENDBRANCH   7  12
ENDBRANCH   1   7
BRANCH   4  17
ATOM     17  C   UNL     1      48.486   6.919  14.194  0.00  0.00    +0.000 C 
BRANCH  17  18
ATOM     18  N   UNL     1      48.201   6.747  15.597  0.00  0.00    +0.000 N 
ATOM     19  C   UNL     1      49.164   6.339  16.484  0.00  0.00    +0.000 C 
ATOM     20  O   UNL     1      50.323   6.128  16.135  0.00  0.00    +0.000 OA
ATOM     21  H   UNL     1      47.223   6.678  15.864  0.00  0.00    +0.000 HD
BRANCH  19  22
ATOM     22  C   UNL     1      48.754   6.238  17.890  0.00  0.00    +0.000 A 
ATOM     23  C   UNL     1      48.898   5.036  18.570  0.00  0.00    +0.000 A 
ATOM     24  S   UNL     1      48.454   5.123  20.214  0.00  0.00    +0.000 S 
ATOM     25  C   UNL     1      47.995   6.754  20.062  0.00  0.00    +0.000 A 
ATOM     26  N   UNL     1      47.498   7.446  21.125  0.00  0.00    +0.000 NA
ATOM     27  C   UNL     1      47.163   8.662  20.858  0.00  0.00    +0.000 A 
ATOM     28  N   UNL     1      47.279   9.255  19.626  0.00  0.00    +0.000 N 
ATOM     29  C   UNL     1      47.796   8.603  18.532  0.00  0.00    +0.000 A 
ATOM     30  O   UNL     1      47.917   9.170  17.451  0.00  0.00    +0.000 OA
ATOM     31  C   UNL     1      48.188   7.228  18.778  0.00  0.00    +0.000 A 
ATOM     32  H   UNL     1      47.000  10.213  19.485  0.00  0.00    +0.000 HD
ENDBRANCH  19  22
ENDBRANCH  17  18
ENDBRANCH   4  17
TORSDOF 6
ENDMDL
MODEL 5
REMARK VINA RESULT:    -7.158      2.169      2.848
REMARK INTER + INTRA:         -10.352
REMARK INTER:                  -9.356
REMARK INTRA:                  -0.996
REMARK UNBOUND:                -0.893
REMARK  Name = 
REMARK  6 active torsions:
REMARK  status: ('A' for Active; 'I' for Inactive)
REMARK    1  A    between atoms: N_1  and  C_2
REMARK    2  A    between atoms: C_6  and  C_7
REMARK    3  A    between atoms: C_7  and  C_8
REMARK    4  A    between atoms: C_11  and  C_12
REMARK    5  A    between atoms: C_12  and  N_13
REMARK    6  A    between atoms: C_14  and  C_16
REMARK                            x       y       z     vdW  Elec       q    Type
REMARK                         _______ _______ _______ _____ _____    ______ ____
ROOT
ATOM      1  C   UNL     1      45.394   5.811  11.827  0.00  0.00    +0.000 A 
ATOM      2  C   UNL     1      45.839   7.129  11.766  0.00  0.00    +0.000 A 
ATOM      3  C   UNL     1      46.921   7.514  12.556  0.00  0.00    +0.000 A 
ATOM      4  C   UNL     1      47.532   6.586  13.401  0.00  0.00    +0.000 A 
ATOM      5  C   UNL     1      47.011   5.298  13.407  0.00  0.00    +0.000 A 
ATOM      6  N   UNL     1      45.961   4.894  12.652  0.00  0.00    +0.000 NA
ENDROOT
BRANCH   1   7
ATOM      7  C   UNL     1      44.295   5.330  10.902  0.00  0.00    +0.000 C 
BRANCH   7  12
ATOM      8  C   UNL     1      46.070   3.694   7.925  0.00  0.00    +0.000 A 
ATOM      9  C   UNL     1      45.699   2.359   8.102  0.00  0.00    +0.000 A 
ATOM     10  C   UNL     1      44.815   1.997   9.118  0.00  0.00    +0.000 A 
ATOM     11  C   UNL     1      44.336   2.962  10.002  0.00  0.00    +0.000 A 
ATOM     12  C   UNL     1      44.762   4.293   9.900  0.00  0.00    +0.000 A 
ATOM     13  C   UNL     1      45.640   4.642   8.860  0.00  0.00    +0.000 A 
BRANCH   8  14
ATOM     14  N   UNL     1      47.039   4.034   6.972  0.00  0.00    +0.000 N 
ATOM     15  H   UNL     1      47.921   3.548   7.106  0.00  0.00    +0.000 HD
ATOM     16  H   UNL     1      46.705   3.954   6.015  0.00  0.00    +0.000 HD
ENDBRANCH   8  14
ENDBRANCH   7  12
ENDBRANCH   1   7
BRANCH   4  17
ATOM     17  C   UNL     1      48.742   6.937  14.215  0.00  0.00    +0.000 C 
BRANCH  17  18
ATOM     18  N   UNL     1      48.470   6.817  15.626  0.00  0.00    +0.000 N 
ATOM     19  C   UNL     1      49.029   7.669  16.543  0.00  0.00    +0.000 C 
ATOM     20  O   UNL     1      49.767   8.593  16.209  0.00  0.00    +0.000 OA
ATOM     21  H   UNL     1      48.073   5.939  15.946  0.00  0.00    +0.000 HD
BRANCH  19  22
ATOM     22  C   UNL     1      48.642   7.463  17.944  0.00  0.00    +0.000 A 
ATOM     23  C   UNL     1      48.043   8.494  18.657  0.00  0.00    +0.000 A 
ATOM     24  S   UNL     1      47.582   8.054  20.238  0.00  0.00    +0.000 S 
ATOM     25  C   UNL     1      48.223   6.489  20.050  0.00  0.00    +0.000 A 
ATOM     26  N   UNL     1      48.171   5.582  21.064  0.00  0.00    +0.000 NA
ATOM     27  C   UNL     1      48.721   4.448  20.793  0.00  0.00    +0.000 A 
ATOM     28  N   UNL     1      49.321   4.134  19.598  0.00  0.00    +0.000 N 
ATOM     29  C   UNL     1      49.376   5.008  18.540  0.00  0.00    +0.000 A 
ATOM     30  O   UNL     1      49.890   4.687  17.474  0.00  0.00    +0.000 OA
ATOM     31  C   UNL     1      48.770   6.302  18.795  0.00  0.00    +0.000 A 
ATOM     32  H   UNL     1      49.732   3.225  19.450  0.00  0.00    +0.000 HD
ENDBRANCH  19  22
ENDBRANCH  17  18
ENDBRANCH   4  17
TORSDOF 6
ENDMDL
MODEL 6
REMARK VINA RESULT:    -7.011      4.105      9.738
REMARK INTER + INTRA:         -10.158
REMARK INTER:                  -9.114
REMARK INTRA:                  -1.043
REMARK UNBOUND:                -0.893
REMARK  Name = 
REMARK  6 active torsions:
REMARK  status: ('A' for Active; 'I' for Inactive)
REMARK    1  A    between atoms: N_1  and  C_2
REMARK    2  A    between atoms: C_6  and  C_7
REMARK    3  A    between atoms: C_7  and  C_8
REMARK    4  A    between atoms: C_11  and  C_12
REMARK    5  A    between atoms: C_12  and  N_13
REMARK    6  A    between atoms: C_14  and  C_16
REMARK                            x       y       z     vdW  Elec       q    Type
REMARK                         _______ _______ _______ _____ _____    ______ ____
ROOT
ATOM      1  C   UNL     1      48.059   7.162  19.529  0.00  0.00    +0.000 A 
ATOM      2  C   UNL     1      47.009   6.252  19.443  0.00  0.00    +0.000 A 
ATOM      3  C   UNL     1      46.973   5.362  18.371  0.00  0.00    +0.000 A 
ATOM      4  C   UNL     1      47.974   5.401  17.399  0.00  0.00    +0.000 A 
ATOM      5  C   UNL     1      48.974   6.352  17.560  0.00  0.00    +0.000 A 
ATOM      6  N   UNL     1      49.035   7.231  18.588  0.00  0.00    +0.000 NA
ENDROOT
BRANCH   1   7
ATOM      7  C   UNL     1      48.190   8.068  20.736  0.00  0.00    +0.000 C 
BRANCH   7  12
ATOM      8  C   UNL     1      46.827  11.394  19.405  0.00  0.00    +0.000 A 
ATOM      9  C   UNL     1      45.839  11.669  20.353  0.00  0.00    +0.000 A 
ATOM     10  C   UNL     1      45.668  10.840  21.462  0.00  0.00    +0.000 A 
ATOM     11  C   UNL     1      46.450   9.694  21.602  0.00  0.00    +0.000 A 
ATOM     12  C   UNL     1      47.388   9.349  20.618  0.00  0.00    +0.000 A 
ATOM     13  C   UNL     1      47.557  10.205  19.518  0.00  0.00    +0.000 A 
BRANCH   8  14
ATOM     14  N   UNL     1      46.921  12.170  18.241  0.00  0.00    +0.000 N 
ATOM     15  H   UNL     1      47.854  12.539  18.080  0.00  0.00    +0.000 HD
ATOM     16  H   UNL     1      46.551  11.704  17.418  0.00  0.00    +0.000 HD
ENDBRANCH   8  14
ENDBRANCH   7  12
ENDBRANCH   1   7
BRANCH   4  17
ATOM     17  C   UNL     1      48.015   4.417  16.268  0.00  0.00    +0.000 C 
BRANCH  17  18
ATOM     18  N   UNL     1      47.066   4.769  15.240  0.00  0.00    +0.000 N 
ATOM     19  C   UNL     1      47.417   5.556  14.174  0.00  0.00    +0.000 C 
ATOM     20  O   UNL     1      48.562   5.979  14.025  0.00  0.00    +0.000 OA
ATOM     21  H   UNL     1      46.083   4.643  15.459  0.00  0.00    +0.000 HD
BRANCH  19  22
ATOM     22  C   UNL     1      46.368   5.811  13.179  0.00  0.00    +0.000 A 
ATOM     23  C   UNL     1      46.026   7.116  12.851  0.00  0.00    +0.000 A 
ATOM     24  S   UNL     1      44.854   7.225  11.617  0.00  0.00    +0.000 S 
ATOM     25  C   UNL     1      44.717   5.532  11.520  0.00  0.00    +0.000 A 
ATOM     26  N   UNL     1      43.851   4.946  10.647  0.00  0.00    +0.000 NA
ATOM     27  C   UNL     1      43.829   3.658  10.703  0.00  0.00    +0.000 A 
ATOM     28  N   UNL     1      44.595   2.897  11.550  0.00  0.00    +0.000 N 
ATOM     29  C   UNL     1      45.499   3.443  12.429  0.00  0.00    +0.000 A 
ATOM     30  O   UNL     1      46.193   2.736  13.152  0.00  0.00    +0.000 OA
ATOM     31  C   UNL     1      45.561   4.893  12.408  0.00  0.00    +0.000 A 
ATOM     32  H   UNL     1      44.532   1.891  11.542  0.00  0.00    +0.000 HD
ENDBRANCH  19  22
ENDBRANCH  17  18
ENDBRANCH   4  17
TORSDOF 6
ENDMDL
MODEL 7
REMARK VINA RESULT:    -6.854      2.632      3.658
REMARK INTER + INTRA:          -9.950
REMARK INTER:                  -8.628
REMARK INTRA:                  -1.323
REMARK UNBOUND:                -0.893
REMARK  Name = 
REMARK  6 active torsions:
REMARK  status: ('A' for Active; 'I' for Inactive)
REMARK    1  A    between atoms: N_1  and  C_2
REMARK    2  A    between atoms: C_6  and  C_7
REMARK    3  A    between atoms: C_7  and  C_8
REMARK    4  A    between atoms: C_11  and  C_12
REMARK    5  A    between atoms: C_12  and  N_13
REMARK    6  A    between atoms: C_14  and  C_16
REMARK                            x       y       z     vdW  Elec       q    Type
REMARK                         _______ _______ _______ _____ _____    ______ ____
ROOT
ATOM      1  C   UNL     1      45.787   7.381  11.902  0.00  0.00    +0.000 A 
ATOM      2  C   UNL     1      46.957   6.639  11.776  0.00  0.00    +0.000 A 
ATOM      3  C   UNL     1      48.088   7.033  12.489  0.00  0.00    +0.000 A 
ATOM      4  C   UNL     1      48.037   8.164  13.306  0.00  0.00    +0.000 A 
ATOM      5  C   UNL     1      46.830   8.851  13.360  0.00  0.00    +0.000 A 
ATOM      6  N   UNL     1      45.716   8.494  12.677  0.00  0.00    +0.000 NA
ENDROOT
BRANCH   1   7
ATOM      7  C   UNL     1      44.510   6.918  11.230  0.00  0.00    +0.000 C 
BRANCH   7  12
ATOM      8  C   UNL     1      44.031   3.135  10.846  0.00  0.00    +0.000 A 
ATOM      9  C   UNL     1      43.593   2.796  12.128  0.00  0.00    +0.000 A 
ATOM     10  C   UNL     1      43.368   3.785  13.086  0.00  0.00    +0.000 A 
ATOM     11  C   UNL     1      43.634   5.120  12.785  0.00  0.00    +0.000 A 
ATOM     12  C   UNL     1      44.157   5.476  11.534  0.00  0.00    +0.000 A 
ATOM     13  C   UNL     1      44.361   4.469  10.577  0.00  0.00    +0.000 A 
BRANCH   8  14
ATOM     14  N   UNL     1      44.355   2.130   9.925  0.00  0.00    +0.000 N 
ATOM     15  H   UNL     1      44.798   1.322  10.352  0.00  0.00    +0.000 HD
ATOM     16  H   UNL     1      43.574   1.863   9.332  0.00  0.00    +0.000 HD
ENDBRANCH   8  14
ENDBRANCH   7  12
ENDBRANCH   1   7
BRANCH   4  17
ATOM     17  C   UNL     1      49.206   8.585  14.146  0.00  0.00    +0.000 C 
BRANCH  17  18
ATOM     18  N   UNL     1      49.315   7.766  15.329  0.00  0.00    +0.000 N 
ATOM     19  C   UNL     1      48.732   8.131  16.515  0.00  0.00    +0.000 C 
ATOM     20  O   UNL     1      48.066   9.157  16.625  0.00  0.00    +0.000 OA
ATOM     21  H   UNL     1      50.044   7.058  15.333  0.00  0.00    +0.000 HD
BRANCH  19  22
ATOM     22  C   UNL     1      48.887   7.192  17.633  0.00  0.00    +0.000 A 
ATOM     23  C   UNL     1      49.307   7.654  18.874  0.00  0.00    +0.000 A 
ATOM     24  S   UNL     1      49.347   6.445  20.076  0.00  0.00    +0.000 S 
ATOM     25  C   UNL     1      48.864   5.248  18.967  0.00  0.00    +0.000 A 
ATOM     26  N   UNL     1      48.718   3.950  19.354  0.00  0.00    +0.000 NA
ATOM     27  C   UNL     1      48.377   3.147  18.404  0.00  0.00    +0.000 A 
ATOM     28  N   UNL     1      48.168   3.520  17.100  0.00  0.00    +0.000 N 
ATOM     29  C   UNL     1      48.281   4.820  16.670  0.00  0.00    +0.000 A 
ATOM     30  O   UNL     1      48.057   5.128  15.504  0.00  0.00    +0.000 OA
ATOM     31  C   UNL     1      48.664   5.766  17.701  0.00  0.00    +0.000 A 
ATOM     32  H   UNL     1      47.901   2.841  16.404  0.00  0.00    +0.000 HD
ENDBRANCH  19  22
ENDBRANCH  17  18
ENDBRANCH   4  17
TORSDOF 6
ENDMDL
MODEL 8
REMARK VINA RESULT:    -6.850      4.023      9.467
REMARK INTER + INTRA:          -9.945
REMARK INTER:                  -9.361
REMARK INTRA:                  -0.584
REMARK UNBOUND:                -0.893
REMARK  Name = 
REMARK  6 active torsions:
REMARK  status: ('A' for Active; 'I' for Inactive)
REMARK    1  A    between atoms: N_1  and  C_2
REMARK    2  A    between atoms: C_6  and  C_7
REMARK    3  A    between atoms: C_7  and  C_8
REMARK    4  A    between atoms: C_11  and  C_12
REMARK    5  A    between atoms: C_12  and  N_13
REMARK    6  A    between atoms: C_14  and  C_16
REMARK                            x       y       z     vdW  Elec       q    Type
REMARK                         _______ _______ _______ _____ _____    ______ ____
ROOT
ATOM      1  C   UNL     1      51.386   3.921  17.843  0.00  0.00    +0.000 A 
ATOM      2  C   UNL     1      50.962   2.672  17.397  0.00  0.00    +0.000 A 
ATOM      3  C   UNL     1      49.613   2.483  17.102  0.00  0.00    +0.000 A 
ATOM      4  C   UNL     1      48.710   3.535  17.266  0.00  0.00    +0.000 A 
ATOM      5  C   UNL     1      49.221   4.741  17.729  0.00  0.00    +0.000 A 
ATOM      6  N   UNL     1      50.525   4.954  18.027  0.00  0.00    +0.000 NA
ENDROOT
BRANCH   1   7
ATOM      7  C   UNL     1      52.859   4.194  18.068  0.00  0.00    +0.000 C 
BRANCH   7  12
ATOM      8  C   UNL     1      54.779   1.562  20.086  0.00  0.00    +0.000 A 
ATOM      9  C   UNL     1      55.045   0.616  19.094  0.00  0.00    +0.000 A 
ATOM     10  C   UNL     1      54.688   0.859  17.767  0.00  0.00    +0.000 A 
ATOM     11  C   UNL     1      54.011   2.029  17.431  0.00  0.00    +0.000 A 
ATOM     12  C   UNL     1      53.655   2.954  18.423  0.00  0.00    +0.000 A 
ATOM     13  C   UNL     1      54.037   2.700  19.750  0.00  0.00    +0.000 A 
BRANCH   8  14
ATOM     14  N   UNL     1      55.044   1.265  21.430  0.00  0.00    +0.000 N 
ATOM     15  H   UNL     1      55.222   0.279  21.596  0.00  0.00    +0.000 HD
ATOM     16  H   UNL     1      55.767   1.853  21.834  0.00  0.00    +0.000 HD
ENDBRANCH   8  14
ENDBRANCH   7  12
ENDBRANCH   1   7
BRANCH   4  17
ATOM     17  C   UNL     1      47.263   3.398  16.892  0.00  0.00    +0.000 C 
BRANCH  17  18
ATOM     18  N   UNL     1      46.881   4.396  15.924  0.00  0.00    +0.000 N 
ATOM     19  C   UNL     1      46.937   4.151  14.576  0.00  0.00    +0.000 C 
ATOM     20  O   UNL     1      47.288   3.063  14.125  0.00  0.00    +0.000 OA
ATOM     21  H   UNL     1      46.826   5.356  16.249  0.00  0.00    +0.000 HD
BRANCH  19  22
ATOM     22  C   UNL     1      46.487   5.238  13.697  0.00  0.00    +0.000 A 
ATOM     23  C   UNL     1      47.297   6.348  13.495  0.00  0.00    +0.000 A 
ATOM     24  S   UNL     1      46.657   7.467  12.379  0.00  0.00    +0.000 S 
ATOM     25  C   UNL     1      45.245   6.539  12.173  0.00  0.00    +0.000 A 
ATOM     26  N   UNL     1      44.250   6.951  11.340  0.00  0.00    +0.000 NA
ATOM     27  C   UNL     1      43.227   6.166  11.304  0.00  0.00    +0.000 A 
ATOM     28  N   UNL     1      43.105   5.004  12.024  0.00  0.00    +0.000 N 
ATOM     29  C   UNL     1      44.093   4.538  12.857  0.00  0.00    +0.000 A 
ATOM     30  O   UNL     1      43.969   3.479  13.464  0.00  0.00    +0.000 OA
ATOM     31  C   UNL     1      45.268   5.387  12.935  0.00  0.00    +0.000 A 
ATOM     32  H   UNL     1      42.278   4.434  11.949  0.00  0.00    +0.000 HD
ENDBRANCH  19  22
ENDBRANCH  17  18
ENDBRANCH   4  17
TORSDOF 6
ENDMDL
MODEL 9
REMARK VINA RESULT:    -6.793      3.872      8.634
REMARK INTER + INTRA:          -9.869
REMARK INTER:                  -8.983
REMARK INTRA:                  -0.887
REMARK UNBOUND:                -0.893
REMARK  Name = 
REMARK  6 active torsions:
REMARK  status: ('A' for Active; 'I' for Inactive)
REMARK    1  A    between atoms: N_1  and  C_2
REMARK    2  A    between atoms: C_6  and  C_7
REMARK    3  A    between atoms: C_7  and  C_8
REMARK    4  A    between atoms: C_11  and  C_12
REMARK    5  A    between atoms: C_12  and  N_13
REMARK    6  A    between atoms: C_14  and  C_16
REMARK                            x       y       z     vdW  Elec       q    Type
REMARK                         _______ _______ _______ _____ _____    ______ ____
ROOT
ATOM      1  C   UNL     1      51.125   3.954  18.129  0.00  0.00    +0.000 A 
ATOM      2  C   UNL     1      50.815   2.757  17.491  0.00  0.00    +0.000 A 
ATOM      3  C   UNL     1      49.498   2.523  17.095  0.00  0.00    +0.000 A 
ATOM      4  C   UNL     1      48.514   3.480  17.351  0.00  0.00    +0.000 A 
ATOM      5  C   UNL     1      48.914   4.639  18.006  0.00  0.00    +0.000 A 
ATOM      6  N   UNL     1      50.183   4.892  18.405  0.00  0.00    +0.000 NA
ENDROOT
BRANCH   1   7
ATOM      7  C   UNL     1      52.562   4.288  18.474  0.00  0.00    +0.000 C 
BRANCH   7  12
ATOM      8  C   UNL     1      53.400   6.894  15.792  0.00  0.00    +0.000 A 
ATOM      9  C   UNL     1      54.671   6.467  15.401  0.00  0.00    +0.000 A 
ATOM     10  C   UNL     1      55.222   5.300  15.931  0.00  0.00    +0.000 A 
ATOM     11  C   UNL     1      54.526   4.579  16.900  0.00  0.00    +0.000 A 
ATOM     12  C   UNL     1      53.288   5.035  17.372  0.00  0.00    +0.000 A 
ATOM     13  C   UNL     1      52.741   6.203  16.815  0.00  0.00    +0.000 A 
BRANCH   8  14
ATOM     14  N   UNL     1      52.899   8.122  15.336  0.00  0.00    +0.000 N 
ATOM     15  H   UNL     1      53.064   8.887  15.982  0.00  0.00    +0.000 HD
ATOM     16  H   UNL     1      53.201   8.351  14.393  0.00  0.00    +0.000 HD
ENDBRANCH   8  14
ENDBRANCH   7  12
ENDBRANCH   1   7
BRANCH   4  17
ATOM     17  C   UNL     1      47.101   3.304  16.880  0.00  0.00    +0.000 C 
BRANCH  17  18
ATOM     18  N   UNL     1      46.741   4.327  15.928  0.00  0.00    +0.000 N 
ATOM     19  C   UNL     1      46.888   4.139  14.578  0.00  0.00    +0.000 C 
ATOM     20  O   UNL     1      47.306   3.083  14.109  0.00  0.00    +0.000 OA
ATOM     21  H   UNL     1      46.629   5.270  16.287  0.00  0.00    +0.000 HD
BRANCH  19  22
ATOM     22  C   UNL     1      46.450   5.244  13.716  0.00  0.00    +0.000 A 
ATOM     23  C   UNL     1      47.277   6.343  13.523  0.00  0.00    +0.000 A 
ATOM     24  S   UNL     1      46.649   7.486  12.425  0.00  0.00    +0.000 S 
ATOM     25  C   UNL     1      45.221   6.584  12.215  0.00  0.00    +0.000 A 
ATOM     26  N   UNL     1      44.228   7.022  11.393  0.00  0.00    +0.000 NA
ATOM     27  C   UNL     1      43.193   6.255  11.354  0.00  0.00    +0.000 A 
ATOM     28  N   UNL     1      43.056   5.086  12.060  0.00  0.00    +0.000 N 
ATOM     29  C   UNL     1      44.041   4.593  12.881  0.00  0.00    +0.000 A 
ATOM     30  O   UNL     1      43.903   3.529  13.475  0.00  0.00    +0.000 OA
ATOM     31  C   UNL     1      45.229   5.422  12.963  0.00  0.00    +0.000 A 
ATOM     32  H   UNL     1      42.219   4.530  11.982  0.00  0.00    +0.000 HD
ENDBRANCH  19  22
ENDBRANCH  17  18
ENDBRANCH   4  17
TORSDOF 6
ENDMDL
