MODEL 1
REMARK VINA RESULT:    -8.055      0.000      0.000
REMARK INTER + INTRA:         -12.744
REMARK INTER:                 -11.822
REMARK INTRA:                  -0.922
REMARK UNBOUND:                -0.922
REMARK  Name = 
REMARK  9 active torsions:
REMARK  status: ('A' for Active; 'I' for Inactive)
REMARK    1  A    between atoms: C_1  and  O_2
REMARK    2  A    between atoms: O_2  and  C_3
REMARK    3  A    between atoms: C_3  and  C_4
REMARK    4  A    between atoms: C_4  and  N_5
REMARK    5  A    between atoms: C_4  and  C_18
REMARK    6  A    between atoms: C_6  and  C_8
REMARK    7  A    between atoms: C_21  and  O_22
REMARK    8  A    between atoms: O_22  and  C_23
REMARK    9  A    between atoms: C_23  and  C_24
REMARK                            x       y       z     vdW  Elec       q    Type
REMARK                         _______ _______ _______ _____ _____    ______ ____
ROOT
ATOM      1  C   UNL     1      46.689   7.986  12.734  0.00  0.00    +0.000 C 
ENDROOT
BRANCH   1   2
ATOM      2  C   UNL     1      46.072   6.813  11.988  0.00  0.00    +0.000 A 
ATOM      3  C   UNL     1      45.066   6.028  12.565  0.00  0.00    +0.000 A 
ATOM      4  C   UNL     1      44.455   5.010  11.824  0.00  0.00    +0.000 A 
ATOM      5  C   UNL     1      44.827   4.781  10.499  0.00  0.00    +0.000 A 
ATOM      6  C   UNL     1      45.879   5.504   9.945  0.00  0.00    +0.000 A 
ATOM      7  C   UNL     1      46.487   6.514  10.681  0.00  0.00    +0.000 A 
BRANCH   5   8
ATOM      8  O   UNL     1      44.102   3.846   9.809  0.00  0.00    +0.000 OA
BRANCH   8   9
ATOM      9  C   UNL     1      44.730   2.555   9.750  0.00  0.00    +0.000 C 
BRANCH   9  10
ATOM     10  C   UNL     1      45.522   2.364   8.479  0.00  0.00    +0.000 A 
ATOM     11  C   UNL     1      45.577   3.365   7.511  0.00  0.00    +0.000 A 
ATOM     12  C   UNL     1      46.387   3.176   6.397  0.00  0.00    +0.000 A 
ATOM     13  C   UNL     1      47.131   2.007   6.284  0.00  0.00    +0.000 A 
ATOM     14  C   UNL     1      47.035   1.071   7.298  0.00  0.00    +0.000 A 
ATOM     15  N   UNL     1      46.255   1.223   8.389  0.00  0.00    +0.000 NA
ENDBRANCH   9  10
ENDBRANCH   8   9
ENDBRANCH   5   8
ENDBRANCH   1   2
BRANCH   1  16
ATOM     16  N   UNL     1      47.179   7.526  14.031  0.00  0.00    +0.000 N 
ATOM     17  C   UNL     1      48.383   6.893  14.199  0.00  0.00    +0.000 C 
ATOM     18  O   UNL     1      49.204   6.774  13.297  0.00  0.00    +0.000 OA
ATOM     19  H   UNL     1      46.487   7.453  14.766  0.00  0.00    +0.000 HD
BRANCH  17  20
ATOM     20  C   UNL     1      48.655   6.392  15.556  0.00  0.00    +0.000 A 
ATOM     21  C   UNL     1      49.549   7.069  16.373  0.00  0.00    +0.000 A 
ATOM     22  S   UNL     1      49.759   6.346  17.906  0.00  0.00    +0.000 S 
ATOM     23  C   UNL     1      48.705   5.071  17.508  0.00  0.00    +0.000 A 
ATOM     24  N   UNL     1      48.477   4.051  18.382  0.00  0.00    +0.000 NA
ATOM     25  C   UNL     1      47.698   3.126  17.932  0.00  0.00    +0.000 A 
ATOM     26  N   UNL     1      47.107   3.136  16.694  0.00  0.00    +0.000 N 
ATOM     27  C   UNL     1      47.227   4.194  15.827  0.00  0.00    +0.000 A 
ATOM     28  O   UNL     1      46.539   4.255  14.812  0.00  0.00    +0.000 OA
ATOM     29  C   UNL     1      48.158   5.222  16.247  0.00  0.00    +0.000 A 
ATOM     30  H   UNL     1      46.470   2.403  16.422  0.00  0.00    +0.000 HD
ENDBRANCH  17  20
ENDBRANCH   1  16
BRANCH   1  31
ATOM     31  C   UNL     1      45.636   9.106  12.909  0.00  0.00    +0.000 C 
BRANCH  31  33
ATOM     32  C   UNL     1      44.198   9.861  11.207  0.00  0.00    +0.000 C 
ATOM     33  O   UNL     1      45.523   9.901  11.723  0.00  0.00    +0.000 OA
ENDBRANCH  31  33
ENDBRANCH   1  31
TORSDOF 8
ENDMDL
MODEL 2
REMARK VINA RESULT:    -7.808      1.906      2.505
REMARK INTER + INTRA:         -12.381
REMARK INTER:                 -11.171
REMARK INTRA:                  -1.211
REMARK UNBOUND:                -0.922
REMARK  Name = 
REMARK  9 active torsions:
REMARK  status: ('A' for Active; 'I' for Inactive)
REMARK    1  A    between atoms: C_1  and  O_2
REMARK    2  A    between atoms: O_2  and  C_3
REMARK    3  A    between atoms: C_3  and  C_4
REMARK    4  A    between atoms: C_4  and  N_5
REMARK    5  A    between atoms: C_4  and  C_18
REMARK    6  A    between atoms: C_6  and  C_8
REMARK    7  A    between atoms: C_21  and  O_22
REMARK    8  A    between atoms: O_22  and  C_23
REMARK    9  A    between atoms: C_23  and  C_24
REMARK                            x       y       z     vdW  Elec       q    Type
REMARK                         _______ _______ _______ _____ _____    ______ ____
ROOT
ATOM      1  C   UNL     1      48.155   7.059  13.335  0.00  0.00    +0.000 C 
ENDROOT
BRANCH   1   2
ATOM      2  C   UNL     1      47.015   6.209  12.794  0.00  0.00    +0.000 A 
ATOM      3  C   UNL     1      46.227   6.641  11.721  0.00  0.00    +0.000 A 
ATOM      4  C   UNL     1      45.241   5.801  11.188  0.00  0.00    +0.000 A 
ATOM      5  C   UNL     1      45.050   4.520  11.706  0.00  0.00    +0.000 A 
ATOM      6  C   UNL     1      45.777   4.114  12.822  0.00  0.00    +0.000 A 
ATOM      7  C   UNL     1      46.754   4.947  13.352  0.00  0.00    +0.000 A 
BRANCH   5   8
ATOM      8  O   UNL     1      44.149   3.721  11.054  0.00  0.00    +0.000 OA
BRANCH   8   9
ATOM      9  C   UNL     1      44.020   4.019   9.654  0.00  0.00    +0.000 C 
BRANCH   9  10
ATOM     10  C   UNL     1      45.110   3.374   8.832  0.00  0.00    +0.000 A 
ATOM     11  C   UNL     1      45.351   2.005   8.907  0.00  0.00    +0.000 A 
ATOM     12  C   UNL     1      46.308   1.445   8.068  0.00  0.00    +0.000 A 
ATOM     13  C   UNL     1      46.987   2.259   7.168  0.00  0.00    +0.000 A 
ATOM     14  C   UNL     1      46.676   3.607   7.143  0.00  0.00    +0.000 A 
ATOM     15  N   UNL     1      45.755   4.180   7.947  0.00  0.00    +0.000 NA
ENDBRANCH   9  10
ENDBRANCH   8   9
ENDBRANCH   5   8
ENDBRANCH   1   2
BRANCH   1  16
ATOM     16  N   UNL     1      48.055   7.124  14.791  0.00  0.00    +0.000 N 
ATOM     17  C   UNL     1      49.126   6.952  15.628  0.00  0.00    +0.000 C 
ATOM     18  O   UNL     1      50.279   6.856  15.222  0.00  0.00    +0.000 OA
ATOM     19  H   UNL     1      47.122   7.041  15.175  0.00  0.00    +0.000 HD
BRANCH  17  20
ATOM     20  C   UNL     1      48.814   6.931  17.065  0.00  0.00    +0.000 A 
ATOM     21  C   UNL     1      48.532   8.118  17.727  0.00  0.00    +0.000 A 
ATOM     22  S   UNL     1      48.207   7.914  19.391  0.00  0.00    +0.000 S 
ATOM     23  C   UNL     1      48.489   6.240  19.296  0.00  0.00    +0.000 A 
ATOM     24  N   UNL     1      48.428   5.454  20.407  0.00  0.00    +0.000 NA
ATOM     25  C   UNL     1      48.714   4.213  20.201  0.00  0.00    +0.000 A 
ATOM     26  N   UNL     1      49.036   3.678  18.980  0.00  0.00    +0.000 N 
ATOM     27  C   UNL     1      49.006   4.413  17.820  0.00  0.00    +0.000 A 
ATOM     28  O   UNL     1      49.115   3.866  16.727  0.00  0.00    +0.000 OA
ATOM     29  C   UNL     1      48.773   5.832  18.006  0.00  0.00    +0.000 A 
ATOM     30  H   UNL     1      49.203   2.689  18.879  0.00  0.00    +0.000 HD
ENDBRANCH  17  20
ENDBRANCH   1  16
BRANCH   1  31
ATOM     31  C   UNL     1      48.091   8.474  12.713  0.00  0.00    +0.000 C 
BRANCH  31  33
ATOM     32  C   UNL     1      50.104   7.682  11.790  0.00  0.00    +0.000 C 
ATOM     33  O   UNL     1      49.044   8.618  11.653  0.00  0.00    +0.000 OA
ENDBRANCH  31  33
ENDBRANCH   1  31
TORSDOF 8
ENDMDL
MODEL 3
REMARK VINA RESULT:    -7.732      1.934      2.676
REMARK INTER + INTRA:         -12.271
REMARK INTER:                 -11.071
REMARK INTRA:                  -1.200
REMARK UNBOUND:                -0.922
REMARK  Name = 
REMARK  9 active torsions:
REMARK  status: ('A' for Active; 'I' for Inactive)
REMARK    1  A    between atoms: C_1  and  O_2
REMARK    2  A    between atoms: O_2  and  C_3
REMARK    3  A    between atoms: C_3  and  C_4
REMARK    4  A    between atoms: C_4  and  N_5
REMARK    5  A    between atoms: C_4  and  C_18
REMARK    6  A    between atoms: C_6  and  C_8
REMARK    7  A    between atoms: C_21  and  O_22
REMARK    8  A    between atoms: O_22  and  C_23
REMARK    9  A    between atoms: C_23  and  C_24
REMARK                            x       y       z     vdW  Elec       q    Type
REMARK                         _______ _______ _______ _____ _____    ______ ____
ROOT
ATOM      1  C   UNL     1      47.728   6.739  13.416  0.00  0.00    +0.000 C 
ENDROOT
BRANCH   1   2
ATOM      2  C   UNL     1      46.693   5.980  12.600  0.00  0.00    +0.000 A 
ATOM      3  C   UNL     1      46.191   6.493  11.398  0.00  0.00    +0.000 A 
ATOM      4  C   UNL     1      45.305   5.736  10.624  0.00  0.00    +0.000 A 
ATOM      5  C   UNL     1      44.929   4.455  11.031  0.00  0.00    +0.000 A 
ATOM      6  C   UNL     1      45.362   3.971  12.263  0.00  0.00    +0.000 A 
ATOM      7  C   UNL     1      46.240   4.724  13.032  0.00  0.00    +0.000 A 
BRANCH   5   8
ATOM      8  O   UNL     1      44.153   3.736  10.163  0.00  0.00    +0.000 OA
BRANCH   8   9
ATOM      9  C   UNL     1      44.660   2.420   9.887  0.00  0.00    +0.000 C 
BRANCH   9  10
ATOM     10  C   UNL     1      45.488   2.381   8.625  0.00  0.00    +0.000 A 
ATOM     11  C   UNL     1      45.584   3.496   7.795  0.00  0.00    +0.000 A 
ATOM     12  C   UNL     1      46.425   3.439   6.690  0.00  0.00    +0.000 A 
ATOM     13  C   UNL     1      47.159   2.284   6.449  0.00  0.00    +0.000 A 
ATOM     14  C   UNL     1      47.023   1.227   7.332  0.00  0.00    +0.000 A 
ATOM     15  N   UNL     1      46.212   1.250   8.411  0.00  0.00    +0.000 NA
ENDBRANCH   9  10
ENDBRANCH   8   9
ENDBRANCH   5   8
ENDBRANCH   1   2
BRANCH   1  16
ATOM     16  N   UNL     1      47.702   6.253  14.794  0.00  0.00    +0.000 N 
ATOM     17  C   UNL     1      48.815   6.186  15.590  0.00  0.00    +0.000 C 
ATOM     18  O   UNL     1      49.901   6.646  15.255  0.00  0.00    +0.000 OA
ATOM     19  H   UNL     1      46.883   5.720  15.060  0.00  0.00    +0.000 HD
BRANCH  17  20
ATOM     20  C   UNL     1      48.621   5.557  16.906  0.00  0.00    +0.000 A 
ATOM     21  C   UNL     1      48.713   4.178  17.031  0.00  0.00    +0.000 A 
ATOM     22  S   UNL     1      48.447   3.615  18.621  0.00  0.00    +0.000 S 
ATOM     23  C   UNL     1      48.142   5.191  19.185  0.00  0.00    +0.000 A 
ATOM     24  N   UNL     1      47.790   5.416  20.482  0.00  0.00    +0.000 NA
ATOM     25  C   UNL     1      47.538   6.650  20.761  0.00  0.00    +0.000 A 
ATOM     26  N   UNL     1      47.625   7.687  19.867  0.00  0.00    +0.000 N 
ATOM     27  C   UNL     1      48.078   7.517  18.582  0.00  0.00    +0.000 A 
ATOM     28  O   UNL     1      48.322   8.486  17.869  0.00  0.00    +0.000 OA
ATOM     29  C   UNL     1      48.295   6.139  18.190  0.00  0.00    +0.000 A 
ATOM     30  H   UNL     1      47.461   8.636  20.163  0.00  0.00    +0.000 HD
ENDBRANCH  17  20
ENDBRANCH   1  16
BRANCH   1  31
ATOM     31  C   UNL     1      47.429   8.255  13.361  0.00  0.00    +0.000 C 
BRANCH  31  33
ATOM     32  C   UNL     1      49.458   8.168  12.174  0.00  0.00    +0.000 C 
ATOM     33  O   UNL     1      48.574   8.994  12.920  0.00  0.00    +0.000 OA
ENDBRANCH  31  33
ENDBRANCH   1  31
TORSDOF 8
ENDMDL
MODEL 4
REMARK VINA RESULT:    -6.915      3.301      7.636
REMARK INTER + INTRA:         -11.071
REMARK INTER:                  -9.799
REMARK INTRA:                  -1.272
REMARK UNBOUND:                -0.922
REMARK  Name = 
REMARK  9 active torsions:
REMARK  status: ('A' for Active; 'I' for Inactive)
REMARK    1  A    between atoms: C_1  and  O_2
REMARK    2  A    between atoms: O_2  and  C_3
REMARK    3  A    between atoms: C_3  and  C_4
REMARK    4  A    between atoms: C_4  and  N_5
REMARK    5  A    between atoms: C_4  and  C_18
REMARK    6  A    between atoms: C_6  and  C_8
REMARK    7  A    between atoms: C_21  and  O_22
REMARK    8  A    between atoms: O_22  and  C_23
REMARK    9  A    between atoms: C_23  and  C_24
REMARK                            x       y       z     vdW  Elec       q    Type
REMARK                         _______ _______ _______ _____ _____    ______ ____
ROOT
ATOM      1  C   UNL     1      48.540   7.738  12.468  0.00  0.00    +0.000 C 
ENDROOT
BRANCH   1   2
ATOM      2  C   UNL     1      48.822   7.225  13.872  0.00  0.00    +0.000 A 
ATOM      3  C   UNL     1      48.015   6.251  14.471  0.00  0.00    +0.000 A 
ATOM      4  C   UNL     1      48.348   5.734  15.728  0.00  0.00    +0.000 A 
ATOM      5  C   UNL     1      49.499   6.169  16.387  0.00  0.00    +0.000 A 
ATOM      6  C   UNL     1      50.263   7.192  15.833  0.00  0.00    +0.000 A 
ATOM      7  C   UNL     1      49.931   7.706  14.586  0.00  0.00    +0.000 A 
BRANCH   5   8
ATOM      8  O   UNL     1      49.817   5.531  17.556  0.00  0.00    +0.000 OA
BRANCH   8   9
ATOM      9  C   UNL     1      49.494   4.131  17.556  0.00  0.00    +0.000 C 
BRANCH   9  10
ATOM     10  C   UNL     1      50.728   3.263  17.622  0.00  0.00    +0.000 A 
ATOM     11  C   UNL     1      51.945   3.777  18.062  0.00  0.00    +0.000 A 
ATOM     12  C   UNL     1      53.032   2.919  18.185  0.00  0.00    +0.000 A 
ATOM     13  C   UNL     1      52.874   1.571  17.885  0.00  0.00    +0.000 A 
ATOM     14  C   UNL     1      51.627   1.135  17.473  0.00  0.00    +0.000 A 
ATOM     15  N   UNL     1      50.555   1.944  17.339  0.00  0.00    +0.000 NA
ENDBRANCH   9  10
ENDBRANCH   8   9
ENDBRANCH   5   8
ENDBRANCH   1   2
BRANCH   1  16
ATOM     16  N   UNL     1      47.759   6.740  11.741  0.00  0.00    +0.000 N 
ATOM     17  C   UNL     1      46.416   6.863  11.502  0.00  0.00    +0.000 C 
ATOM     18  O   UNL     1      45.783   7.879  11.766  0.00  0.00    +0.000 OA
ATOM     19  H   UNL     1      48.187   5.827  11.645  0.00  0.00    +0.000 HD
BRANCH  17  20
ATOM     20  C   UNL     1      45.774   5.704  10.862  0.00  0.00    +0.000 A 
ATOM     21  C   UNL     1      45.864   5.539   9.486  0.00  0.00    +0.000 A 
ATOM     22  S   UNL     1      45.052   4.152   8.909  0.00  0.00    +0.000 S 
ATOM     23  C   UNL     1      44.504   3.756  10.470  0.00  0.00    +0.000 A 
ATOM     24  N   UNL     1      43.692   2.682  10.676  0.00  0.00    +0.000 NA
ATOM     25  C   UNL     1      43.311   2.528  11.900  0.00  0.00    +0.000 A 
ATOM     26  N   UNL     1      43.683   3.338  12.942  0.00  0.00    +0.000 N 
ATOM     27  C   UNL     1      44.582   4.365  12.794  0.00  0.00    +0.000 A 
ATOM     28  O   UNL     1      45.036   4.948  13.774  0.00  0.00    +0.000 OA
ATOM     29  C   UNL     1      44.978   4.635  11.426  0.00  0.00    +0.000 A 
ATOM     30  H   UNL     1      43.387   3.133  13.884  0.00  0.00    +0.000 HD
ENDBRANCH  17  20
ENDBRANCH   1  16
BRANCH   1  31
ATOM     31  C   UNL     1      49.873   8.032  11.741  0.00  0.00    +0.000 C 
BRANCH  31  33
ATOM     32  C   UNL     1      48.793  10.097  11.421  0.00  0.00    +0.000 C 
ATOM     33  O   UNL     1      50.048   9.437  11.527  0.00  0.00    +0.000 OA
ENDBRANCH  31  33
ENDBRANCH   1  31
TORSDOF 8
ENDMDL
MODEL 5
REMARK VINA RESULT:    -6.818      3.058      5.764
REMARK INTER + INTRA:         -10.929
REMARK INTER:                  -9.861
REMARK INTRA:                  -1.068
REMARK UNBOUND:                -0.922
REMARK  Name = 
REMARK  9 active torsions:
REMARK  status: ('A' for Active; 'I' for Inactive)
REMARK    1  A    between atoms: C_1  and  O_2
REMARK    2  A    between atoms: O_2  and  C_3
REMARK    3  A    between atoms: C_3  and  C_4
REMARK    4  A    between atoms: C_4  and  N_5
REMARK    5  A    between atoms: C_4  and  C_18
REMARK    6  A    between atoms: C_6  and  C_8
REMARK    7  A    between atoms: C_21  and  O_22
REMARK    8  A    between atoms: O_22  and  C_23
REMARK    9  A    between atoms: C_23  and  C_24
REMARK                            x       y       z     vdW  Elec       q    Type
REMARK                         _______ _______ _______ _____ _____    ______ ____
ROOT
ATOM      1  C   UNL     1      46.359   4.727  14.197  0.00  0.00    +0.000 C 
ENDROOT
BRANCH   1   2
ATOM      2  C   UNL     1      46.317   6.054  13.454  0.00  0.00    +0.000 A 
ATOM      3  C   UNL     1      45.123   6.559  12.926  0.00  0.00    +0.000 A 
ATOM      4  C   UNL     1      45.098   7.822  12.323  0.00  0.00    +0.000 A 
ATOM      5  C   UNL     1      46.256   8.598  12.261  0.00  0.00    +0.000 A 
ATOM      6  C   UNL     1      47.462   8.070  12.713  0.00  0.00    +0.000 A 
ATOM      7  C   UNL     1      47.488   6.816  13.310  0.00  0.00    +0.000 A 
BRANCH   5   8
ATOM      8  O   UNL     1      46.121   9.865  11.762  0.00  0.00    +0.000 OA
BRANCH   8   9
ATOM      9  C   UNL     1      44.756  10.298  11.643  0.00  0.00    +0.000 C 
BRANCH   9  10
ATOM     10  C   UNL     1      44.474  10.930  10.302  0.00  0.00    +0.000 A 
ATOM     11  C   UNL     1      45.367  11.834   9.732  0.00  0.00    +0.000 A 
ATOM     12  C   UNL     1      45.104  12.325   8.458  0.00  0.00    +0.000 A 
ATOM     13  C   UNL     1      43.971  11.891   7.780  0.00  0.00    +0.000 A 
ATOM     14  C   UNL     1      43.144  10.976   8.408  0.00  0.00    +0.000 A 
ATOM     15  N   UNL     1      43.370  10.485   9.645  0.00  0.00    +0.000 NA
ENDBRANCH   9  10
ENDBRANCH   8   9
ENDBRANCH   5   8
ENDBRANCH   1   2
BRANCH   1  16
ATOM     16  N   UNL     1      47.472   4.742  15.143  0.00  0.00    +0.000 N 
ATOM     17  C   UNL     1      47.419   4.151  16.378  0.00  0.00    +0.000 C 
ATOM     18  O   UNL     1      46.481   3.451  16.740  0.00  0.00    +0.000 OA
ATOM     19  H   UNL     1      48.195   5.429  14.965  0.00  0.00    +0.000 HD
BRANCH  17  20
ATOM     20  C   UNL     1      48.590   4.372  17.241  0.00  0.00    +0.000 A 
ATOM     21  C   UNL     1      48.677   5.530  18.001  0.00  0.00    +0.000 A 
ATOM     22  S   UNL     1      50.105   5.633  18.932  0.00  0.00    +0.000 S 
ATOM     23  C   UNL     1      50.682   4.160  18.307  0.00  0.00    +0.000 A 
ATOM     24  N   UNL     1      51.907   3.680  18.661  0.00  0.00    +0.000 NA
ATOM     25  C   UNL     1      52.241   2.581  18.074  0.00  0.00    +0.000 A 
ATOM     26  N   UNL     1      51.452   1.903  17.179  0.00  0.00    +0.000 N 
ATOM     27  C   UNL     1      50.172   2.296  16.877  0.00  0.00    +0.000 A 
ATOM     28  O   UNL     1      49.431   1.569  16.222  0.00  0.00    +0.000 OA
ATOM     29  C   UNL     1      49.777   3.570  17.444  0.00  0.00    +0.000 A 
ATOM     30  H   UNL     1      51.755   1.022  16.792  0.00  0.00    +0.000 HD
ENDBRANCH  17  20
ENDBRANCH   1  16
BRANCH   1  31
ATOM     31  C   UNL     1      46.510   3.567  13.186  0.00  0.00    +0.000 C 
BRANCH  31  33
ATOM     32  C   UNL     1      44.901   3.216  11.506  0.00  0.00    +0.000 C 
ATOM     33  O   UNL     1      45.239   2.987  12.868  0.00  0.00    +0.000 OA
ENDBRANCH  31  33
ENDBRANCH   1  31
TORSDOF 8
ENDMDL
MODEL 6
REMARK VINA RESULT:    -6.767      1.987      3.082
REMARK INTER + INTRA:         -10.855
REMARK INTER:                  -9.344
REMARK INTRA:                  -1.511
REMARK UNBOUND:                -0.922
REMARK  Name = 
REMARK  9 active torsions:
REMARK  status: ('A' for Active; 'I' for Inactive)
REMARK    1  A    between atoms: C_1  and  O_2
REMARK    2  A    between atoms: O_2  and  C_3
REMARK    3  A    between atoms: C_3  and  C_4
REMARK    4  A    between atoms: C_4  and  N_5
REMARK    5  A    between atoms: C_4  and  C_18
REMARK    6  A    between atoms: C_6  and  C_8
REMARK    7  A    between atoms: C_21  and  O_22
REMARK    8  A    between atoms: O_22  and  C_23
REMARK    9  A    between atoms: C_23  and  C_24
REMARK                            x       y       z     vdW  Elec       q    Type
REMARK                         _______ _______ _______ _____ _____    ______ ____
ROOT
ATOM      1  C   UNL     1      49.055   8.659  14.360  0.00  0.00    +0.000 C 
ENDROOT
BRANCH   1   2
ATOM      2  C   UNL     1      47.967   8.241  13.383  0.00  0.00    +0.000 A 
ATOM      3  C   UNL     1      48.203   7.279  12.394  0.00  0.00    +0.000 A 
ATOM      4  C   UNL     1      47.160   6.850  11.565  0.00  0.00    +0.000 A 
ATOM      5  C   UNL     1      45.871   7.361  11.731  0.00  0.00    +0.000 A 
ATOM      6  C   UNL     1      45.647   8.373  12.659  0.00  0.00    +0.000 A 
ATOM      7  C   UNL     1      46.683   8.799  13.481  0.00  0.00    +0.000 A 
BRANCH   5   8
ATOM      8  O   UNL     1      44.886   6.805  10.959  0.00  0.00    +0.000 OA
BRANCH   8   9
ATOM      9  C   UNL     1      44.547   5.460  11.334  0.00  0.00    +0.000 C 
BRANCH   9  10
ATOM     10  C   UNL     1      44.751   4.484  10.200  0.00  0.00    +0.000 A 
ATOM     11  C   UNL     1      45.484   4.840   9.070  0.00  0.00    +0.000 A 
ATOM     12  C   UNL     1      45.716   3.881   8.091  0.00  0.00    +0.000 A 
ATOM     13  C   UNL     1      45.229   2.591   8.270  0.00  0.00    +0.000 A 
ATOM     14  C   UNL     1      44.526   2.313   9.430  0.00  0.00    +0.000 A 
ATOM     15  N   UNL     1      44.282   3.224  10.396  0.00  0.00    +0.000 NA
ENDBRANCH   9  10
ENDBRANCH   8   9
ENDBRANCH   5   8
ENDBRANCH   1   2
BRANCH   1  16
ATOM     16  N   UNL     1      49.053   7.745  15.500  0.00  0.00    +0.000 N 
ATOM     17  C   UNL     1      50.142   7.001  15.871  0.00  0.00    +0.000 C 
ATOM     18  O   UNL     1      51.246   7.135  15.356  0.00  0.00    +0.000 OA
ATOM     19  H   UNL     1      48.142   7.479  15.853  0.00  0.00    +0.000 HD
BRANCH  17  20
ATOM     20  C   UNL     1      49.918   6.046  16.968  0.00  0.00    +0.000 A 
ATOM     21  C   UNL     1      50.715   6.102  18.104  0.00  0.00    +0.000 A 
ATOM     22  S   UNL     1      50.329   4.915  19.269  0.00  0.00    +0.000 S 
ATOM     23  C   UNL     1      49.123   4.250  18.271  0.00  0.00    +0.000 A 
ATOM     24  N   UNL     1      48.424   3.146  18.658  0.00  0.00    +0.000 NA
ATOM     25  C   UNL     1      47.577   2.717  17.784  0.00  0.00    +0.000 A 
ATOM     26  N   UNL     1      47.348   3.303  16.565  0.00  0.00    +0.000 N 
ATOM     27  C   UNL     1      47.954   4.475  16.183  0.00  0.00    +0.000 A 
ATOM     28  O   UNL     1      47.590   5.069  15.173  0.00  0.00    +0.000 OA
ATOM     29  C   UNL     1      48.977   4.954  17.091  0.00  0.00    +0.000 A 
ATOM     30  H   UNL     1      46.636   2.944  15.948  0.00  0.00    +0.000 HD
ENDBRANCH  17  20
ENDBRANCH   1  16
BRANCH   1  31
ATOM     31  C   UNL     1      48.813  10.115  14.821  0.00  0.00    +0.000 C 
BRANCH  31  33
ATOM     32  C   UNL     1      49.362  11.731  16.439  0.00  0.00    +0.000 C 
ATOM     33  O   UNL     1      49.742  10.498  15.841  0.00  0.00    +0.000 OA
ENDBRANCH  31  33
ENDBRANCH   1  31
TORSDOF 8
ENDMDL
MODEL 7
REMARK VINA RESULT:    -6.284      2.970      6.264
REMARK INTER + INTRA:         -10.145
REMARK INTER:                  -9.773
REMARK INTRA:                  -0.372
REMARK UNBOUND:                -0.922
REMARK  Name = 
REMARK  9 active torsions:
REMARK  status: ('A' for Active; 'I' for Inactive)
REMARK    1  A    between atoms: C_1  and  O_2
REMARK    2  A    between atoms: O_2  and  C_3
REMARK    3  A    between atoms: C_3  and  C_4
REMARK    4  A    between atoms: C_4  and  N_5
REMARK    5  A    between atoms: C_4  and  C_18
REMARK    6  A    between atoms: C_6  and  C_8
REMARK    7  A    between atoms: C_21  and  O_22
REMARK    8  A    between atoms: O_22  and  C_23
REMARK    9  A    between atoms: C_23  and  C_24
REMARK                            x       y       z     vdW  Elec       q    Type
REMARK                         _______ _______ _______ _____ _____    ______ ____
ROOT
ATOM      1  C   UNL     1      45.239   5.264  13.006  0.00  0.00    +0.000 C 
ENDROOT
BRANCH   1   2
ATOM      2  C   UNL     1      44.839   6.533  12.270  0.00  0.00    +0.000 A 
ATOM      3  C   UNL     1      43.696   6.581  11.463  0.00  0.00    +0.000 A 
ATOM      4  C   UNL     1      43.303   7.785  10.867  0.00  0.00    +0.000 A 
ATOM      5  C   UNL     1      44.035   8.953  11.088  0.00  0.00    +0.000 A 
ATOM      6  C   UNL     1      45.215   8.896  11.823  0.00  0.00    +0.000 A 
ATOM      7  C   UNL     1      45.605   7.700  12.414  0.00  0.00    +0.000 A 
BRANCH   5   8
ATOM      8  O   UNL     1      43.520  10.108  10.565  0.00  0.00    +0.000 OA
BRANCH   8   9
ATOM      9  C   UNL     1      43.114  11.062  11.560  0.00  0.00    +0.000 C 
BRANCH   9  10
ATOM     10  C   UNL     1      41.613  11.125  11.710  0.00  0.00    +0.000 A 
ATOM     11  C   UNL     1      40.775  10.448  10.828  0.00  0.00    +0.000 A 
ATOM     12  C   UNL     1      39.404  10.466  11.057  0.00  0.00    +0.000 A 
ATOM     13  C   UNL     1      38.906  11.142  12.165  0.00  0.00    +0.000 A 
ATOM     14  C   UNL     1      39.807  11.774  13.004  0.00  0.00    +0.000 A 
ATOM     15  N   UNL     1      41.142  11.778  12.806  0.00  0.00    +0.000 NA
ENDBRANCH   9  10
ENDBRANCH   8   9
ENDBRANCH   5   8
ENDBRANCH   1   2
BRANCH   1  16
ATOM     16  N   UNL     1      46.247   5.591  14.012  0.00  0.00    +0.000 N 
ATOM     17  C   UNL     1      46.954   4.643  14.705  0.00  0.00    +0.000 C 
ATOM     18  O   UNL     1      46.890   3.446  14.449  0.00  0.00    +0.000 OA
ATOM     19  H   UNL     1      46.224   6.537  14.371  0.00  0.00    +0.000 HD
BRANCH  17  20
ATOM     20  C   UNL     1      47.838   5.156  15.764  0.00  0.00    +0.000 A 
ATOM     21  C   UNL     1      48.618   6.280  15.526  0.00  0.00    +0.000 A 
ATOM     22  S   UNL     1      49.594   6.729  16.853  0.00  0.00    +0.000 S 
ATOM     23  C   UNL     1      49.050   5.404  17.771  0.00  0.00    +0.000 A 
ATOM     24  N   UNL     1      49.544   5.165  19.017  0.00  0.00    +0.000 NA
ATOM     25  C   UNL     1      49.083   4.098  19.580  0.00  0.00    +0.000 A 
ATOM     26  N   UNL     1      48.156   3.258  19.018  0.00  0.00    +0.000 N 
ATOM     27  C   UNL     1      47.556   3.521  17.811  0.00  0.00    +0.000 A 
ATOM     28  O   UNL     1      46.601   2.853  17.426  0.00  0.00    +0.000 OA
ATOM     29  C   UNL     1      48.098   4.661  17.098  0.00  0.00    +0.000 A 
ATOM     30  H   UNL     1      47.802   2.466  19.532  0.00  0.00    +0.000 HD
ENDBRANCH  17  20
ENDBRANCH   1  16
BRANCH   1  31
ATOM     31  C   UNL     1      45.783   4.224  11.998  0.00  0.00    +0.000 C 
BRANCH  31  33
ATOM     32  C   UNL     1      43.760   3.262  12.712  0.00  0.00    +0.000 C 
ATOM     33  O   UNL     1      44.868   3.135  11.831  0.00  0.00    +0.000 OA
ENDBRANCH  31  33
ENDBRANCH   1  31
TORSDOF 8
ENDMDL
MODEL 8
REMARK VINA RESULT:    -6.124      3.817      8.279
REMARK INTER + INTRA:          -9.910
REMARK INTER:                  -8.728
REMARK INTRA:                  -1.183
REMARK UNBOUND:                -0.922
REMARK  Name = 
REMARK  9 active torsions:
REMARK  status: ('A' for Active; 'I' for Inactive)
REMARK    1  A    between atoms: C_1  and  O_2
REMARK    2  A    between atoms: O_2  and  C_3
REMARK    3  A    between atoms: C_3  and  C_4
REMARK    4  A    between atoms: C_4  and  N_5
REMARK    5  A    between atoms: C_4  and  C_18
REMARK    6  A    between atoms: C_6  and  C_8
REMARK    7  A    between atoms: C_21  and  O_22
REMARK    8  A    between atoms: O_22  and  C_23
REMARK    9  A    between atoms: C_23  and  C_24
REMARK                            x       y       z     vdW  Elec       q    Type
REMARK                         _______ _______ _______ _____ _____    ______ ____
ROOT
ATOM      1  C   UNL     1      46.548   5.041  13.046  0.00  0.00    +0.000 C 
ENDROOT
BRANCH   1   2
ATOM      2  C   UNL     1      47.220   5.125  14.408  0.00  0.00    +0.000 A 
ATOM      3  C   UNL     1      46.969   4.177  15.407  0.00  0.00    +0.000 A 
ATOM      4  C   UNL     1      47.666   4.229  16.619  0.00  0.00    +0.000 A 
ATOM      5  C   UNL     1      48.633   5.212  16.836  0.00  0.00    +0.000 A 
ATOM      6  C   UNL     1      48.831   6.204  15.879  0.00  0.00    +0.000 A 
ATOM      7  C   UNL     1      48.138   6.153  14.676  0.00  0.00    +0.000 A 
BRANCH   5   8
ATOM      8  O   UNL     1      49.350   5.124  17.998  0.00  0.00    +0.000 OA
BRANCH   8   9
ATOM      9  C   UNL     1      50.772   5.208  17.808  0.00  0.00    +0.000 C 
BRANCH   9  10
ATOM     10  C   UNL     1      51.434   3.852  17.853  0.00  0.00    +0.000 A 
ATOM     11  C   UNL     1      50.740   2.702  17.482  0.00  0.00    +0.000 A 
ATOM     12  C   UNL     1      51.417   1.488  17.459  0.00  0.00    +0.000 A 
ATOM     13  C   UNL     1      52.767   1.453  17.789  0.00  0.00    +0.000 A 
ATOM     14  C   UNL     1      53.388   2.642  18.128  0.00  0.00    +0.000 A 
ATOM     15  N   UNL     1      52.757   3.835  18.163  0.00  0.00    +0.000 NA
ENDBRANCH   9  10
ENDBRANCH   8   9
ENDBRANCH   5   8
ENDBRANCH   1   2
BRANCH   1  16
ATOM     16  N   UNL     1      45.831   6.287  12.787  0.00  0.00    +0.000 N 
ATOM     17  C   UNL     1      45.569   6.757  11.527  0.00  0.00    +0.000 C 
ATOM     18  O   UNL     1      45.802   6.108  10.513  0.00  0.00    +0.000 OA
ATOM     19  H   UNL     1      45.761   6.928  13.568  0.00  0.00    +0.000 HD
BRANCH  17  20
ATOM     20  C   UNL     1      44.945   8.088  11.460  0.00  0.00    +0.000 A 
ATOM     21  C   UNL     1      43.644   8.216  10.993  0.00  0.00    +0.000 A 
ATOM     22  S   UNL     1      43.081   9.828  10.968  0.00  0.00    +0.000 S 
ATOM     23  C   UNL     1      44.576  10.415  11.528  0.00  0.00    +0.000 A 
ATOM     24  N   UNL     1      44.792  11.752  11.681  0.00  0.00    +0.000 NA
ATOM     25  C   UNL     1      45.985  12.061  12.062  0.00  0.00    +0.000 A 
ATOM     26  N   UNL     1      46.980  11.154  12.327  0.00  0.00    +0.000 N 
ATOM     27  C   UNL     1      46.772   9.797  12.287  0.00  0.00    +0.000 A 
ATOM     28  O   UNL     1      47.623   9.020  12.708  0.00  0.00    +0.000 OA
ATOM     29  C   UNL     1      45.474   9.395  11.783  0.00  0.00    +0.000 A 
ATOM     30  H   UNL     1      47.877  11.461  12.668  0.00  0.00    +0.000 HD
ENDBRANCH  17  20
ENDBRANCH   1  16
BRANCH   1  31
ATOM     31  C   UNL     1      45.583   3.832  13.014  0.00  0.00    +0.000 C 
BRANCH  31  33
ATOM     32  C   UNL     1      43.332   3.784  12.333  0.00  0.00    +0.000 C 
ATOM     33  O   UNL     1      44.243   4.230  13.329  0.00  0.00    +0.000 OA
ENDBRANCH  31  33
ENDBRANCH   1  31
TORSDOF 8
ENDMDL
MODEL 9
REMARK VINA RESULT:    -5.837      3.876      6.082
REMARK INTER + INTRA:          -9.489
REMARK INTER:                  -9.229
REMARK INTRA:                  -0.260
REMARK UNBOUND:                -0.922
REMARK  Name = 
REMARK  9 active torsions:
REMARK  status: ('A' for Active; 'I' for Inactive)
REMARK    1  A    between atoms: C_1  and  O_2
REMARK    2  A    between atoms: O_2  and  C_3
REMARK    3  A    between atoms: C_3  and  C_4
REMARK    4  A    between atoms: C_4  and  N_5
REMARK    5  A    between atoms: C_4  and  C_18
REMARK    6  A    between atoms: C_6  and  C_8
REMARK    7  A    between atoms: C_21  and  O_22
REMARK    8  A    between atoms: O_22  and  C_23
REMARK    9  A    between atoms: C_23  and  C_24
REMARK                            x       y       z     vdW  Elec       q    Type
REMARK                         _______ _______ _______ _____ _____    ______ ____
ROOT
ATOM      1  C   UNL     1      47.824   7.587  13.789  0.00  0.00    +0.000 C 
ENDROOT
BRANCH   1   2
ATOM      2  C   UNL     1      46.940   6.620  13.016  0.00  0.00    +0.000 A 
ATOM      3  C   UNL     1      46.816   5.279  13.396  0.00  0.00    +0.000 A 
ATOM      4  C   UNL     1      45.930   4.433  12.720  0.00  0.00    +0.000 A 
ATOM      5  C   UNL     1      45.145   4.924  11.675  0.00  0.00    +0.000 A 
ATOM      6  C   UNL     1      45.320   6.234  11.241  0.00  0.00    +0.000 A 
ATOM      7  C   UNL     1      46.201   7.073  11.912  0.00  0.00    +0.000 A 
BRANCH   5   8
ATOM      8  O   UNL     1      44.221   4.064  11.144  0.00  0.00    +0.000 OA
BRANCH   8   9
ATOM      9  C   UNL     1      44.002   4.249   9.736  0.00  0.00    +0.000 C 
BRANCH   9  10
ATOM     10  C   UNL     1      45.081   3.601   8.902  0.00  0.00    +0.000 A 
ATOM     11  C   UNL     1      45.273   2.222   8.922  0.00  0.00    +0.000 A 
ATOM     12  C   UNL     1      46.223   1.665   8.073  0.00  0.00    +0.000 A 
ATOM     13  C   UNL     1      46.942   2.490   7.217  0.00  0.00    +0.000 A 
ATOM     14  C   UNL     1      46.678   3.849   7.245  0.00  0.00    +0.000 A 
ATOM     15  N   UNL     1      45.766   4.420   8.059  0.00  0.00    +0.000 NA
ENDBRANCH   9  10
ENDBRANCH   8   9
ENDBRANCH   5   8
ENDBRANCH   1   2
BRANCH   1  16
ATOM     16  N   UNL     1      48.053   8.780  12.978  0.00  0.00    +0.000 N 
ATOM     17  C   UNL     1      48.968   8.834  11.960  0.00  0.00    +0.000 C 
ATOM     18  O   UNL     1      49.578   7.849  11.561  0.00  0.00    +0.000 OA
ATOM     19  H   UNL     1      47.702   9.650  13.360  0.00  0.00    +0.000 HD
BRANCH  17  20
ATOM     20  C   UNL     1      49.148  10.153  11.334  0.00  0.00    +0.000 A 
ATOM     21  C   UNL     1      48.039  10.937  11.046  0.00  0.00    +0.000 A 
ATOM     22  S   UNL     1      48.427  12.428  10.310  0.00  0.00    +0.000 S 
ATOM     23  C   UNL     1      50.086  12.053  10.299  0.00  0.00    +0.000 A 
ATOM     24  N   UNL     1      50.993  12.904   9.744  0.00  0.00    +0.000 NA
ATOM     25  C   UNL     1      52.209  12.472   9.757  0.00  0.00    +0.000 A 
ATOM     26  N   UNL     1      52.606  11.274  10.294  0.00  0.00    +0.000 N 
ATOM     27  C   UNL     1      51.741  10.437  10.955  0.00  0.00    +0.000 A 
ATOM     28  O   UNL     1      52.160   9.470  11.583  0.00  0.00    +0.000 OA
ATOM     29  C   UNL     1      50.348  10.834  10.897  0.00  0.00    +0.000 A 
ATOM     30  H   UNL     1      53.581  11.017  10.314  0.00  0.00    +0.000 HD
ENDBRANCH  17  20
ENDBRANCH   1  16
BRANCH   1  31
ATOM     31  C   UNL     1      49.162   6.899  14.148  0.00  0.00    +0.000 C 
BRANCH  31  33
ATOM     32  C   UNL     1      48.859   7.677  16.346  0.00  0.00    +0.000 C 
ATOM     33  O   UNL     1      49.216   6.563  15.539  0.00  0.00    +0.000 OA
ENDBRANCH  31  33
ENDBRANCH   1  31
TORSDOF 8
ENDMDL
