MODEL 1
REMARK VINA RESULT:    -8.473      0.000      0.000
REMARK INTER + INTRA:         -12.103
REMARK INTER:                 -11.445
REMARK INTRA:                  -0.658
REMARK UNBOUND:                -0.658
REMARK  Name = 
REMARK  6 active torsions:
REMARK  status: ('A' for Active; 'I' for Inactive)
REMARK    1  A    between atoms: C_2  and  C_4
REMARK    2  A    between atoms: N_8  and  C_9
REMARK    3  A    between atoms: C_9  and  C_10
REMARK    4  A    between atoms: C_10  and  C_11
REMARK    5  A    between atoms: C_15  and  O_16
REMARK    6  A    between atoms: O_16  and  C_17
REMARK                            x       y       z     vdW  Elec       q    Type
REMARK                         _______ _______ _______ _____ _____    ______ ____
ROOT
ATOM      1  C   UNL     1      43.528   4.296  11.033  0.00  0.00    +0.000 C 
ENDROOT
BRANCH   1   6
ATOM      2  C   UNL     1      46.638   2.473   7.483  0.00  0.00    +0.000 A 
ATOM      3  C   UNL     1      45.871   1.809   8.432  0.00  0.00    +0.000 A 
ATOM      4  C   UNL     1      44.952   2.534   9.187  0.00  0.00    +0.000 A 
ATOM      5  C   UNL     1      44.833   3.911   9.010  0.00  0.00    +0.000 A 
ATOM      6  N   UNL     1      43.876   4.673   9.670  0.00  0.00    +0.000 N 
ATOM      7  N   UNL     1      45.607   4.573   8.128  0.00  0.00    +0.000 NA
ATOM      8  C   UNL     1      46.492   3.848   7.388  0.00  0.00    +0.000 A 
ATOM      9  H   UNL     1      44.107   5.653   9.512  0.00  0.00    +0.000 HD
BRANCH   2  11
ATOM     10  N   UNL     1      48.773   2.376   6.340  0.00  0.00    +0.000 N 
ATOM     11  C   UNL     1      47.573   1.765   6.586  0.00  0.00    +0.000 C 
ATOM     12  O   UNL     1      47.309   0.668   6.116  0.00  0.00    +0.000 OA
ATOM     13  H   UNL     1      49.458   1.838   5.823  0.00  0.00    +0.000 HD
ATOM     14  H   UNL     1      49.120   3.144   6.901  0.00  0.00    +0.000 HD
ENDBRANCH   2  11
ENDBRANCH   1   6
BRANCH   1  15
ATOM     15  C   UNL     1      43.610   5.485  11.996  0.00  0.00    +0.000 C 
BRANCH  15  16
ATOM     16  C   UNL     1      44.995   5.558  12.603  0.00  0.00    +0.000 A 
ATOM     17  C   UNL     1      45.809   6.679  12.393  0.00  0.00    +0.000 A 
ATOM     18  C   UNL     1      47.044   6.783  13.036  0.00  0.00    +0.000 A 
ATOM     19  C   UNL     1      47.483   5.771  13.892  0.00  0.00    +0.000 A 
ATOM     20  C   UNL     1      46.686   4.648  14.098  0.00  0.00    +0.000 A 
ATOM     21  C   UNL     1      45.445   4.547  13.461  0.00  0.00    +0.000 A 
BRANCH  20  22
ATOM     22  O   UNL     1      46.998   3.611  14.942  0.00  0.00    +0.000 OA
BRANCH  22  23
ATOM     23  C   UNL     1      47.820   3.879  16.101  0.00  0.00    +0.000 C 
ATOM     24  C   UNL     1      48.350   2.673  16.903  0.00  0.00    +0.000 C 
ATOM     25  N   UNL     1      47.827   3.255  18.149  0.00  0.00    +0.000 NA
ATOM     26  C   UNL     1      47.038   4.231  17.383  0.00  0.00    +0.000 C 
ATOM     27  H   UNL     1      48.539   3.672  18.747  0.00  0.00    +0.000 HD
ENDBRANCH  22  23
ENDBRANCH  20  22
ENDBRANCH  15  16
ENDBRANCH   1  15
TORSDOF 6
ENDMDL
MODEL 2
REMARK VINA RESULT:    -7.691      2.490      3.496
REMARK INTER + INTRA:         -11.046
REMARK INTER:                 -10.249
REMARK INTRA:                  -0.797
REMARK UNBOUND:                -0.658
REMARK  Name = 
REMARK  6 active torsions:
REMARK  status: ('A' for Active; 'I' for Inactive)
REMARK    1  A    between atoms: C_2  and  C_4
REMARK    2  A    between atoms: N_8  and  C_9
REMARK    3  A    between atoms: C_9  and  C_10
REMARK    4  A    between atoms: C_10  and  C_11
REMARK    5  A    between atoms: C_15  and  O_16
REMARK    6  A    between atoms: O_16  and  C_17
REMARK                            x       y       z     vdW  Elec       q    Type
REMARK                         _______ _______ _______ _____ _____    ______ ____
ROOT
ATOM      1  C   UNL     1      43.467   4.575  10.934  0.00  0.00    +0.000 C 
ENDROOT
BRANCH   1   6
ATOM      2  C   UNL     1      46.623   2.500   7.569  0.00  0.00    +0.000 A 
ATOM      3  C   UNL     1      45.760   1.902   8.476  0.00  0.00    +0.000 A 
ATOM      4  C   UNL     1      44.856   2.698   9.177  0.00  0.00    +0.000 A 
ATOM      5  C   UNL     1      44.849   4.079   8.988  0.00  0.00    +0.000 A 
ATOM      6  N   UNL     1      43.915   4.914   9.590  0.00  0.00    +0.000 N 
ATOM      7  N   UNL     1      45.715   4.675   8.146  0.00  0.00    +0.000 NA
ATOM      8  C   UNL     1      46.584   3.881   7.459  0.00  0.00    +0.000 A 
ATOM      9  H   UNL     1      44.225   5.873   9.440  0.00  0.00    +0.000 HD
BRANCH   2  11
ATOM     10  N   UNL     1      48.672   2.365   6.280  0.00  0.00    +0.000 N 
ATOM     11  C   UNL     1      47.551   1.718   6.727  0.00  0.00    +0.000 C 
ATOM     12  O   UNL     1      47.355   0.538   6.474  0.00  0.00    +0.000 OA
ATOM     13  H   UNL     1      49.363   1.797   5.805  0.00  0.00    +0.000 HD
ATOM     14  H   UNL     1      48.988   3.244   6.671  0.00  0.00    +0.000 HD
ENDBRANCH   2  11
ENDBRANCH   1   6
BRANCH   1  15
ATOM     15  C   UNL     1      43.583   5.763  11.894  0.00  0.00    +0.000 C 
BRANCH  15  16
ATOM     16  C   UNL     1      44.888   5.679  12.657  0.00  0.00    +0.000 A 
ATOM     17  C   UNL     1      45.331   4.458  13.180  0.00  0.00    +0.000 A 
ATOM     18  C   UNL     1      46.581   4.367  13.797  0.00  0.00    +0.000 A 
ATOM     19  C   UNL     1      47.401   5.493  13.901  0.00  0.00    +0.000 A 
ATOM     20  C   UNL     1      46.964   6.714  13.393  0.00  0.00    +0.000 A 
ATOM     21  C   UNL     1      45.716   6.803  12.768  0.00  0.00    +0.000 A 
BRANCH  20  22
ATOM     22  O   UNL     1      47.697   7.874  13.406  0.00  0.00    +0.000 OA
BRANCH  22  23
ATOM     23  C   UNL     1      48.172   8.413  12.151  0.00  0.00    +0.000 C 
ATOM     24  C   UNL     1      49.400   7.747  11.499  0.00  0.00    +0.000 C 
ATOM     25  N   UNL     1      50.064   9.055  11.380  0.00  0.00    +0.000 NA
ATOM     26  C   UNL     1      49.071   9.660  12.280  0.00  0.00    +0.000 C 
ATOM     27  H   UNL     1      50.060   9.441  10.437  0.00  0.00    +0.000 HD
ENDBRANCH  22  23
ENDBRANCH  20  22
ENDBRANCH  15  16
ENDBRANCH   1  15
TORSDOF 6
ENDMDL
MODEL 3
REMARK VINA RESULT:    -7.275      2.656      4.296
REMARK INTER + INTRA:         -10.484
REMARK INTER:                  -9.730
REMARK INTRA:                  -0.755
REMARK UNBOUND:                -0.658
REMARK  Name = 
REMARK  6 active torsions:
REMARK  status: ('A' for Active; 'I' for Inactive)
REMARK    1  A    between atoms: C_2  and  C_4
REMARK    2  A    between atoms: N_8  and  C_9
REMARK    3  A    between atoms: C_9  and  C_10
REMARK    4  A    between atoms: C_10  and  C_11
REMARK    5  A    between atoms: C_15  and  O_16
REMARK    6  A    between atoms: O_16  and  C_17
REMARK                            x       y       z     vdW  Elec       q    Type
REMARK                         _______ _______ _______ _____ _____    ______ ____
ROOT
ATOM      1  C   UNL     1      43.214   4.261  11.101  0.00  0.00    +0.000 C 
ENDROOT
BRANCH   1   6
ATOM      2  C   UNL     1      46.374   2.929   7.381  0.00  0.00    +0.000 A 
ATOM      3  C   UNL     1      46.030   4.187   7.859  0.00  0.00    +0.000 A 
ATOM      4  C   UNL     1      45.266   4.283   9.020  0.00  0.00    +0.000 A 
ATOM      5  C   UNL     1      44.831   3.130   9.669  0.00  0.00    +0.000 A 
ATOM      6  N   UNL     1      44.143   3.161  10.876  0.00  0.00    +0.000 N 
ATOM      7  N   UNL     1      45.119   1.905   9.187  0.00  0.00    +0.000 NA
ATOM      8  C   UNL     1      45.877   1.827   8.057  0.00  0.00    +0.000 A 
ATOM      9  H   UNL     1      43.789   2.221  11.048  0.00  0.00    +0.000 HD
BRANCH   2  11
ATOM     10  N   UNL     1      48.577   2.524   6.455  0.00  0.00    +0.000 N 
ATOM     11  C   UNL     1      47.249   2.743   6.206  0.00  0.00    +0.000 C 
ATOM     12  O   UNL     1      46.807   2.741   5.066  0.00  0.00    +0.000 OA
ATOM     13  H   UNL     1      49.153   2.279   5.658  0.00  0.00    +0.000 HD
ATOM     14  H   UNL     1      48.927   2.271   7.371  0.00  0.00    +0.000 HD
ENDBRANCH   2  11
ENDBRANCH   1   6
BRANCH   1  15
ATOM     15  C   UNL     1      43.260   4.762  12.548  0.00  0.00    +0.000 C 
BRANCH  15  16
ATOM     16  C   UNL     1      44.621   5.354  12.842  0.00  0.00    +0.000 A 
ATOM     17  C   UNL     1      45.558   4.646  13.605  0.00  0.00    +0.000 A 
ATOM     18  C   UNL     1      46.846   5.154  13.791  0.00  0.00    +0.000 A 
ATOM     19  C   UNL     1      47.212   6.375  13.219  0.00  0.00    +0.000 A 
ATOM     20  C   UNL     1      46.284   7.091  12.468  0.00  0.00    +0.000 A 
ATOM     21  C   UNL     1      44.998   6.579  12.275  0.00  0.00    +0.000 A 
BRANCH  20  22
ATOM     22  O   UNL     1      46.543   8.280  11.832  0.00  0.00    +0.000 OA
BRANCH  22  23
ATOM     23  C   UNL     1      45.971   9.495  12.366  0.00  0.00    +0.000 C 
ATOM     24  C   UNL     1      44.800  10.139  11.597  0.00  0.00    +0.000 C 
ATOM     25  N   UNL     1      45.499  11.434  11.589  0.00  0.00    +0.000 NA
ATOM     26  C   UNL     1      46.745  10.783  12.019  0.00  0.00    +0.000 C 
ATOM     27  H   UNL     1      45.132  12.112  12.256  0.00  0.00    +0.000 HD
ENDBRANCH  22  23
ENDBRANCH  20  22
ENDBRANCH  15  16
ENDBRANCH   1  15
TORSDOF 6
ENDMDL
MODEL 4
REMARK VINA RESULT:    -7.188      2.167      8.392
REMARK INTER + INTRA:         -10.367
REMARK INTER:                  -9.848
REMARK INTRA:                  -0.518
REMARK UNBOUND:                -0.658
REMARK  Name = 
REMARK  6 active torsions:
REMARK  status: ('A' for Active; 'I' for Inactive)
REMARK    1  A    between atoms: C_2  and  C_4
REMARK    2  A    between atoms: N_8  and  C_9
REMARK    3  A    between atoms: C_9  and  C_10
REMARK    4  A    between atoms: C_10  and  C_11
REMARK    5  A    between atoms: C_15  and  O_16
REMARK    6  A    between atoms: O_16  and  C_17
REMARK                            x       y       z     vdW  Elec       q    Type
REMARK                         _______ _______ _______ _____ _____    ______ ____
ROOT
ATOM      1  C   UNL     1      45.744   5.873  12.743  0.00  0.00    +0.000 C 
ENDROOT
BRANCH   1   6
ATOM      2  C   UNL     1      48.406   4.581  16.846  0.00  0.00    +0.000 A 
ATOM      3  C   UNL     1      47.353   3.929  16.219  0.00  0.00    +0.000 A 
ATOM      4  C   UNL     1      46.901   4.404  14.989  0.00  0.00    +0.000 A 
ATOM      5  C   UNL     1      47.481   5.536  14.420  0.00  0.00    +0.000 A 
ATOM      6  N   UNL     1      47.134   6.004  13.158  0.00  0.00    +0.000 N 
ATOM      7  N   UNL     1      48.470   6.204  15.044  0.00  0.00    +0.000 NA
ATOM      8  C   UNL     1      48.910   5.721  16.240  0.00  0.00    +0.000 A 
ATOM      9  H   UNL     1      47.559   6.923  13.049  0.00  0.00    +0.000 HD
BRANCH   2  11
ATOM     10  N   UNL     1      48.266   3.180  18.820  0.00  0.00    +0.000 N 
ATOM     11  C   UNL     1      48.998   4.093  18.109  0.00  0.00    +0.000 C 
ATOM     12  O   UNL     1      50.105   4.452  18.484  0.00  0.00    +0.000 OA
ATOM     13  H   UNL     1      48.722   2.758  19.620  0.00  0.00    +0.000 HD
ATOM     14  H   UNL     1      47.481   2.680  18.422  0.00  0.00    +0.000 HD
ENDBRANCH   2  11
ENDBRANCH   1   6
BRANCH   1  15
ATOM     15  C   UNL     1      45.547   6.252  11.272  0.00  0.00    +0.000 C 
BRANCH  15  16
ATOM     16  C   UNL     1      45.288   5.007  10.452  0.00  0.00    +0.000 A 
ATOM     17  C   UNL     1      44.460   3.988  10.941  0.00  0.00    +0.000 A 
ATOM     18  C   UNL     1      44.147   2.888  10.140  0.00  0.00    +0.000 A 
ATOM     19  C   UNL     1      44.659   2.790   8.844  0.00  0.00    +0.000 A 
ATOM     20  C   UNL     1      45.492   3.791   8.354  0.00  0.00    +0.000 A 
ATOM     21  C   UNL     1      45.799   4.897   9.152  0.00  0.00    +0.000 A 
BRANCH  20  22
ATOM     22  O   UNL     1      46.022   3.817   7.088  0.00  0.00    +0.000 OA
BRANCH  22  23
ATOM     23  C   UNL     1      46.503   2.583   6.508  0.00  0.00    +0.000 C 
ATOM     24  C   UNL     1      47.916   2.105   6.899  0.00  0.00    +0.000 C 
ATOM     25  N   UNL     1      48.277   1.965   5.479  0.00  0.00    +0.000 NA
ATOM     26  C   UNL     1      47.077   2.717   5.082  0.00  0.00    +0.000 C 
ATOM     27  H   UNL     1      48.294   1.003   5.145  0.00  0.00    +0.000 HD
ENDBRANCH  22  23
ENDBRANCH  20  22
ENDBRANCH  15  16
ENDBRANCH   1  15
TORSDOF 6
ENDMDL
MODEL 5
REMARK VINA RESULT:    -7.155      3.225      4.877
REMARK INTER + INTRA:         -10.322
REMARK INTER:                  -9.774
REMARK INTRA:                  -0.548
REMARK UNBOUND:                -0.658
REMARK  Name = 
REMARK  6 active torsions:
REMARK  status: ('A' for Active; 'I' for Inactive)
REMARK    1  A    between atoms: C_2  and  C_4
REMARK    2  A    between atoms: N_8  and  C_9
REMARK    3  A    between atoms: C_9  and  C_10
REMARK    4  A    between atoms: C_10  and  C_11
REMARK    5  A    between atoms: C_15  and  O_16
REMARK    6  A    between atoms: O_16  and  C_17
REMARK                            x       y       z     vdW  Elec       q    Type
REMARK                         _______ _______ _______ _____ _____    ______ ____
ROOT
ATOM      1  C   UNL     1      43.550   4.660  11.163  0.00  0.00    +0.000 C 
ENDROOT
BRANCH   1   6
ATOM      2  C   UNL     1      46.543   2.578   7.656  0.00  0.00    +0.000 A 
ATOM      3  C   UNL     1      45.628   1.990   8.519  0.00  0.00    +0.000 A 
ATOM      4  C   UNL     1      44.790   2.806   9.275  0.00  0.00    +0.000 A 
ATOM      5  C   UNL     1      44.897   4.192   9.186  0.00  0.00    +0.000 A 
ATOM      6  N   UNL     1      44.033   5.057   9.847  0.00  0.00    +0.000 N 
ATOM      7  N   UNL     1      45.815   4.773   8.389  0.00  0.00    +0.000 NA
ATOM      8  C   UNL     1      46.619   3.962   7.646  0.00  0.00    +0.000 A 
ATOM      9  H   UNL     1      44.421   5.995   9.767  0.00  0.00    +0.000 HD
BRANCH   2  11
ATOM     10  N   UNL     1      48.521   2.409   6.265  0.00  0.00    +0.000 N 
ATOM     11  C   UNL     1      47.408   1.784   6.760  0.00  0.00    +0.000 C 
ATOM     12  O   UNL     1      47.169   0.613   6.503  0.00  0.00    +0.000 OA
ATOM     13  H   UNL     1      49.173   1.831   5.749  0.00  0.00    +0.000 HD
ATOM     14  H   UNL     1      48.878   3.275   6.650  0.00  0.00    +0.000 HD
ENDBRANCH   2  11
ENDBRANCH   1   6
BRANCH   1  15
ATOM     15  C   UNL     1      44.684   4.582  12.190  0.00  0.00    +0.000 C 
BRANCH  15  16
ATOM     16  C   UNL     1      45.430   5.898  12.229  0.00  0.00    +0.000 A 
ATOM     17  C   UNL     1      46.821   5.936  12.062  0.00  0.00    +0.000 A 
ATOM     18  C   UNL     1      47.491   7.160  12.001  0.00  0.00    +0.000 A 
ATOM     19  C   UNL     1      46.782   8.359  12.109  0.00  0.00    +0.000 A 
ATOM     20  C   UNL     1      45.402   8.331  12.287  0.00  0.00    +0.000 A 
ATOM     21  C   UNL     1      44.730   7.106  12.340  0.00  0.00    +0.000 A 
BRANCH  20  22
ATOM     22  O   UNL     1      44.601   9.443  12.369  0.00  0.00    +0.000 OA
BRANCH  22  23
ATOM     23  C   UNL     1      44.395  10.243  11.182  0.00  0.00    +0.000 C 
ATOM     24  C   UNL     1      43.708  11.614  11.347  0.00  0.00    +0.000 C 
ATOM     25  N   UNL     1      42.735  11.268  10.298  0.00  0.00    +0.000 NA
ATOM     26  C   UNL     1      43.153   9.859  10.351  0.00  0.00    +0.000 C 
ATOM     27  H   UNL     1      42.908  11.720   9.402  0.00  0.00    +0.000 HD
ENDBRANCH  22  23
ENDBRANCH  20  22
ENDBRANCH  15  16
ENDBRANCH   1  15
TORSDOF 6
ENDMDL
MODEL 6
REMARK VINA RESULT:    -6.867      2.168      2.639
REMARK INTER + INTRA:          -9.933
REMARK INTER:                  -9.756
REMARK INTRA:                  -0.176
REMARK UNBOUND:                -0.658
REMARK  Name = 
REMARK  6 active torsions:
REMARK  status: ('A' for Active; 'I' for Inactive)
REMARK    1  A    between atoms: C_2  and  C_4
REMARK    2  A    between atoms: N_8  and  C_9
REMARK    3  A    between atoms: C_9  and  C_10
REMARK    4  A    between atoms: C_10  and  C_11
REMARK    5  A    between atoms: C_15  and  O_16
REMARK    6  A    between atoms: O_16  and  C_17
REMARK                            x       y       z     vdW  Elec       q    Type
REMARK                         _______ _______ _______ _____ _____    ______ ____
ROOT
ATOM      1  C   UNL     1      43.982   4.351  11.250  0.00  0.00    +0.000 C 
ENDROOT
BRANCH   1   6
ATOM      2  C   UNL     1      46.646   2.437   7.398  0.00  0.00    +0.000 A 
ATOM      3  C   UNL     1      45.927   1.796   8.398  0.00  0.00    +0.000 A 
ATOM      4  C   UNL     1      45.126   2.555   9.248  0.00  0.00    +0.000 A 
ATOM      5  C   UNL     1      45.076   3.941   9.110  0.00  0.00    +0.000 A 
ATOM      6  N   UNL     1      44.230   4.741   9.869  0.00  0.00    +0.000 N 
ATOM      7  N   UNL     1      45.807   4.577   8.175  0.00  0.00    +0.000 NA
ATOM      8  C   UNL     1      46.577   3.820   7.344  0.00  0.00    +0.000 A 
ATOM      9  H   UNL     1      44.505   5.709   9.710  0.00  0.00    +0.000 HD
BRANCH   2  11
ATOM     10  N   UNL     1      48.541   2.347   5.889  0.00  0.00    +0.000 N 
ATOM     11  C   UNL     1      47.452   1.698   6.406  0.00  0.00    +0.000 C 
ATOM     12  O   UNL     1      47.189   0.547   6.089  0.00  0.00    +0.000 OA
ATOM     13  H   UNL     1      49.158   1.800   5.301  0.00  0.00    +0.000 HD
ATOM     14  H   UNL     1      48.927   3.184   6.308  0.00  0.00    +0.000 HD
ENDBRANCH   2  11
ENDBRANCH   1   6
BRANCH   1  15
ATOM     15  C   UNL     1      45.238   4.483  12.117  0.00  0.00    +0.000 C 
BRANCH  15  16
ATOM     16  C   UNL     1      45.659   5.934  12.191  0.00  0.00    +0.000 A 
ATOM     17  C   UNL     1      44.705   6.959  12.128  0.00  0.00    +0.000 A 
ATOM     18  C   UNL     1      45.090   8.291  12.296  0.00  0.00    +0.000 A 
ATOM     19  C   UNL     1      46.428   8.616  12.525  0.00  0.00    +0.000 A 
ATOM     20  C   UNL     1      47.385   7.606  12.579  0.00  0.00    +0.000 A 
ATOM     21  C   UNL     1      46.999   6.272  12.419  0.00  0.00    +0.000 A 
BRANCH  20  22
ATOM     22  O   UNL     1      48.719   7.804  12.833  0.00  0.00    +0.000 OA
BRANCH  22  23
ATOM     23  C   UNL     1      49.152   7.958  14.204  0.00  0.00    +0.000 C 
ATOM     24  C   UNL     1      50.573   7.482  14.569  0.00  0.00    +0.000 C 
ATOM     25  N   UNL     1      50.034   6.683  15.681  0.00  0.00    +0.000 NA
ATOM     26  C   UNL     1      48.668   6.851  15.164  0.00  0.00    +0.000 C 
ATOM     27  H   UNL     1      50.184   7.093  16.602  0.00  0.00    +0.000 HD
ENDBRANCH  22  23
ENDBRANCH  20  22
ENDBRANCH  15  16
ENDBRANCH   1  15
TORSDOF 6
ENDMDL
MODEL 7
REMARK VINA RESULT:    -6.564      4.149      9.878
REMARK INTER + INTRA:          -9.523
REMARK INTER:                  -9.052
REMARK INTRA:                  -0.472
REMARK UNBOUND:                -0.658
REMARK  Name = 
REMARK  6 active torsions:
REMARK  status: ('A' for Active; 'I' for Inactive)
REMARK    1  A    between atoms: C_2  and  C_4
REMARK    2  A    between atoms: N_8  and  C_9
REMARK    3  A    between atoms: C_9  and  C_10
REMARK    4  A    between atoms: C_10  and  C_11
REMARK    5  A    between atoms: C_15  and  O_16
REMARK    6  A    between atoms: O_16  and  C_17
REMARK                            x       y       z     vdW  Elec       q    Type
REMARK                         _______ _______ _______ _____ _____    ______ ____
ROOT
ATOM      1  C   UNL     1      46.622   2.922   5.408  0.00  0.00    +0.000 C 
ENDROOT
BRANCH   1   6
ATOM      2  C   UNL     1      44.565   3.373  10.008  0.00  0.00    +0.000 A 
ATOM      3  C   UNL     1      44.686   2.262   9.185  0.00  0.00    +0.000 A 
ATOM      4  C   UNL     1      45.458   2.358   8.029  0.00  0.00    +0.000 A 
ATOM      5  C   UNL     1      46.070   3.564   7.694  0.00  0.00    +0.000 A 
ATOM      6  N   UNL     1      46.922   3.697   6.604  0.00  0.00    +0.000 N 
ATOM      7  N   UNL     1      45.919   4.661   8.461  0.00  0.00    +0.000 NA
ATOM      8  C   UNL     1      45.171   4.549   9.594  0.00  0.00    +0.000 A 
ATOM      9  H   UNL     1      47.093   4.693   6.473  0.00  0.00    +0.000 HD
BRANCH   2  11
ATOM     10  N   UNL     1      44.439   2.664  12.323  0.00  0.00    +0.000 N 
ATOM     11  C   UNL     1      43.835   3.330  11.291  0.00  0.00    +0.000 C 
ATOM     12  O   UNL     1      42.761   3.896  11.442  0.00  0.00    +0.000 OA
ATOM     13  H   UNL     1      43.996   2.736  13.230  0.00  0.00    +0.000 HD
ATOM     14  H   UNL     1      45.419   2.409  12.308  0.00  0.00    +0.000 HD
ENDBRANCH   2  11
ENDBRANCH   1   6
BRANCH   1  15
ATOM     15  C   UNL     1      47.512   1.682   5.290  0.00  0.00    +0.000 C 
BRANCH  15  16
ATOM     16  C   UNL     1      46.907   0.709   4.301  0.00  0.00    +0.000 A 
ATOM     17  C   UNL     1      46.048   1.159   3.290  0.00  0.00    +0.000 A 
ATOM     18  C   UNL     1      45.572   0.272   2.322  0.00  0.00    +0.000 A 
ATOM     19  C   UNL     1      45.945  -1.073   2.353  0.00  0.00    +0.000 A 
ATOM     20  C   UNL     1      46.789  -1.533   3.361  0.00  0.00    +0.000 A 
ATOM     21  C   UNL     1      47.272  -0.644   4.325  0.00  0.00    +0.000 A 
BRANCH  20  22
ATOM     22  O   UNL     1      47.248  -2.822   3.469  0.00  0.00    +0.000 OA
BRANCH  22  23
ATOM     23  C   UNL     1      46.488  -3.769   4.255  0.00  0.00    +0.000 C 
ATOM     24  C   UNL     1      47.258  -4.661   5.250  0.00  0.00    +0.000 C 
ATOM     25  N   UNL     1      46.627  -5.863   4.681  0.00  0.00    +0.000 NA
ATOM     26  C   UNL     1      46.145  -5.086   3.529  0.00  0.00    +0.000 C 
ATOM     27  H   UNL     1      45.884  -6.257   5.257  0.00  0.00    +0.000 HD
ENDBRANCH  22  23
ENDBRANCH  20  22
ENDBRANCH  15  16
ENDBRANCH   1  15
TORSDOF 6
ENDMDL
MODEL 8
REMARK VINA RESULT:    -6.481      2.475      8.711
REMARK INTER + INTRA:          -9.412
REMARK INTER:                  -8.975
REMARK INTRA:                  -0.437
REMARK UNBOUND:                -0.658
REMARK  Name = 
REMARK  6 active torsions:
REMARK  status: ('A' for Active; 'I' for Inactive)
REMARK    1  A    between atoms: C_2  and  C_4
REMARK    2  A    between atoms: N_8  and  C_9
REMARK    3  A    between atoms: C_9  and  C_10
REMARK    4  A    between atoms: C_10  and  C_11
REMARK    5  A    between atoms: C_15  and  O_16
REMARK    6  A    between atoms: O_16  and  C_17
REMARK                            x       y       z     vdW  Elec       q    Type
REMARK                         _______ _______ _______ _____ _____    ______ ____
ROOT
ATOM      1  C   UNL     1      47.131   4.533  13.928  0.00  0.00    +0.000 C 
ENDROOT
BRANCH   1   6
ATOM      2  C   UNL     1      48.553   4.291  18.777  0.00  0.00    +0.000 A 
ATOM      3  C   UNL     1      48.812   5.257  17.814  0.00  0.00    +0.000 A 
ATOM      4  C   UNL     1      48.153   5.182  16.588  0.00  0.00    +0.000 A 
ATOM      5  C   UNL     1      47.274   4.133  16.329  0.00  0.00    +0.000 A 
ATOM      6  N   UNL     1      46.523   4.052  15.162  0.00  0.00    +0.000 N 
ATOM      7  N   UNL     1      47.054   3.164  17.239  0.00  0.00    +0.000 NA
ATOM      8  C   UNL     1      47.696   3.257  18.437  0.00  0.00    +0.000 A 
ATOM      9  H   UNL     1      46.105   3.124  15.134  0.00  0.00    +0.000 HD
BRANCH   2  11
ATOM     10  N   UNL     1      50.498   4.546  20.202  0.00  0.00    +0.000 N 
ATOM     11  C   UNL     1      49.146   4.345  20.129  0.00  0.00    +0.000 C 
ATOM     12  O   UNL     1      48.461   4.257  21.138  0.00  0.00    +0.000 OA
ATOM     13  H   UNL     1      50.884   4.701  21.125  0.00  0.00    +0.000 HD
ATOM     14  H   UNL     1      51.045   4.871  19.414  0.00  0.00    +0.000 HD
ENDBRANCH   2  11
ENDBRANCH   1   6
BRANCH   1  15
ATOM     15  C   UNL     1      46.438   5.794  13.402  0.00  0.00    +0.000 C 
BRANCH  15  16
ATOM     16  C   UNL     1      45.335   5.409  12.440  0.00  0.00    +0.000 A 
ATOM     17  C   UNL     1      43.995   5.424  12.848  0.00  0.00    +0.000 A 
ATOM     18  C   UNL     1      42.975   5.163  11.929  0.00  0.00    +0.000 A 
ATOM     19  C   UNL     1      43.281   4.883  10.596  0.00  0.00    +0.000 A 
ATOM     20  C   UNL     1      44.611   4.855  10.184  0.00  0.00    +0.000 A 
ATOM     21  C   UNL     1      45.631   5.124  11.101  0.00  0.00    +0.000 A 
BRANCH  20  22
ATOM     22  O   UNL     1      45.026   4.626   8.895  0.00  0.00    +0.000 OA
BRANCH  22  23
ATOM     23  C   UNL     1      44.887   3.297   8.343  0.00  0.00    +0.000 C 
ATOM     24  C   UNL     1      45.003   2.100   9.309  0.00  0.00    +0.000 C 
ATOM     25  N   UNL     1      46.011   1.476   8.436  0.00  0.00    +0.000 NA
ATOM     26  C   UNL     1      46.161   2.731   7.684  0.00  0.00    +0.000 C 
ATOM     27  H   UNL     1      45.658   0.698   7.880  0.00  0.00    +0.000 HD
ENDBRANCH  22  23
ENDBRANCH  20  22
ENDBRANCH  15  16
ENDBRANCH   1  15
TORSDOF 6
ENDMDL
MODEL 9
REMARK VINA RESULT:    -6.224      3.381      5.010
REMARK INTER + INTRA:          -9.065
REMARK INTER:                  -8.086
REMARK INTRA:                  -0.979
REMARK UNBOUND:                -0.658
REMARK  Name = 
REMARK  6 active torsions:
REMARK  status: ('A' for Active; 'I' for Inactive)
REMARK    1  A    between atoms: C_2  and  C_4
REMARK    2  A    between atoms: N_8  and  C_9
REMARK    3  A    between atoms: C_9  and  C_10
REMARK    4  A    between atoms: C_10  and  C_11
REMARK    5  A    between atoms: C_15  and  O_16
REMARK    6  A    between atoms: O_16  and  C_17
REMARK                            x       y       z     vdW  Elec       q    Type
REMARK                         _______ _______ _______ _____ _____    ______ ____
ROOT
ATOM      1  C   UNL     1      49.171   7.275  12.688  0.00  0.00    +0.000 C 
ENDROOT
BRANCH   1   6
ATOM      2  C   UNL     1      45.009   4.491  11.960  0.00  0.00    +0.000 A 
ATOM      3  C   UNL     1      45.893   4.521  13.031  0.00  0.00    +0.000 A 
ATOM      4  C   UNL     1      46.872   5.511  13.072  0.00  0.00    +0.000 A 
ATOM      5  C   UNL     1      46.977   6.435  12.034  0.00  0.00    +0.000 A 
ATOM      6  N   UNL     1      47.874   7.496  12.061  0.00  0.00    +0.000 N 
ATOM      7  N   UNL     1      46.157   6.384  10.967  0.00  0.00    +0.000 NA
ATOM      8  C   UNL     1      45.196   5.418  10.947  0.00  0.00    +0.000 A 
ATOM      9  H   UNL     1      47.882   7.910  11.130  0.00  0.00    +0.000 HD
BRANCH   2  11
ATOM     10  N   UNL     1      44.025   2.372  12.605  0.00  0.00    +0.000 N 
ATOM     11  C   UNL     1      43.893   3.527  11.883  0.00  0.00    +0.000 C 
ATOM     12  O   UNL     1      42.880   3.763  11.240  0.00  0.00    +0.000 OA
ATOM     13  H   UNL     1      43.213   1.768  12.646  0.00  0.00    +0.000 HD
ATOM     14  H   UNL     1      44.720   2.259  13.332  0.00  0.00    +0.000 HD
ENDBRANCH   2  11
ENDBRANCH   1   6
BRANCH   1  15
ATOM     15  C   UNL     1      49.607   8.472  13.538  0.00  0.00    +0.000 C 
BRANCH  15  16
ATOM     16  C   UNL     1      49.296   8.207  14.995  0.00  0.00    +0.000 A 
ATOM     17  C   UNL     1      48.836   9.236  15.826  0.00  0.00    +0.000 A 
ATOM     18  C   UNL     1      48.458   8.964  17.143  0.00  0.00    +0.000 A 
ATOM     19  C   UNL     1      48.536   7.663  17.645  0.00  0.00    +0.000 A 
ATOM     20  C   UNL     1      49.002   6.635  16.830  0.00  0.00    +0.000 A 
ATOM     21  C   UNL     1      49.373   6.906  15.510  0.00  0.00    +0.000 A 
BRANCH  20  22
ATOM     22  O   UNL     1      49.088   5.318  17.205  0.00  0.00    +0.000 OA
BRANCH  22  23
ATOM     23  C   UNL     1      47.939   4.692  17.821  0.00  0.00    +0.000 C 
ATOM     24  C   UNL     1      48.118   3.279  18.412  0.00  0.00    +0.000 C 
ATOM     25  N   UNL     1      46.953   2.799  17.651  0.00  0.00    +0.000 NA
ATOM     26  C   UNL     1      46.959   4.022  16.836  0.00  0.00    +0.000 C 
ATOM     27  H   UNL     1      46.110   2.676  18.211  0.00  0.00    +0.000 HD
ENDBRANCH  22  23
ENDBRANCH  20  22
ENDBRANCH  15  16
ENDBRANCH   1  15
TORSDOF 6
ENDMDL
