MODEL 1
REMARK VINA RESULT:    -6.986      0.000      0.000
REMARK INTER + INTRA:         -10.375
REMARK INTER:                  -9.436
REMARK INTRA:                  -0.939
REMARK UNBOUND:                -0.939
REMARK  Name = 
REMARK  7 active torsions:
REMARK  status: ('A' for Active; 'I' for Inactive)
REMARK    1  A    between atoms: C_1  and  C_2
REMARK    2  A    between atoms: C_2  and  C_3
REMARK    3  A    between atoms: C_7  and  C_8
REMARK    4  A    between atoms: C_8  and  C_9
REMARK    5  A    between atoms: C_9  and  O_10
REMARK    6  A    between atoms: O_10  and  C_11
REMARK    7  A    between atoms: C_14  and  C_15
REMARK                            x       y       z     vdW  Elec       q    Type
REMARK                         _______ _______ _______ _____ _____    ______ ____
ROOT
ATOM      1  C   UNL     1      45.349   4.662  13.104  0.00  0.00    +0.000 A 
ATOM      2  C   UNL     1      46.508   4.279  13.773  0.00  0.00    +0.000 A 
ATOM      3  N   UNL     1      47.645   4.983  13.868  0.00  0.00    +0.000 NA
ATOM      4  C   UNL     1      47.664   6.179  13.212  0.00  0.00    +0.000 A 
ATOM      5  C   UNL     1      46.572   6.663  12.499  0.00  0.00    +0.000 A 
ATOM      6  C   UNL     1      45.402   5.912  12.458  0.00  0.00    +0.000 A 
ATOM      7 CL   UNL     1      44.041   6.650  11.700  0.00  0.00    +0.000 Cl
ENDROOT
BRANCH   4   8
ATOM      8  C   UNL     1      48.896   6.980  13.305  0.00  0.00    +0.000 C 
ATOM      9  N   UNL     1      49.167   7.806  12.258  0.00  0.00    +0.000 N 
ATOM     10  O   UNL     1      49.661   6.904  14.272  0.00  0.00    +0.000 OA
ATOM     11  H   UNL     1      48.544   7.830  11.456  0.00  0.00    +0.000 HD
ATOM     12  H   UNL     1      50.024   8.346  12.256  0.00  0.00    +0.000 HD
ENDBRANCH   4   8
BRANCH   1  13
ATOM     13  O   UNL     1      44.234   3.849  13.119  0.00  0.00    +0.000 OA
BRANCH  13  14
ATOM     14  C   UNL     1      44.330   2.801  12.122  0.00  0.00    +0.000 C 
BRANCH  14  15
ATOM     15  C   UNL     1      43.711   3.185  10.780  0.00  0.00    +0.000 C 
BRANCH  15  20
ATOM     16  C   UNL     1      46.178   2.121   8.042  0.00  0.00    +0.000 A 
ATOM     17  C   UNL     1      46.496   3.353   7.462  0.00  0.00    +0.000 A 
ATOM     18  C   UNL     1      45.987   4.531   7.995  0.00  0.00    +0.000 A 
ATOM     19  C   UNL     1      45.120   4.487   9.091  0.00  0.00    +0.000 A 
ATOM     20  C   UNL     1      44.739   3.262   9.663  0.00  0.00    +0.000 A 
ATOM     21  C   UNL     1      45.298   2.084   9.141  0.00  0.00    +0.000 A 
BRANCH  16  23
ATOM     22  C   UNL     1      47.589   1.118   6.222  0.00  0.00    +0.000 C 
ATOM     23  C   UNL     1      46.748   0.853   7.462  0.00  0.00    +0.000 C 
ENDBRANCH  16  23
ENDBRANCH  15  20
ENDBRANCH  14  15
ENDBRANCH  13  14
ENDBRANCH   1  13
TORSDOF 6
ENDMDL
MODEL 2
REMARK VINA RESULT:    -6.784      2.003      2.745
REMARK INTER + INTRA:         -10.103
REMARK INTER:                  -9.593
REMARK INTRA:                  -0.511
REMARK UNBOUND:                -0.939
REMARK  Name = 
REMARK  7 active torsions:
REMARK  status: ('A' for Active; 'I' for Inactive)
REMARK    1  A    between atoms: C_1  and  C_2
REMARK    2  A    between atoms: C_2  and  C_3
REMARK    3  A    between atoms: C_7  and  C_8
REMARK    4  A    between atoms: C_8  and  C_9
REMARK    5  A    between atoms: C_9  and  O_10
REMARK    6  A    between atoms: O_10  and  C_11
REMARK    7  A    between atoms: C_14  and  C_15
REMARK                            x       y       z     vdW  Elec       q    Type
REMARK                         _______ _______ _______ _____ _____    ______ ____
ROOT
ATOM      1  C   UNL     1      45.991   5.373  12.153  0.00  0.00    +0.000 A 
ATOM      2  C   UNL     1      45.586   4.332  12.984  0.00  0.00    +0.000 A 
ATOM      3  N   UNL     1      46.076   4.041  14.198  0.00  0.00    +0.000 NA
ATOM      4  C   UNL     1      47.094   4.835  14.637  0.00  0.00    +0.000 A 
ATOM      5  C   UNL     1      47.594   5.899  13.893  0.00  0.00    +0.000 A 
ATOM      6  C   UNL     1      47.030   6.183  12.653  0.00  0.00    +0.000 A 
ATOM      7 CL   UNL     1      47.584   7.612  11.865  0.00  0.00    +0.000 Cl
ENDROOT
BRANCH   4   8
ATOM      8  C   UNL     1      47.647   4.547  15.971  0.00  0.00    +0.000 C 
ATOM      9  N   UNL     1      46.906   3.742  16.779  0.00  0.00    +0.000 N 
ATOM     10  O   UNL     1      48.722   5.019  16.354  0.00  0.00    +0.000 OA
ATOM     11  H   UNL     1      46.008   3.390  16.459  0.00  0.00    +0.000 HD
ATOM     12  H   UNL     1      47.224   3.548  17.720  0.00  0.00    +0.000 HD
ENDBRANCH   4   8
BRANCH   1  13
ATOM     13  O   UNL     1      45.371   5.577  10.938  0.00  0.00    +0.000 OA
BRANCH  13  14
ATOM     14  C   UNL     1      44.455   4.499  10.624  0.00  0.00    +0.000 C 
BRANCH  14  15
ATOM     15  C   UNL     1      44.167   4.367   9.130  0.00  0.00    +0.000 C 
BRANCH  15  20
ATOM     16  C   UNL     1      46.503   2.607   6.649  0.00  0.00    +0.000 A 
ATOM     17  C   UNL     1      46.734   1.392   7.300  0.00  0.00    +0.000 A 
ATOM     18  C   UNL     1      46.083   1.100   8.492  0.00  0.00    +0.000 A 
ATOM     19  C   UNL     1      45.221   2.039   9.068  0.00  0.00    +0.000 A 
ATOM     20  C   UNL     1      45.009   3.290   8.465  0.00  0.00    +0.000 A 
ATOM     21  C   UNL     1      45.640   3.551   7.238  0.00  0.00    +0.000 A 
BRANCH  16  23
ATOM     22  C   UNL     1      47.547   1.638   4.580  0.00  0.00    +0.000 C 
ATOM     23  C   UNL     1      47.207   2.905   5.350  0.00  0.00    +0.000 C 
ENDBRANCH  16  23
ENDBRANCH  15  20
ENDBRANCH  14  15
ENDBRANCH  13  14
ENDBRANCH   1  13
TORSDOF 6
ENDMDL
MODEL 3
REMARK VINA RESULT:    -6.714      1.615      1.905
REMARK INTER + INTRA:         -10.009
REMARK INTER:                  -9.056
REMARK INTRA:                  -0.953
REMARK UNBOUND:                -0.939
REMARK  Name = 
REMARK  7 active torsions:
REMARK  status: ('A' for Active; 'I' for Inactive)
REMARK    1  A    between atoms: C_1  and  C_2
REMARK    2  A    between atoms: C_2  and  C_3
REMARK    3  A    between atoms: C_7  and  C_8
REMARK    4  A    between atoms: C_8  and  C_9
REMARK    5  A    between atoms: C_9  and  O_10
REMARK    6  A    between atoms: O_10  and  C_11
REMARK    7  A    between atoms: C_14  and  C_15
REMARK                            x       y       z     vdW  Elec       q    Type
REMARK                         _______ _______ _______ _____ _____    ______ ____
ROOT
ATOM      1  C   UNL     1      44.885   5.574  12.124  0.00  0.00    +0.000 A 
ATOM      2  C   UNL     1      45.018   6.887  11.682  0.00  0.00    +0.000 A 
ATOM      3  N   UNL     1      46.132   7.633  11.715  0.00  0.00    +0.000 NA
ATOM      4  C   UNL     1      47.229   7.043  12.270  0.00  0.00    +0.000 A 
ATOM      5  C   UNL     1      47.218   5.741  12.759  0.00  0.00    +0.000 A 
ATOM      6  C   UNL     1      46.046   4.994  12.671  0.00  0.00    +0.000 A 
ATOM      7 CL   UNL     1      46.153   3.339  13.140  0.00  0.00    +0.000 Cl
ENDROOT
BRANCH   4   8
ATOM      8  C   UNL     1      48.471   7.833  12.313  0.00  0.00    +0.000 C 
ATOM      9  N   UNL     1      49.622   7.149  12.551  0.00  0.00    +0.000 N 
ATOM     10  O   UNL     1      48.478   9.059  12.158  0.00  0.00    +0.000 OA
ATOM     11  H   UNL     1      49.593   6.146  12.709  0.00  0.00    +0.000 HD
ATOM     12  H   UNL     1      50.497   7.653  12.632  0.00  0.00    +0.000 HD
ENDBRANCH   4   8
BRANCH   1  13
ATOM     13  O   UNL     1      43.681   4.913  11.995  0.00  0.00    +0.000 OA
BRANCH  13  14
ATOM     14  C   UNL     1      43.437   4.522  10.621  0.00  0.00    +0.000 C 
BRANCH  14  15
ATOM     15  C   UNL     1      43.972   3.133  10.283  0.00  0.00    +0.000 C 
BRANCH  15  20
ATOM     16  C   UNL     1      46.534   1.965   7.677  0.00  0.00    +0.000 A 
ATOM     17  C   UNL     1      46.913   3.180   7.098  0.00  0.00    +0.000 A 
ATOM     18  C   UNL     1      46.413   4.378   7.592  0.00  0.00    +0.000 A 
ATOM     19  C   UNL     1      45.494   4.373   8.647  0.00  0.00    +0.000 A 
ATOM     20  C   UNL     1      45.053   3.167   9.214  0.00  0.00    +0.000 A 
ATOM     21  C   UNL     1      45.603   1.966   8.734  0.00  0.00    +0.000 A 
BRANCH  16  23
ATOM     22  C   UNL     1      47.313   0.726   5.636  0.00  0.00    +0.000 C 
ATOM     23  C   UNL     1      47.094   0.673   7.140  0.00  0.00    +0.000 C 
ENDBRANCH  16  23
ENDBRANCH  15  20
ENDBRANCH  14  15
ENDBRANCH  13  14
ENDBRANCH   1  13
TORSDOF 6
ENDMDL
MODEL 4
REMARK VINA RESULT:    -6.632      1.817      2.757
REMARK INTER + INTRA:          -9.897
REMARK INTER:                  -9.635
REMARK INTRA:                  -0.262
REMARK UNBOUND:                -0.939
REMARK  Name = 
REMARK  7 active torsions:
REMARK  status: ('A' for Active; 'I' for Inactive)
REMARK    1  A    between atoms: C_1  and  C_2
REMARK    2  A    between atoms: C_2  and  C_3
REMARK    3  A    between atoms: C_7  and  C_8
REMARK    4  A    between atoms: C_8  and  C_9
REMARK    5  A    between atoms: C_9  and  O_10
REMARK    6  A    between atoms: O_10  and  C_11
REMARK    7  A    between atoms: C_14  and  C_15
REMARK                            x       y       z     vdW  Elec       q    Type
REMARK                         _______ _______ _______ _____ _____    ______ ____
ROOT
ATOM      1  C   UNL     1      44.320   4.079  11.379  0.00  0.00    +0.000 A 
ATOM      2  C   UNL     1      45.082   3.078  11.976  0.00  0.00    +0.000 A 
ATOM      3  N   UNL     1      45.914   3.221  13.017  0.00  0.00    +0.000 NA
ATOM      4  C   UNL     1      46.041   4.486  13.511  0.00  0.00    +0.000 A 
ATOM      5  C   UNL     1      45.343   5.570  12.991  0.00  0.00    +0.000 A 
ATOM      6  C   UNL     1      44.464   5.366  11.932  0.00  0.00    +0.000 A 
ATOM      7 CL   UNL     1      43.510   6.719  11.452  0.00  0.00    +0.000 Cl
ENDROOT
BRANCH   4   8
ATOM      8  C   UNL     1      46.942   4.674  14.661  0.00  0.00    +0.000 C 
ATOM      9  N   UNL     1      47.564   5.880  14.758  0.00  0.00    +0.000 N 
ATOM     10  O   UNL     1      47.143   3.784  15.493  0.00  0.00    +0.000 OA
ATOM     11  H   UNL     1      47.412   6.588  14.046  0.00  0.00    +0.000 HD
ATOM     12  H   UNL     1      48.225   6.043  15.508  0.00  0.00    +0.000 HD
ENDBRANCH   4   8
BRANCH   1  13
ATOM     13  O   UNL     1      43.474   3.780  10.331  0.00  0.00    +0.000 OA
BRANCH  13  14
ATOM     14  C   UNL     1      43.955   4.342   9.085  0.00  0.00    +0.000 C 
BRANCH  14  15
ATOM     15  C   UNL     1      45.472   4.265   8.932  0.00  0.00    +0.000 C 
BRANCH  15  20
ATOM     16  C   UNL     1      46.958   2.070   6.160  0.00  0.00    +0.000 A 
ATOM     17  C   UNL     1      46.942   0.810   6.766  0.00  0.00    +0.000 A 
ATOM     18  C   UNL     1      46.384   0.646   8.028  0.00  0.00    +0.000 A 
ATOM     19  C   UNL     1      45.870   1.750   8.716  0.00  0.00    +0.000 A 
ATOM     20  C   UNL     1      45.920   3.037   8.157  0.00  0.00    +0.000 A 
ATOM     21  C   UNL     1      46.447   3.179   6.862  0.00  0.00    +0.000 A 
BRANCH  16  23
ATOM     22  C   UNL     1      46.886   1.327   3.762  0.00  0.00    +0.000 C 
ATOM     23  C   UNL     1      47.556   2.231   4.786  0.00  0.00    +0.000 C 
ENDBRANCH  16  23
ENDBRANCH  15  20
ENDBRANCH  14  15
ENDBRANCH  13  14
ENDBRANCH   1  13
TORSDOF 6
ENDMDL
MODEL 5
REMARK VINA RESULT:    -6.386      2.647      3.789
REMARK INTER + INTRA:          -9.566
REMARK INTER:                  -9.007
REMARK INTRA:                  -0.559
REMARK UNBOUND:                -0.939
REMARK  Name = 
REMARK  7 active torsions:
REMARK  status: ('A' for Active; 'I' for Inactive)
REMARK    1  A    between atoms: C_1  and  C_2
REMARK    2  A    between atoms: C_2  and  C_3
REMARK    3  A    between atoms: C_7  and  C_8
REMARK    4  A    between atoms: C_8  and  C_9
REMARK    5  A    between atoms: C_9  and  O_10
REMARK    6  A    between atoms: O_10  and  C_11
REMARK    7  A    between atoms: C_14  and  C_15
REMARK                            x       y       z     vdW  Elec       q    Type
REMARK                         _______ _______ _______ _____ _____    ______ ____
ROOT
ATOM      1  C   UNL     1      47.391   5.723  13.950  0.00  0.00    +0.000 A 
ATOM      2  C   UNL     1      46.861   4.449  14.137  0.00  0.00    +0.000 A 
ATOM      3  N   UNL     1      46.994   3.681  15.227  0.00  0.00    +0.000 NA
ATOM      4  C   UNL     1      47.754   4.199  16.235  0.00  0.00    +0.000 A 
ATOM      5  C   UNL     1      48.347   5.455  16.160  0.00  0.00    +0.000 A 
ATOM      6  C   UNL     1      48.151   6.230  15.021  0.00  0.00    +0.000 A 
ATOM      7 CL   UNL     1      48.774   7.837  15.070  0.00  0.00    +0.000 Cl
ENDROOT
BRANCH   4   8
ATOM      8  C   UNL     1      47.912   3.382  17.450  0.00  0.00    +0.000 C 
ATOM      9  N   UNL     1      46.813   2.701  17.875  0.00  0.00    +0.000 N 
ATOM     10  O   UNL     1      48.978   3.321  18.069  0.00  0.00    +0.000 OA
ATOM     11  H   UNL     1      45.935   2.789  17.372  0.00  0.00    +0.000 HD
ATOM     12  H   UNL     1      46.860   2.159  18.729  0.00  0.00    +0.000 HD
ENDBRANCH   4   8
BRANCH   1  13
ATOM     13  O   UNL     1      47.143   6.417  12.784  0.00  0.00    +0.000 OA
BRANCH  13  14
ATOM     14  C   UNL     1      45.743   6.347  12.414  0.00  0.00    +0.000 C 
BRANCH  14  15
ATOM     15  C   UNL     1      45.509   6.467  10.911  0.00  0.00    +0.000 C 
BRANCH  15  20
ATOM     16  C   UNL     1      45.502   3.605   8.357  0.00  0.00    +0.000 A 
ATOM     17  C   UNL     1      44.871   2.589   9.081  0.00  0.00    +0.000 A 
ATOM     18  C   UNL     1      44.375   2.840  10.355  0.00  0.00    +0.000 A 
ATOM     19  C   UNL     1      44.541   4.102  10.935  0.00  0.00    +0.000 A 
ATOM     20  C   UNL     1      45.218   5.127  10.255  0.00  0.00    +0.000 A 
ATOM     21  C   UNL     1      45.673   4.871   8.951  0.00  0.00    +0.000 A 
BRANCH  16  23
ATOM     22  C   UNL     1      47.266   2.446   6.995  0.00  0.00    +0.000 C 
ATOM     23  C   UNL     1      46.023   3.322   6.971  0.00  0.00    +0.000 C 
ENDBRANCH  16  23
ENDBRANCH  15  20
ENDBRANCH  14  15
ENDBRANCH  13  14
ENDBRANCH   1  13
TORSDOF 6
ENDMDL
MODEL 6
REMARK VINA RESULT:    -6.132      4.111      5.435
REMARK INTER + INTRA:          -9.223
REMARK INTER:                  -8.803
REMARK INTRA:                  -0.420
REMARK UNBOUND:                -0.939
REMARK  Name = 
REMARK  7 active torsions:
REMARK  status: ('A' for Active; 'I' for Inactive)
REMARK    1  A    between atoms: C_1  and  C_2
REMARK    2  A    between atoms: C_2  and  C_3
REMARK    3  A    between atoms: C_7  and  C_8
REMARK    4  A    between atoms: C_8  and  C_9
REMARK    5  A    between atoms: C_9  and  O_10
REMARK    6  A    between atoms: O_10  and  C_11
REMARK    7  A    between atoms: C_14  and  C_15
REMARK                            x       y       z     vdW  Elec       q    Type
REMARK                         _______ _______ _______ _____ _____    ______ ____
ROOT
ATOM      1  C   UNL     1      47.991   3.546  16.386  0.00  0.00    +0.000 A 
ATOM      2  C   UNL     1      48.484   2.340  15.893  0.00  0.00    +0.000 A 
ATOM      3  N   UNL     1      49.614   1.725  16.270  0.00  0.00    +0.000 NA
ATOM      4  C   UNL     1      50.361   2.372  17.210  0.00  0.00    +0.000 A 
ATOM      5  C   UNL     1      49.980   3.588  17.769  0.00  0.00    +0.000 A 
ATOM      6  C   UNL     1      48.781   4.171  17.370  0.00  0.00    +0.000 A 
ATOM      7 CL   UNL     1      48.293   5.586  18.224  0.00  0.00    +0.000 Cl
ENDROOT
BRANCH   4   8
ATOM      8  C   UNL     1      51.604   1.717  17.652  0.00  0.00    +0.000 C 
ATOM      9  N   UNL     1      51.508   0.412  18.022  0.00  0.00    +0.000 N 
ATOM     10  O   UNL     1      52.682   2.317  17.704  0.00  0.00    +0.000 OA
ATOM     11  H   UNL     1      50.606  -0.056  18.005  0.00  0.00    +0.000 HD
ATOM     12  H   UNL     1      52.326  -0.071  18.373  0.00  0.00    +0.000 HD
ENDBRANCH   4   8
BRANCH   1  13
ATOM     13  O   UNL     1      46.790   4.047  15.929  0.00  0.00    +0.000 OA
BRANCH  13  14
ATOM     14  C   UNL     1      46.748   4.084  14.481  0.00  0.00    +0.000 C 
BRANCH  14  15
ATOM     15  C   UNL     1      46.250   5.416  13.925  0.00  0.00    +0.000 C 
BRANCH  15  20
ATOM     16  C   UNL     1      44.868   4.894  10.385  0.00  0.00    +0.000 A 
ATOM     17  C   UNL     1      43.505   4.719  10.643  0.00  0.00    +0.000 A 
ATOM     18  C   UNL     1      43.014   4.846  11.937  0.00  0.00    +0.000 A 
ATOM     19  C   UNL     1      43.889   5.112  12.996  0.00  0.00    +0.000 A 
ATOM     20  C   UNL     1      45.270   5.241  12.776  0.00  0.00    +0.000 A 
ATOM     21  C   UNL     1      45.744   5.154  11.457  0.00  0.00    +0.000 A 
BRANCH  16  23
ATOM     22  C   UNL     1      44.791   3.564   8.256  0.00  0.00    +0.000 C 
ATOM     23  C   UNL     1      45.384   4.766   8.975  0.00  0.00    +0.000 C 
ENDBRANCH  16  23
ENDBRANCH  15  20
ENDBRANCH  14  15
ENDBRANCH  13  14
ENDBRANCH   1  13
TORSDOF 6
ENDMDL
MODEL 7
REMARK VINA RESULT:    -6.007      2.595      4.182
REMARK INTER + INTRA:          -9.053
REMARK INTER:                  -7.975
REMARK INTRA:                  -1.078
REMARK UNBOUND:                -0.939
REMARK  Name = 
REMARK  7 active torsions:
REMARK  status: ('A' for Active; 'I' for Inactive)
REMARK    1  A    between atoms: C_1  and  C_2
REMARK    2  A    between atoms: C_2  and  C_3
REMARK    3  A    between atoms: C_7  and  C_8
REMARK    4  A    between atoms: C_8  and  C_9
REMARK    5  A    between atoms: C_9  and  O_10
REMARK    6  A    between atoms: O_10  and  C_11
REMARK    7  A    between atoms: C_14  and  C_15
REMARK                            x       y       z     vdW  Elec       q    Type
REMARK                         _______ _______ _______ _____ _____    ______ ____
ROOT
ATOM      1  C   UNL     1      47.541   5.681  13.919  0.00  0.00    +0.000 A 
ATOM      2  C   UNL     1      48.188   6.459  14.875  0.00  0.00    +0.000 A 
ATOM      3  N   UNL     1      48.464   6.106  16.139  0.00  0.00    +0.000 NA
ATOM      4  C   UNL     1      48.033   4.870  16.522  0.00  0.00    +0.000 A 
ATOM      5  C   UNL     1      47.364   4.007  15.661  0.00  0.00    +0.000 A 
ATOM      6  C   UNL     1      47.131   4.404  14.348  0.00  0.00    +0.000 A 
ATOM      7 CL   UNL     1      46.449   3.221  13.296  0.00  0.00    +0.000 Cl
ENDROOT
BRANCH   4   8
ATOM      8  C   UNL     1      48.328   4.450  17.902  0.00  0.00    +0.000 C 
ATOM      9  N   UNL     1      47.429   4.813  18.856  0.00  0.00    +0.000 N 
ATOM     10  O   UNL     1      49.346   3.814  18.194  0.00  0.00    +0.000 OA
ATOM     11  H   UNL     1      46.615   5.365  18.603  0.00  0.00    +0.000 HD
ATOM     12  H   UNL     1      47.608   4.583  19.826  0.00  0.00    +0.000 HD
ENDBRANCH   4   8
BRANCH   1  13
ATOM     13  O   UNL     1      47.355   6.161  12.639  0.00  0.00    +0.000 OA
BRANCH  13  14
ATOM     14  C   UNL     1      46.347   7.202  12.605  0.00  0.00    +0.000 C 
BRANCH  14  15
ATOM     15  C   UNL     1      45.406   7.093  11.407  0.00  0.00    +0.000 C 
BRANCH  15  20
ATOM     16  C   UNL     1      44.274   3.595  10.315  0.00  0.00    +0.000 A 
ATOM     17  C   UNL     1      43.433   3.234  11.372  0.00  0.00    +0.000 A 
ATOM     18  C   UNL     1      43.163   4.136  12.394  0.00  0.00    +0.000 A 
ATOM     19  C   UNL     1      43.765   5.399  12.391  0.00  0.00    +0.000 A 
ATOM     20  C   UNL     1      44.655   5.772  11.371  0.00  0.00    +0.000 A 
ATOM     21  C   UNL     1      44.882   4.865  10.322  0.00  0.00    +0.000 A 
BRANCH  16  23
ATOM     22  C   UNL     1      45.261   3.257   8.031  0.00  0.00    +0.000 C 
ATOM     23  C   UNL     1      44.547   2.611   9.207  0.00  0.00    +0.000 C 
ENDBRANCH  16  23
ENDBRANCH  15  20
ENDBRANCH  14  15
ENDBRANCH  13  14
ENDBRANCH   1  13
TORSDOF 6
ENDMDL
MODEL 8
REMARK VINA RESULT:    -5.907      1.638      2.403
REMARK INTER + INTRA:          -8.919
REMARK INTER:                  -8.315
REMARK INTRA:                  -0.604
REMARK UNBOUND:                -0.939
REMARK  Name = 
REMARK  7 active torsions:
REMARK  status: ('A' for Active; 'I' for Inactive)
REMARK    1  A    between atoms: C_1  and  C_2
REMARK    2  A    between atoms: C_2  and  C_3
REMARK    3  A    between atoms: C_7  and  C_8
REMARK    4  A    between atoms: C_8  and  C_9
REMARK    5  A    between atoms: C_9  and  O_10
REMARK    6  A    between atoms: O_10  and  C_11
REMARK    7  A    between atoms: C_14  and  C_15
REMARK                            x       y       z     vdW  Elec       q    Type
REMARK                         _______ _______ _______ _____ _____    ______ ____
ROOT
ATOM      1  C   UNL     1      46.501   6.992  12.927  0.00  0.00    +0.000 A 
ATOM      2  C   UNL     1      47.568   6.131  13.173  0.00  0.00    +0.000 A 
ATOM      3  N   UNL     1      48.872   6.434  13.098  0.00  0.00    +0.000 NA
ATOM      4  C   UNL     1      49.169   7.708  12.712  0.00  0.00    +0.000 A 
ATOM      5  C   UNL     1      48.191   8.655  12.427  0.00  0.00    +0.000 A 
ATOM      6  C   UNL     1      46.850   8.303  12.552  0.00  0.00    +0.000 A 
ATOM      7 CL   UNL     1      45.701   9.572  12.348  0.00  0.00    +0.000 Cl
ENDROOT
BRANCH   4   8
ATOM      8  C   UNL     1      50.593   8.074  12.629  0.00  0.00    +0.000 C 
ATOM      9  N   UNL     1      51.240   7.749  11.478  0.00  0.00    +0.000 N 
ATOM     10  O   UNL     1      51.185   8.634  13.557  0.00  0.00    +0.000 OA
ATOM     11  H   UNL     1      50.746   7.259  10.738  0.00  0.00    +0.000 HD
ATOM     12  H   UNL     1      52.230   7.942  11.389  0.00  0.00    +0.000 HD
ENDBRANCH   4   8
BRANCH   1  13
ATOM     13  O   UNL     1      45.203   6.552  13.078  0.00  0.00    +0.000 OA
BRANCH  13  14
ATOM     14  C   UNL     1      44.939   5.388  12.255  0.00  0.00    +0.000 C 
BRANCH  14  15
ATOM     15  C   UNL     1      44.831   5.712  10.767  0.00  0.00    +0.000 C 
BRANCH  15  20
ATOM     16  C   UNL     1      45.793   3.314   7.932  0.00  0.00    +0.000 A 
ATOM     17  C   UNL     1      45.180   2.129   8.351  0.00  0.00    +0.000 A 
ATOM     18  C   UNL     1      44.394   2.114   9.496  0.00  0.00    +0.000 A 
ATOM     19  C   UNL     1      44.243   3.277  10.259  0.00  0.00    +0.000 A 
ATOM     20  C   UNL     1      44.889   4.469   9.893  0.00  0.00    +0.000 A 
ATOM     21  C   UNL     1      45.644   4.480   8.708  0.00  0.00    +0.000 A 
BRANCH  16  23
ATOM     22  C   UNL     1      47.827   2.382   6.789  0.00  0.00    +0.000 C 
ATOM     23  C   UNL     1      46.633   3.319   6.680  0.00  0.00    +0.000 C 
ENDBRANCH  16  23
ENDBRANCH  15  20
ENDBRANCH  14  15
ENDBRANCH  13  14
ENDBRANCH   1  13
TORSDOF 6
ENDMDL
MODEL 9
REMARK VINA RESULT:    -5.790      4.454      7.579
REMARK INTER + INTRA:          -8.760
REMARK INTER:                  -8.315
REMARK INTRA:                  -0.445
REMARK UNBOUND:                -0.939
REMARK  Name = 
REMARK  7 active torsions:
REMARK  status: ('A' for Active; 'I' for Inactive)
REMARK    1  A    between atoms: C_1  and  C_2
REMARK    2  A    between atoms: C_2  and  C_3
REMARK    3  A    between atoms: C_7  and  C_8
REMARK    4  A    between atoms: C_8  and  C_9
REMARK    5  A    between atoms: C_9  and  O_10
REMARK    6  A    between atoms: O_10  and  C_11
REMARK    7  A    between atoms: C_14  and  C_15
REMARK                            x       y       z     vdW  Elec       q    Type
REMARK                         _______ _______ _______ _____ _____    ______ ____
ROOT
ATOM      1  C   UNL     1      46.845   4.896  13.624  0.00  0.00    +0.000 A 
ATOM      2  C   UNL     1      45.764   4.018  13.589  0.00  0.00    +0.000 A 
ATOM      3  N   UNL     1      44.755   4.028  12.706  0.00  0.00    +0.000 NA
ATOM      4  C   UNL     1      44.787   5.022  11.773  0.00  0.00    +0.000 A 
ATOM      5  C   UNL     1      45.807   5.966  11.714  0.00  0.00    +0.000 A 
ATOM      6  C   UNL     1      46.851   5.895  12.631  0.00  0.00    +0.000 A 
ATOM      7 CL   UNL     1      48.160   6.990  12.392  0.00  0.00    +0.000 Cl
ENDROOT
BRANCH   4   8
ATOM      8  C   UNL     1      43.697   5.054  10.784  0.00  0.00    +0.000 C 
ATOM      9  N   UNL     1      44.011   4.670   9.517  0.00  0.00    +0.000 N 
ATOM     10  O   UNL     1      42.555   5.424  11.073  0.00  0.00    +0.000 OA
ATOM     11  H   UNL     1      44.963   4.401   9.289  0.00  0.00    +0.000 HD
ATOM     12  H   UNL     1      43.306   4.714   8.791  0.00  0.00    +0.000 HD
ENDBRANCH   4   8
BRANCH   1  13
ATOM     13  O   UNL     1      47.835   4.746  14.573  0.00  0.00    +0.000 OA
BRANCH  13  14
ATOM     14  C   UNL     1      47.275   4.504  15.888  0.00  0.00    +0.000 C 
BRANCH  14  15
ATOM     15  C   UNL     1      47.747   3.195  16.514  0.00  0.00    +0.000 C 
BRANCH  15  20
ATOM     16  C   UNL     1      51.317   2.214  17.519  0.00  0.00    +0.000 A 
ATOM     17  C   UNL     1      51.851   3.452  17.888  0.00  0.00    +0.000 A 
ATOM     18  C   UNL     1      51.050   4.587  17.894  0.00  0.00    +0.000 A 
ATOM     19  C   UNL     1      49.713   4.504  17.491  0.00  0.00    +0.000 A 
ATOM     20  C   UNL     1      49.162   3.285  17.063  0.00  0.00    +0.000 A 
ATOM     21  C   UNL     1      49.972   2.138  17.107  0.00  0.00    +0.000 A 
BRANCH  16  23
ATOM     22  C   UNL     1      53.673   1.343  17.536  0.00  0.00    +0.000 C 
ATOM     23  C   UNL     1      52.194   0.988  17.530  0.00  0.00    +0.000 C 
ENDBRANCH  16  23
ENDBRANCH  15  20
ENDBRANCH  14  15
ENDBRANCH  13  14
ENDBRANCH   1  13
TORSDOF 6
ENDMDL
