MODEL 1
REMARK VINA RESULT:    -8.343      0.000      0.000
REMARK INTER + INTRA:         -11.286
REMARK INTER:                 -10.782
REMARK INTRA:                  -0.505
REMARK UNBOUND:                -0.505
REMARK  Name = 
REMARK  6 active torsions:
REMARK  status: ('A' for Active; 'I' for Inactive)
REMARK    1  A    between atoms: C_1  and  C_2
REMARK    2  A    between atoms: N_7  and  C_8
REMARK    3  A    between atoms: C_8  and  C_9
REMARK    4  A    between atoms: C_12  and  C_13
REMARK    5  A    between atoms: C_13  and  N_14
REMARK    6  A    between atoms: C_15  and  C_17
REMARK                            x       y       z     vdW  Elec       q    Type
REMARK                         _______ _______ _______ _____ _____    ______ ____
ROOT
ATOM      1  C   UNL     1      44.976   5.102  11.365  0.00  0.00    +0.000 A 
ATOM      2  C   UNL     1      45.505   6.335  10.957  0.00  0.00    +0.000 A 
ATOM      3  C   UNL     1      46.566   6.926  11.656  0.00  0.00    +0.000 A 
ATOM      4  C   UNL     1      47.135   6.286  12.765  0.00  0.00    +0.000 A 
ATOM      5  C   UNL     1      46.603   5.059  13.179  0.00  0.00    +0.000 A 
ATOM      6  C   UNL     1      45.544   4.468  12.480  0.00  0.00    +0.000 A 
ENDROOT
BRANCH   1   7
ATOM      7  C   UNL     1      43.822   4.466  10.616  0.00  0.00    +0.000 C 
BRANCH   7  14
ATOM      8  C   UNL     1      46.831   0.230   7.543  0.00  0.00    +0.000 C 
ATOM      9  C   UNL     1      46.369   1.629   7.822  0.00  0.00    +0.000 A 
ATOM     10  C   UNL     1      46.722   2.669   6.991  0.00  0.00    +0.000 A 
ATOM     11  C   UNL     1      46.204   3.896   7.326  0.00  0.00    +0.000 A 
ATOM     12  N   UNL     1      45.383   4.100   8.374  0.00  0.00    +0.000 NA
ATOM     13  C   UNL     1      45.078   3.033   9.126  0.00  0.00    +0.000 A 
ATOM     14  N   UNL     1      44.185   3.143  10.170  0.00  0.00    +0.000 N 
ATOM     15  N   UNL     1      45.572   1.805   8.901  0.00  0.00    +0.000 NA
ATOM     16  H   UNL     1      44.353   2.427  10.862  0.00  0.00    +0.000 HD
ENDBRANCH   7  14
ENDBRANCH   1   7
BRANCH   4  17
ATOM     17  C   UNL     1      48.291   6.910  13.506  0.00  0.00    +0.000 C 
BRANCH  17  18
ATOM     18  N   UNL     1      48.067   6.944  14.927  0.00  0.00    +0.000 N 
ATOM     19  C   UNL     1      49.108   6.784  15.812  0.00  0.00    +0.000 C 
ATOM     20  O   UNL     1      50.270   6.671  15.427  0.00  0.00    +0.000 OA
ATOM     21  H   UNL     1      47.111   6.808  15.250  0.00  0.00    +0.000 HD
BRANCH  19  22
ATOM     22  C   UNL     1      48.776   6.800  17.241  0.00  0.00    +0.000 A 
ATOM     23  C   UNL     1      48.362   7.985  17.836  0.00  0.00    +0.000 A 
ATOM     24  S   UNL     1      47.975   7.824  19.488  0.00  0.00    +0.000 S 
ATOM     25  C   UNL     1      48.395   6.176  19.482  0.00  0.00    +0.000 A 
ATOM     26  N   UNL     1      48.313   5.431  20.617  0.00  0.00    +0.000 NA
ATOM     27  C   UNL     1      48.693   4.204  20.477  0.00  0.00    +0.000 A 
ATOM     28  N   UNL     1      49.142   3.655  19.303  0.00  0.00    +0.000 N 
ATOM     29  C   UNL     1      49.211   4.361  18.126  0.00  0.00    +0.000 A 
ATOM     30  O   UNL     1      49.574   3.827  17.083  0.00  0.00    +0.000 OA
ATOM     31  C   UNL     1      48.806   5.749  18.232  0.00  0.00    +0.000 A 
ATOM     32  H   UNL     1      49.417   2.686  19.258  0.00  0.00    +0.000 HD
ENDBRANCH  19  22
ENDBRANCH  17  18
ENDBRANCH   4  17
TORSDOF 5
ENDMDL
MODEL 2
REMARK VINA RESULT:    -8.174      1.340      2.052
REMARK INTER + INTRA:         -11.068
REMARK INTER:                 -10.364
REMARK INTRA:                  -0.704
REMARK UNBOUND:                -0.505
REMARK  Name = 
REMARK  6 active torsions:
REMARK  status: ('A' for Active; 'I' for Inactive)
REMARK    1  A    between atoms: C_1  and  C_2
REMARK    2  A    between atoms: N_7  and  C_8
REMARK    3  A    between atoms: C_8  and  C_9
REMARK    4  A    between atoms: C_12  and  C_13
REMARK    5  A    between atoms: C_13  and  N_14
REMARK    6  A    between atoms: C_15  and  C_17
REMARK                            x       y       z     vdW  Elec       q    Type
REMARK                         _______ _______ _______ _____ _____    ______ ____
ROOT
ATOM      1  C   UNL     1      45.055   4.997  11.403  0.00  0.00    +0.000 A 
ATOM      2  C   UNL     1      45.684   6.182  10.994  0.00  0.00    +0.000 A 
ATOM      3  C   UNL     1      46.698   6.759  11.769  0.00  0.00    +0.000 A 
ATOM      4  C   UNL     1      47.123   6.151  12.958  0.00  0.00    +0.000 A 
ATOM      5  C   UNL     1      46.491   4.972  13.372  0.00  0.00    +0.000 A 
ATOM      6  C   UNL     1      45.478   4.395  12.597  0.00  0.00    +0.000 A 
ENDROOT
BRANCH   1   7
ATOM      7  C   UNL     1      43.950   4.377  10.571  0.00  0.00    +0.000 C 
BRANCH   7  14
ATOM      8  C   UNL     1      46.969   0.175   7.461  0.00  0.00    +0.000 C 
ATOM      9  C   UNL     1      46.477   1.565   7.734  0.00  0.00    +0.000 A 
ATOM     10  C   UNL     1      46.772   2.600   6.875  0.00  0.00    +0.000 A 
ATOM     11  C   UNL     1      46.231   3.818   7.208  0.00  0.00    +0.000 A 
ATOM     12  N   UNL     1      45.441   4.017   8.281  0.00  0.00    +0.000 NA
ATOM     13  C   UNL     1      45.194   2.955   9.060  0.00  0.00    +0.000 A 
ATOM     14  N   UNL     1      44.335   3.057  10.134  0.00  0.00    +0.000 N 
ATOM     15  N   UNL     1      45.714   1.738   8.838  0.00  0.00    +0.000 NA
ATOM     16  H   UNL     1      44.548   2.358  10.831  0.00  0.00    +0.000 HD
ENDBRANCH   7  14
ENDBRANCH   1   7
BRANCH   4  17
ATOM     17  C   UNL     1      48.230   6.757  13.783  0.00  0.00    +0.000 C 
BRANCH  17  18
ATOM     18  N   UNL     1      48.042   6.529  15.192  0.00  0.00    +0.000 N 
ATOM     19  C   UNL     1      49.120   6.383  16.034  0.00  0.00    +0.000 C 
ATOM     20  O   UNL     1      50.275   6.506  15.632  0.00  0.00    +0.000 OA
ATOM     21  H   UNL     1      47.125   6.203  15.491  0.00  0.00    +0.000 HD
BRANCH  19  22
ATOM     22  C   UNL     1      48.829   6.119  17.448  0.00  0.00    +0.000 A 
ATOM     23  C   UNL     1      49.041   4.849  17.968  0.00  0.00    +0.000 A 
ATOM     24  S   UNL     1      48.694   4.722  19.632  0.00  0.00    +0.000 S 
ATOM     25  C   UNL     1      48.199   6.348  19.708  0.00  0.00    +0.000 A 
ATOM     26  N   UNL     1      47.749   6.886  20.874  0.00  0.00    +0.000 NA
ATOM     27  C   UNL     1      47.376   8.119  20.781  0.00  0.00    +0.000 A 
ATOM     28  N   UNL     1      47.417   8.863  19.630  0.00  0.00    +0.000 N 
ATOM     29  C   UNL     1      47.894   8.371  18.438  0.00  0.00    +0.000 A 
ATOM     30  O   UNL     1      47.960   9.077  17.438  0.00  0.00    +0.000 OA
ATOM     31  C   UNL     1      48.315   6.984  18.486  0.00  0.00    +0.000 A 
ATOM     32  H   UNL     1      47.117   9.826  19.626  0.00  0.00    +0.000 HD
ENDBRANCH  19  22
ENDBRANCH  17  18
ENDBRANCH   4  17
TORSDOF 5
ENDMDL
MODEL 3
REMARK VINA RESULT:    -7.911      4.559      9.490
REMARK INTER + INTRA:         -10.728
REMARK INTER:                 -10.050
REMARK INTRA:                  -0.678
REMARK UNBOUND:                -0.505
REMARK  Name = 
REMARK  6 active torsions:
REMARK  status: ('A' for Active; 'I' for Inactive)
REMARK    1  A    between atoms: C_1  and  C_2
REMARK    2  A    between atoms: N_7  and  C_8
REMARK    3  A    between atoms: C_8  and  C_9
REMARK    4  A    between atoms: C_12  and  C_13
REMARK    5  A    between atoms: C_13  and  N_14
REMARK    6  A    between atoms: C_15  and  C_17
REMARK                            x       y       z     vdW  Elec       q    Type
REMARK                         _______ _______ _______ _____ _____    ______ ____
ROOT
ATOM      1  C   UNL     1      51.540   3.236  17.748  0.00  0.00    +0.000 A 
ATOM      2  C   UNL     1      50.906   4.466  17.976  0.00  0.00    +0.000 A 
ATOM      3  C   UNL     1      49.531   4.615  17.750  0.00  0.00    +0.000 A 
ATOM      4  C   UNL     1      48.757   3.532  17.312  0.00  0.00    +0.000 A 
ATOM      5  C   UNL     1      49.391   2.306  17.077  0.00  0.00    +0.000 A 
ATOM      6  C   UNL     1      50.764   2.156  17.304  0.00  0.00    +0.000 A 
ENDROOT
BRANCH   1   7
ATOM      7  C   UNL     1      53.029   3.075  17.983  0.00  0.00    +0.000 C 
BRANCH   7  14
ATOM      8  C   UNL     1      55.223  -2.247  19.800  0.00  0.00    +0.000 C 
ATOM      9  C   UNL     1      54.837  -1.219  18.779  0.00  0.00    +0.000 A 
ATOM     10  C   UNL     1      54.977  -1.472  17.433  0.00  0.00    +0.000 A 
ATOM     11  C   UNL     1      54.551  -0.471  16.595  0.00  0.00    +0.000 A 
ATOM     12  N   UNL     1      54.006   0.683  17.025  0.00  0.00    +0.000 NA
ATOM     13  C   UNL     1      53.894   0.847  18.351  0.00  0.00    +0.000 A 
ATOM     14  N   UNL     1      53.278   1.966  18.870  0.00  0.00    +0.000 N 
ATOM     15  N   UNL     1      54.323  -0.057  19.246  0.00  0.00    +0.000 NA
ATOM     16  H   UNL     1      53.610   2.156  19.805  0.00  0.00    +0.000 HD
ENDBRANCH   7  14
ENDBRANCH   1   7
BRANCH   4  17
ATOM     17  C   UNL     1      47.274   3.684  17.088  0.00  0.00    +0.000 C 
BRANCH  17  18
ATOM     18  N   UNL     1      46.978   4.631  16.046  0.00  0.00    +0.000 N 
ATOM     19  C   UNL     1      47.074   4.276  14.720  0.00  0.00    +0.000 C 
ATOM     20  O   UNL     1      47.350   3.128  14.377  0.00  0.00    +0.000 OA
ATOM     21  H   UNL     1      46.975   5.617  16.301  0.00  0.00    +0.000 HD
BRANCH  19  22
ATOM     22  C   UNL     1      46.785   5.319  13.729  0.00  0.00    +0.000 A 
ATOM     23  C   UNL     1      47.750   6.275  13.438  0.00  0.00    +0.000 A 
ATOM     24  S   UNL     1      47.272   7.387  12.237  0.00  0.00    +0.000 S 
ATOM     25  C   UNL     1      45.739   6.663  12.099  0.00  0.00    +0.000 A 
ATOM     26  N   UNL     1      44.810   7.158  11.238  0.00  0.00    +0.000 NA
ATOM     27  C   UNL     1      43.680   6.532  11.258  0.00  0.00    +0.000 A 
ATOM     28  N   UNL     1      43.399   5.454  12.058  0.00  0.00    +0.000 N 
ATOM     29  C   UNL     1      44.317   4.901  12.919  0.00  0.00    +0.000 A 
ATOM     30  O   UNL     1      44.048   3.909  13.587  0.00  0.00    +0.000 OA
ATOM     31  C   UNL     1      45.601   5.576  12.943  0.00  0.00    +0.000 A 
ATOM     32  H   UNL     1      42.497   5.004  12.021  0.00  0.00    +0.000 HD
ENDBRANCH  19  22
ENDBRANCH  17  18
ENDBRANCH   4  17
TORSDOF 5
ENDMDL
MODEL 4
REMARK VINA RESULT:    -7.734      1.497      2.106
REMARK INTER + INTRA:         -10.499
REMARK INTER:                  -9.520
REMARK INTRA:                  -0.979
REMARK UNBOUND:                -0.505
REMARK  Name = 
REMARK  6 active torsions:
REMARK  status: ('A' for Active; 'I' for Inactive)
REMARK    1  A    between atoms: C_1  and  C_2
REMARK    2  A    between atoms: N_7  and  C_8
REMARK    3  A    between atoms: C_8  and  C_9
REMARK    4  A    between atoms: C_12  and  C_13
REMARK    5  A    between atoms: C_13  and  N_14
REMARK    6  A    between atoms: C_15  and  C_17
REMARK                            x       y       z     vdW  Elec       q    Type
REMARK                         _______ _______ _______ _____ _____    ______ ____
ROOT
ATOM      1  C   UNL     1      45.510   6.655  11.502  0.00  0.00    +0.000 A 
ATOM      2  C   UNL     1      46.755   6.203  11.961  0.00  0.00    +0.000 A 
ATOM      3  C   UNL     1      47.501   6.962  12.872  0.00  0.00    +0.000 A 
ATOM      4  C   UNL     1      47.008   8.179  13.361  0.00  0.00    +0.000 A 
ATOM      5  C   UNL     1      45.768   8.635  12.897  0.00  0.00    +0.000 A 
ATOM      6  C   UNL     1      45.022   7.876  11.987  0.00  0.00    +0.000 A 
ENDROOT
BRANCH   1   7
ATOM      7  C   UNL     1      44.706   5.839  10.508  0.00  0.00    +0.000 C 
BRANCH   7  14
ATOM      8  C   UNL     1      46.953   2.842   5.775  0.00  0.00    +0.000 C 
ATOM      9  C   UNL     1      46.301   2.955   7.120  0.00  0.00    +0.000 A 
ATOM     10  C   UNL     1      45.975   1.830   7.845  0.00  0.00    +0.000 A 
ATOM     11  C   UNL     1      45.421   2.061   9.080  0.00  0.00    +0.000 A 
ATOM     12  N   UNL     1      45.219   3.292   9.590  0.00  0.00    +0.000 NA
ATOM     13  C   UNL     1      45.574   4.334   8.826  0.00  0.00    +0.000 A 
ATOM     14  N   UNL     1      45.471   5.623   9.305  0.00  0.00    +0.000 N 
ATOM     15  N   UNL     1      46.082   4.205   7.590  0.00  0.00    +0.000 NA
ATOM     16  H   UNL     1      45.376   6.280   8.544  0.00  0.00    +0.000 HD
ENDBRANCH   7  14
ENDBRANCH   1   7
BRANCH   4  17
ATOM     17  C   UNL     1      47.798   8.988  14.358  0.00  0.00    +0.000 C 
BRANCH  17  18
ATOM     18  N   UNL     1      48.064   8.250  15.565  0.00  0.00    +0.000 N 
ATOM     19  C   UNL     1      49.338   7.831  15.871  0.00  0.00    +0.000 C 
ATOM     20  O   UNL     1      50.301   8.125  15.166  0.00  0.00    +0.000 OA
ATOM     21  H   UNL     1      47.269   7.813  16.027  0.00  0.00    +0.000 HD
BRANCH  19  22
ATOM     22  C   UNL     1      49.505   7.057  17.106  0.00  0.00    +0.000 A 
ATOM     23  C   UNL     1      50.217   7.601  18.167  0.00  0.00    +0.000 A 
ATOM     24  S   UNL     1      50.282   6.592  19.539  0.00  0.00    +0.000 S 
ATOM     25  C   UNL     1      49.404   5.368  18.748  0.00  0.00    +0.000 A 
ATOM     26  N   UNL     1      49.126   4.193  19.375  0.00  0.00    +0.000 NA
ATOM     27  C   UNL     1      48.481   3.343  18.647  0.00  0.00    +0.000 A 
ATOM     28  N   UNL     1      48.086   3.564  17.353  0.00  0.00    +0.000 N 
ATOM     29  C   UNL     1      48.316   4.747  16.692  0.00  0.00    +0.000 A 
ATOM     30  O   UNL     1      47.909   4.928  15.549  0.00  0.00    +0.000 OA
ATOM     31  C   UNL     1      49.049   5.733  17.462  0.00  0.00    +0.000 A 
ATOM     32  H   UNL     1      47.578   2.859  16.840  0.00  0.00    +0.000 HD
ENDBRANCH  19  22
ENDBRANCH  17  18
ENDBRANCH   4  17
TORSDOF 5
ENDMDL
MODEL 5
REMARK VINA RESULT:    -7.720      1.881      2.035
REMARK INTER + INTRA:         -10.482
REMARK INTER:                  -9.822
REMARK INTRA:                  -0.659
REMARK UNBOUND:                -0.505
REMARK  Name = 
REMARK  6 active torsions:
REMARK  status: ('A' for Active; 'I' for Inactive)
REMARK    1  A    between atoms: C_1  and  C_2
REMARK    2  A    between atoms: N_7  and  C_8
REMARK    3  A    between atoms: C_8  and  C_9
REMARK    4  A    between atoms: C_12  and  C_13
REMARK    5  A    between atoms: C_13  and  N_14
REMARK    6  A    between atoms: C_15  and  C_17
REMARK                            x       y       z     vdW  Elec       q    Type
REMARK                         _______ _______ _______ _____ _____    ______ ____
ROOT
ATOM      1  C   UNL     1      44.204   4.531  11.871  0.00  0.00    +0.000 A 
ATOM      2  C   UNL     1      44.066   5.887  11.539  0.00  0.00    +0.000 A 
ATOM      3  C   UNL     1      44.941   6.846  12.066  0.00  0.00    +0.000 A 
ATOM      4  C   UNL     1      45.986   6.468  12.919  0.00  0.00    +0.000 A 
ATOM      5  C   UNL     1      46.120   5.116  13.258  0.00  0.00    +0.000 A 
ATOM      6  C   UNL     1      45.247   4.157  12.731  0.00  0.00    +0.000 A 
ENDROOT
BRANCH   1   7
ATOM      7  C   UNL     1      43.253   3.493  11.309  0.00  0.00    +0.000 C 
BRANCH   7  14
ATOM      8  C   UNL     1      47.073   0.763   7.516  0.00  0.00    +0.000 C 
ATOM      9  C   UNL     1      46.189   1.885   7.972  0.00  0.00    +0.000 A 
ATOM     10  C   UNL     1      46.015   3.009   7.197  0.00  0.00    +0.000 A 
ATOM     11  C   UNL     1      45.149   3.948   7.701  0.00  0.00    +0.000 A 
ATOM     12  N   UNL     1      44.479   3.801   8.860  0.00  0.00    +0.000 NA
ATOM     13  C   UNL     1      44.696   2.673   9.550  0.00  0.00    +0.000 A 
ATOM     14  N   UNL     1      43.993   2.412  10.707  0.00  0.00    +0.000 N 
ATOM     15  N   UNL     1      45.556   1.720   9.157  0.00  0.00    +0.000 NA
ATOM     16  H   UNL     1      44.510   1.785  11.306  0.00  0.00    +0.000 HD
ENDBRANCH   7  14
ENDBRANCH   1   7
BRANCH   4  17
ATOM     17  C   UNL     1      46.942   7.495  13.471  0.00  0.00    +0.000 C 
BRANCH  17  18
ATOM     18  N   UNL     1      47.994   6.893  14.248  0.00  0.00    +0.000 N 
ATOM     19  C   UNL     1      48.710   7.632  15.162  0.00  0.00    +0.000 C 
ATOM     20  O   UNL     1      48.439   8.807  15.396  0.00  0.00    +0.000 OA
ATOM     21  H   UNL     1      48.373   6.010  13.911  0.00  0.00    +0.000 HD
BRANCH  19  22
ATOM     22  C   UNL     1      49.785   6.939  15.881  0.00  0.00    +0.000 A 
ATOM     23  C   UNL     1      51.070   7.466  15.869  0.00  0.00    +0.000 A 
ATOM     24  S   UNL     1      52.189   6.565  16.786  0.00  0.00    +0.000 S 
ATOM     25  C   UNL     1      51.009   5.410  17.193  0.00  0.00    +0.000 A 
ATOM     26  N   UNL     1      51.323   4.333  17.962  0.00  0.00    +0.000 NA
ATOM     27  C   UNL     1      50.340   3.520  18.166  0.00  0.00    +0.000 A 
ATOM     28  N   UNL     1      49.071   3.691  17.674  0.00  0.00    +0.000 N 
ATOM     29  C   UNL     1      48.701   4.779  16.921  0.00  0.00    +0.000 A 
ATOM     30  O   UNL     1      47.546   4.924  16.535  0.00  0.00    +0.000 OA
ATOM     31  C   UNL     1      49.773   5.717  16.652  0.00  0.00    +0.000 A 
ATOM     32  H   UNL     1      48.344   3.021  17.877  0.00  0.00    +0.000 HD
ENDBRANCH  19  22
ENDBRANCH  17  18
ENDBRANCH   4  17
TORSDOF 5
ENDMDL
MODEL 6
REMARK VINA RESULT:    -7.449      2.790      4.649
REMARK INTER + INTRA:         -10.132
REMARK INTER:                  -9.214
REMARK INTRA:                  -0.918
REMARK UNBOUND:                -0.505
REMARK  Name = 
REMARK  6 active torsions:
REMARK  status: ('A' for Active; 'I' for Inactive)
REMARK    1  A    between atoms: C_1  and  C_2
REMARK    2  A    between atoms: N_7  and  C_8
REMARK    3  A    between atoms: C_8  and  C_9
REMARK    4  A    between atoms: C_12  and  C_13
REMARK    5  A    between atoms: C_13  and  N_14
REMARK    6  A    between atoms: C_15  and  C_17
REMARK                            x       y       z     vdW  Elec       q    Type
REMARK                         _______ _______ _______ _____ _____    ______ ____
ROOT
ATOM      1  C   UNL     1      45.006   4.702  11.082  0.00  0.00    +0.000 A 
ATOM      2  C   UNL     1      45.093   3.797  12.148  0.00  0.00    +0.000 A 
ATOM      3  C   UNL     1      45.901   4.074  13.259  0.00  0.00    +0.000 A 
ATOM      4  C   UNL     1      46.622   5.272  13.337  0.00  0.00    +0.000 A 
ATOM      5  C   UNL     1      46.543   6.174  12.268  0.00  0.00    +0.000 A 
ATOM      6  C   UNL     1      45.735   5.898  11.159  0.00  0.00    +0.000 A 
ENDROOT
BRANCH   1   7
ATOM      7  C   UNL     1      44.139   4.400   9.875  0.00  0.00    +0.000 C 
BRANCH   7  14
ATOM      8  C   UNL     1      47.268   2.754   4.983  0.00  0.00    +0.000 C 
ATOM      9  C   UNL     1      46.654   2.537   6.333  0.00  0.00    +0.000 A 
ATOM     10  C   UNL     1      46.806   1.339   6.995  0.00  0.00    +0.000 A 
ATOM     11  C   UNL     1      46.233   1.275   8.241  0.00  0.00    +0.000 A 
ATOM     12  N   UNL     1      45.581   2.302   8.819  0.00  0.00    +0.000 NA
ATOM     13  C   UNL     1      45.486   3.437   8.112  0.00  0.00    +0.000 A 
ATOM     14  N   UNL     1      44.901   4.559   8.661  0.00  0.00    +0.000 N 
ATOM     15  N   UNL     1      45.976   3.578   6.870  0.00  0.00    +0.000 NA
ATOM     16  H   UNL     1      44.541   5.165   7.937  0.00  0.00    +0.000 HD
ENDBRANCH   7  14
ENDBRANCH   1   7
BRANCH   4  17
ATOM     17  C   UNL     1      47.476   5.583  14.540  0.00  0.00    +0.000 C 
BRANCH  17  18
ATOM     18  N   UNL     1      47.774   6.987  14.644  0.00  0.00    +0.000 N 
ATOM     19  C   UNL     1      49.003   7.418  15.090  0.00  0.00    +0.000 C 
ATOM     20  O   UNL     1      49.907   6.629  15.353  0.00  0.00    +0.000 OA
ATOM     21  H   UNL     1      46.985   7.630  14.652  0.00  0.00    +0.000 HD
BRANCH  19  22
ATOM     22  C   UNL     1      49.201   8.868  15.194  0.00  0.00    +0.000 A 
ATOM     23  C   UNL     1      49.419   9.444  16.439  0.00  0.00    +0.000 A 
ATOM     24  S   UNL     1      49.673  11.129  16.381  0.00  0.00    +0.000 S 
ATOM     25  C   UNL     1      49.451  11.159  14.695  0.00  0.00    +0.000 A 
ATOM     26  N   UNL     1      49.518  12.328  14.003  0.00  0.00    +0.000 NA
ATOM     27  C   UNL     1      49.299  12.210  12.736  0.00  0.00    +0.000 A 
ATOM     28  N   UNL     1      49.024  11.027  12.098  0.00  0.00    +0.000 N 
ATOM     29  C   UNL     1      48.978   9.819  12.751  0.00  0.00    +0.000 A 
ATOM     30  O   UNL     1      48.774   8.773  12.143  0.00  0.00    +0.000 OA
ATOM     31  C   UNL     1      49.206   9.898  14.181  0.00  0.00    +0.000 A 
ATOM     32  H   UNL     1      48.869  11.001  11.102  0.00  0.00    +0.000 HD
ENDBRANCH  19  22
ENDBRANCH  17  18
ENDBRANCH   4  17
TORSDOF 5
ENDMDL
MODEL 7
REMARK VINA RESULT:    -7.308      1.826      2.833
REMARK INTER + INTRA:          -9.949
REMARK INTER:                  -9.079
REMARK INTRA:                  -0.870
REMARK UNBOUND:                -0.505
REMARK  Name = 
REMARK  6 active torsions:
REMARK  status: ('A' for Active; 'I' for Inactive)
REMARK    1  A    between atoms: C_1  and  C_2
REMARK    2  A    between atoms: N_7  and  C_8
REMARK    3  A    between atoms: C_8  and  C_9
REMARK    4  A    between atoms: C_12  and  C_13
REMARK    5  A    between atoms: C_13  and  N_14
REMARK    6  A    between atoms: C_15  and  C_17
REMARK                            x       y       z     vdW  Elec       q    Type
REMARK                         _______ _______ _______ _____ _____    ______ ____
ROOT
ATOM      1  C   UNL     1      45.708   6.776  11.998  0.00  0.00    +0.000 A 
ATOM      2  C   UNL     1      46.746   6.016  12.556  0.00  0.00    +0.000 A 
ATOM      3  C   UNL     1      47.619   6.578  13.497  0.00  0.00    +0.000 A 
ATOM      4  C   UNL     1      47.459   7.904  13.917  0.00  0.00    +0.000 A 
ATOM      5  C   UNL     1      46.428   8.667  13.355  0.00  0.00    +0.000 A 
ATOM      6  C   UNL     1      45.555   8.106  12.415  0.00  0.00    +0.000 A 
ENDROOT
BRANCH   1   7
ATOM      7  C   UNL     1      44.769   6.173  10.972  0.00  0.00    +0.000 C 
BRANCH   7  14
ATOM      8  C   UNL     1      46.607   3.021   6.164  0.00  0.00    +0.000 C 
ATOM      9  C   UNL     1      46.006   3.182   7.528  0.00  0.00    +0.000 A 
ATOM     10  C   UNL     1      45.600   2.086   8.256  0.00  0.00    +0.000 A 
ATOM     11  C   UNL     1      45.104   2.357   9.507  0.00  0.00    +0.000 A 
ATOM     12  N   UNL     1      45.027   3.596  10.029  0.00  0.00    +0.000 NA
ATOM     13  C   UNL     1      45.452   4.608   9.259  0.00  0.00    +0.000 A 
ATOM     14  N   UNL     1      45.478   5.898   9.747  0.00  0.00    +0.000 N 
ATOM     15  N   UNL     1      45.912   4.443   8.009  0.00  0.00    +0.000 NA
ATOM     16  H   UNL     1      45.421   6.567   8.992  0.00  0.00    +0.000 HD
ENDBRANCH   7  14
ENDBRANCH   1   7
BRANCH   4  17
ATOM     17  C   UNL     1      48.384   8.506  14.946  0.00  0.00    +0.000 C 
BRANCH  17  18
ATOM     18  N   UNL     1      48.202   7.917  16.246  0.00  0.00    +0.000 N 
ATOM     19  C   UNL     1      49.165   7.098  16.792  0.00  0.00    +0.000 C 
ATOM     20  O   UNL     1      50.235   6.893  16.224  0.00  0.00    +0.000 OA
ATOM     21  H   UNL     1      47.254   7.889  16.616  0.00  0.00    +0.000 HD
BRANCH  19  22
ATOM     22  C   UNL     1      48.876   6.517  18.108  0.00  0.00    +0.000 A 
ATOM     23  C   UNL     1      49.138   5.173  18.338  0.00  0.00    +0.000 A 
ATOM     24  S   UNL     1      48.786   4.667  19.927  0.00  0.00    +0.000 S 
ATOM     25  C   UNL     1      48.223   6.214  20.353  0.00  0.00    +0.000 A 
ATOM     26  N   UNL     1      47.743   6.462  21.601  0.00  0.00    +0.000 NA
ATOM     27  C   UNL     1      47.319   7.670  21.777  0.00  0.00    +0.000 A 
ATOM     28  N   UNL     1      47.336   8.651  20.820  0.00  0.00    +0.000 N 
ATOM     29  C   UNL     1      47.841   8.454  19.557  0.00  0.00    +0.000 A 
ATOM     30  O   UNL     1      47.883   9.367  18.738  0.00  0.00    +0.000 OA
ATOM     31  C   UNL     1      48.320   7.109  19.303  0.00  0.00    +0.000 A 
ATOM     32  H   UNL     1      46.996   9.578  21.024  0.00  0.00    +0.000 HD
ENDBRANCH  19  22
ENDBRANCH  17  18
ENDBRANCH   4  17
TORSDOF 5
ENDMDL
MODEL 8
REMARK VINA RESULT:    -7.282      1.887      2.537
REMARK INTER + INTRA:          -9.915
REMARK INTER:                  -9.224
REMARK INTRA:                  -0.691
REMARK UNBOUND:                -0.505
REMARK  Name = 
REMARK  6 active torsions:
REMARK  status: ('A' for Active; 'I' for Inactive)
REMARK    1  A    between atoms: C_1  and  C_2
REMARK    2  A    between atoms: N_7  and  C_8
REMARK    3  A    between atoms: C_8  and  C_9
REMARK    4  A    between atoms: C_12  and  C_13
REMARK    5  A    between atoms: C_13  and  N_14
REMARK    6  A    between atoms: C_15  and  C_17
REMARK                            x       y       z     vdW  Elec       q    Type
REMARK                         _______ _______ _______ _____ _____    ______ ____
ROOT
ATOM      1  C   UNL     1      45.194   4.904  10.732  0.00  0.00    +0.000 A 
ATOM      2  C   UNL     1      45.753   6.170  10.503  0.00  0.00    +0.000 A 
ATOM      3  C   UNL     1      46.446   6.841  11.519  0.00  0.00    +0.000 A 
ATOM      4  C   UNL     1      46.615   6.251  12.779  0.00  0.00    +0.000 A 
ATOM      5  C   UNL     1      46.051   4.991  13.011  0.00  0.00    +0.000 A 
ATOM      6  C   UNL     1      45.359   4.320  11.996  0.00  0.00    +0.000 A 
ENDROOT
BRANCH   1   7
ATOM      7  C   UNL     1      44.435   4.180   9.637  0.00  0.00    +0.000 C 
BRANCH   7  14
ATOM      8  C   UNL     1      47.389   2.325   4.711  0.00  0.00    +0.000 C 
ATOM      9  C   UNL     1      46.835   2.171   6.095  0.00  0.00    +0.000 A 
ATOM     10  C   UNL     1      47.036   1.013   6.812  0.00  0.00    +0.000 A 
ATOM     11  C   UNL     1      46.517   1.006   8.084  0.00  0.00    +0.000 A 
ATOM     12  N   UNL     1      45.870   2.052   8.633  0.00  0.00    +0.000 NA
ATOM     13  C   UNL     1      45.726   3.147   7.872  0.00  0.00    +0.000 A 
ATOM     14  N   UNL     1      45.143   4.286   8.385  0.00  0.00    +0.000 N 
ATOM     15  N   UNL     1      46.161   3.229   6.605  0.00  0.00    +0.000 NA
ATOM     16  H   UNL     1      44.743   4.847   7.647  0.00  0.00    +0.000 HD
ENDBRANCH   7  14
ENDBRANCH   1   7
BRANCH   4  17
ATOM     17  C   UNL     1      47.379   6.962  13.868  0.00  0.00    +0.000 C 
BRANCH  17  18
ATOM     18  N   UNL     1      47.900   6.047  14.849  0.00  0.00    +0.000 N 
ATOM     19  C   UNL     1      48.545   6.508  15.973  0.00  0.00    +0.000 C 
ATOM     20  O   UNL     1      48.644   7.709  16.214  0.00  0.00    +0.000 OA
ATOM     21  H   UNL     1      48.028   5.079  14.560  0.00  0.00    +0.000 HD
BRANCH  19  22
ATOM     22  C   UNL     1      49.071   5.498  16.899  0.00  0.00    +0.000 A 
ATOM     23  C   UNL     1      48.190   4.687  17.603  0.00  0.00    +0.000 A 
ATOM     24  S   UNL     1      48.962   3.541  18.602  0.00  0.00    +0.000 S 
ATOM     25  C   UNL     1      50.501   4.120  18.170  0.00  0.00    +0.000 A 
ATOM     26  N   UNL     1      51.627   3.573  18.702  0.00  0.00    +0.000 NA
ATOM     27  C   UNL     1      52.725   4.131  18.311  0.00  0.00    +0.000 A 
ATOM     28  N   UNL     1      52.798   5.180  17.433  0.00  0.00    +0.000 N 
ATOM     29  C   UNL     1      51.690   5.742  16.845  0.00  0.00    +0.000 A 
ATOM     30  O   UNL     1      51.794   6.651  16.028  0.00  0.00    +0.000 OA
ATOM     31  C   UNL     1      50.428   5.160  17.261  0.00  0.00    +0.000 A 
ATOM     32  H   UNL     1      53.690   5.566  17.161  0.00  0.00    +0.000 HD
ENDBRANCH  19  22
ENDBRANCH  17  18
ENDBRANCH   4  17
TORSDOF 5
ENDMDL
MODEL 9
REMARK VINA RESULT:    -7.010      2.575      3.456
REMARK INTER + INTRA:          -9.564
REMARK INTER:                  -8.689
REMARK INTRA:                  -0.875
REMARK UNBOUND:                -0.505
REMARK  Name = 
REMARK  6 active torsions:
REMARK  status: ('A' for Active; 'I' for Inactive)
REMARK    1  A    between atoms: C_1  and  C_2
REMARK    2  A    between atoms: N_7  and  C_8
REMARK    3  A    between atoms: C_8  and  C_9
REMARK    4  A    between atoms: C_12  and  C_13
REMARK    5  A    between atoms: C_13  and  N_14
REMARK    6  A    between atoms: C_15  and  C_17
REMARK                            x       y       z     vdW  Elec       q    Type
REMARK                         _______ _______ _______ _____ _____    ______ ____
ROOT
ATOM      1  C   UNL     1      45.994   6.941  12.310  0.00  0.00    +0.000 A 
ATOM      2  C   UNL     1      46.164   8.246  12.794  0.00  0.00    +0.000 A 
ATOM      3  C   UNL     1      47.112   8.523  13.789  0.00  0.00    +0.000 A 
ATOM      4  C   UNL     1      47.925   7.506  14.304  0.00  0.00    +0.000 A 
ATOM      5  C   UNL     1      47.750   6.201  13.828  0.00  0.00    +0.000 A 
ATOM      6  C   UNL     1      46.805   5.924  12.834  0.00  0.00    +0.000 A 
ENDROOT
BRANCH   1   7
ATOM      7  C   UNL     1      44.963   6.638  11.241  0.00  0.00    +0.000 C 
BRANCH   7  14
ATOM      8  C   UNL     1      46.317   3.133   6.517  0.00  0.00    +0.000 C 
ATOM      9  C   UNL     1      45.759   3.411   7.881  0.00  0.00    +0.000 A 
ATOM     10  C   UNL     1      45.225   2.398   8.647  0.00  0.00    +0.000 A 
ATOM     11  C   UNL     1      44.784   2.768   9.893  0.00  0.00    +0.000 A 
ATOM     12  N   UNL     1      44.874   4.023  10.376  0.00  0.00    +0.000 NA
ATOM     13  C   UNL     1      45.417   4.948   9.572  0.00  0.00    +0.000 A 
ATOM     14  N   UNL     1      45.614   6.237  10.019  0.00  0.00    +0.000 N 
ATOM     15  N   UNL     1      45.834   4.688   8.323  0.00  0.00    +0.000 NA
ATOM     16  H   UNL     1      45.634   6.885   9.244  0.00  0.00    +0.000 HD
ENDBRANCH   7  14
ENDBRANCH   1   7
BRANCH   4  17
ATOM     17  C   UNL     1      48.960   7.805  15.359  0.00  0.00    +0.000 C 
BRANCH  17  18
ATOM     18  N   UNL     1      49.690   6.627  15.750  0.00  0.00    +0.000 N 
ATOM     19  C   UNL     1      49.372   5.950  16.905  0.00  0.00    +0.000 C 
ATOM     20  O   UNL     1      48.420   6.282  17.608  0.00  0.00    +0.000 OA
ATOM     21  H   UNL     1      50.599   6.479  15.317  0.00  0.00    +0.000 HD
BRANCH  19  22
ATOM     22  C   UNL     1      50.194   4.781  17.238  0.00  0.00    +0.000 A 
ATOM     23  C   UNL     1      49.600   3.529  17.332  0.00  0.00    +0.000 A 
ATOM     24  S   UNL     1      50.698   2.273  17.684  0.00  0.00    +0.000 S 
ATOM     25  C   UNL     1      52.000   3.364  17.773  0.00  0.00    +0.000 A 
ATOM     26  N   UNL     1      53.255   2.929  18.069  0.00  0.00    +0.000 NA
ATOM     27  C   UNL     1      54.140   3.867  18.136  0.00  0.00    +0.000 A 
ATOM     28  N   UNL     1      53.885   5.198  17.928  0.00  0.00    +0.000 N 
ATOM     29  C   UNL     1      52.641   5.678  17.595  0.00  0.00    +0.000 A 
ATOM     30  O   UNL     1      52.456   6.870  17.371  0.00  0.00    +0.000 OA
ATOM     31  C   UNL     1      51.606   4.665  17.519  0.00  0.00    +0.000 A 
ATOM     32  H   UNL     1      54.625   5.881  17.988  0.00  0.00    +0.000 HD
ENDBRANCH  19  22
ENDBRANCH  17  18
ENDBRANCH   4  17
TORSDOF 5
ENDMDL
