MODEL 1
REMARK VINA RESULT:    -7.295      0.000      0.000
REMARK INTER + INTRA:          -9.557
REMARK INTER:                  -9.001
REMARK INTRA:                  -0.557
REMARK UNBOUND:                -0.557
REMARK  Name = 
REMARK  4 active torsions:
REMARK  status: ('A' for Active; 'I' for Inactive)
REMARK    1  A    between atoms: C_2  and  C_3
REMARK    2  A    between atoms: C_7  and  C_8
REMARK    3  A    between atoms: C_8  and  N_9
REMARK    4  A    between atoms: C_10  and  C_12
REMARK                            x       y       z     vdW  Elec       q    Type
REMARK                         _______ _______ _______ _____ _____    ______ ____
ROOT
ATOM      1  N   UNL     1      46.841   4.455  15.832  0.00  0.00    +0.000 N 
ATOM      2  C   UNL     1      46.876   4.193  14.483  0.00  0.00    +0.000 C 
ATOM      3  O   UNL     1      47.251   3.116  14.030  0.00  0.00    +0.000 OA
ATOM      4  H   UNL     1      46.831   5.425  16.130  0.00  0.00    +0.000 HD
ENDROOT
BRANCH   2   5
ATOM      5  C   UNL     1      46.363   5.255  13.609  0.00  0.00    +0.000 A 
ATOM      6  C   UNL     1      47.116   6.401  13.386  0.00  0.00    +0.000 A 
ATOM      7  S   UNL     1      46.372   7.508  12.320  0.00  0.00    +0.000 S 
ATOM      8  C   UNL     1      45.001   6.512  12.155  0.00  0.00    +0.000 A 
ATOM      9  N   UNL     1      43.944   6.892  11.387  0.00  0.00    +0.000 NA
ATOM     10  C   UNL     1      42.964   6.050  11.374  0.00  0.00    +0.000 A 
ATOM     11  N   UNL     1      42.949   4.858  12.052  0.00  0.00    +0.000 N 
ATOM     12  C   UNL     1      44.008   4.414  12.807  0.00  0.00    +0.000 A 
ATOM     13  O   UNL     1      43.991   3.313  13.340  0.00  0.00    +0.000 OA
ATOM     14  C   UNL     1      45.123   5.340  12.878  0.00  0.00    +0.000 A 
ATOM     15  H   UNL     1      42.160   4.232  11.982  0.00  0.00    +0.000 HD
ENDBRANCH   2   5
BRANCH   1  16
ATOM     16  C   UNL     1      47.290   3.496  16.812  0.00  0.00    +0.000 C 
BRANCH  16  21
ATOM     17  C   UNL     1      50.967   2.699  17.478  0.00  0.00    +0.000 A 
ATOM     18  C   UNL     1      51.512   3.974  17.647  0.00  0.00    +0.000 A 
ATOM     19  C   UNL     1      50.686   5.095  17.572  0.00  0.00    +0.000 A 
ATOM     20  C   UNL     1      49.317   4.945  17.328  0.00  0.00    +0.000 A 
ATOM     21  C   UNL     1      48.758   3.674  17.141  0.00  0.00    +0.000 A 
ATOM     22  C   UNL     1      49.598   2.552  17.220  0.00  0.00    +0.000 A 
BRANCH  17  24
ATOM     23  N   UNL     1      52.490   0.607  17.648  0.00  0.00    +0.000 NA
ATOM     24  C   UNL     1      51.807   1.541  17.567  0.00  0.00    +0.000 C 
ENDBRANCH  17  24
ENDBRANCH  16  21
ENDBRANCH   1  16
TORSDOF 4
ENDMDL
MODEL 2
REMARK VINA RESULT:    -7.111      4.310      7.412
REMARK INTER + INTRA:          -9.330
REMARK INTER:                  -8.855
REMARK INTRA:                  -0.476
REMARK UNBOUND:                -0.557
REMARK  Name = 
REMARK  4 active torsions:
REMARK  status: ('A' for Active; 'I' for Inactive)
REMARK    1  A    between atoms: C_2  and  C_3
REMARK    2  A    between atoms: C_7  and  C_8
REMARK    3  A    between atoms: C_8  and  N_9
REMARK    4  A    between atoms: C_10  and  C_12
REMARK                            x       y       z     vdW  Elec       q    Type
REMARK                         _______ _______ _______ _____ _____    ______ ____
ROOT
ATOM      1  N   UNL     1      44.846   5.156  10.034  0.00  0.00    +0.000 N 
ATOM      2  C   UNL     1      44.691   5.369  11.383  0.00  0.00    +0.000 C 
ATOM      3  O   UNL     1      44.186   4.536  12.129  0.00  0.00    +0.000 OA
ATOM      4  H   UNL     1      44.967   5.965   9.433  0.00  0.00    +0.000 HD
ENDROOT
BRANCH   2   5
ATOM      5  C   UNL     1      45.235   6.630  11.900  0.00  0.00    +0.000 A 
ATOM      6  C   UNL     1      44.690   7.844  11.500  0.00  0.00    +0.000 A 
ATOM      7  S   UNL     1      45.432   9.198  12.229  0.00  0.00    +0.000 S 
ATOM      8  C   UNL     1      46.534   8.210  13.070  0.00  0.00    +0.000 A 
ATOM      9  N   UNL     1      47.491   8.749  13.874  0.00  0.00    +0.000 NA
ATOM     10  C   UNL     1      48.272   7.882  14.429  0.00  0.00    +0.000 A 
ATOM     11  N   UNL     1      48.177   6.525  14.261  0.00  0.00    +0.000 N 
ATOM     12  C   UNL     1      47.203   5.933  13.493  0.00  0.00    +0.000 A 
ATOM     13  O   UNL     1      47.102   4.715  13.423  0.00  0.00    +0.000 OA
ATOM     14  C   UNL     1      46.319   6.867  12.822  0.00  0.00    +0.000 A 
ATOM     15  H   UNL     1      48.805   5.898  14.742  0.00  0.00    +0.000 HD
ENDBRANCH   2   5
BRANCH   1  16
ATOM     16  C   UNL     1      44.381   3.951   9.389  0.00  0.00    +0.000 C 
BRANCH  16  21
ATOM     17  C   UNL     1      46.606   1.349   7.693  0.00  0.00    +0.000 A 
ATOM     18  C   UNL     1      47.367   2.139   6.829  0.00  0.00    +0.000 A 
ATOM     19  C   UNL     1      47.179   3.522   6.810  0.00  0.00    +0.000 A 
ATOM     20  C   UNL     1      46.234   4.115   7.654  0.00  0.00    +0.000 A 
ATOM     21  C   UNL     1      45.453   3.334   8.515  0.00  0.00    +0.000 A 
ATOM     22  C   UNL     1      45.651   1.944   8.527  0.00  0.00    +0.000 A 
BRANCH  17  24
ATOM     23  N   UNL     1      46.954  -1.220   7.747  0.00  0.00    +0.000 NA
ATOM     24  C   UNL     1      46.801  -0.071   7.728  0.00  0.00    +0.000 C 
ENDBRANCH  17  24
ENDBRANCH  16  21
ENDBRANCH   1  16
TORSDOF 4
ENDMDL
MODEL 3
REMARK VINA RESULT:    -6.978      4.097      7.525
REMARK INTER + INTRA:          -9.166
REMARK INTER:                  -8.559
REMARK INTRA:                  -0.607
REMARK UNBOUND:                -0.557
REMARK  Name = 
REMARK  4 active torsions:
REMARK  status: ('A' for Active; 'I' for Inactive)
REMARK    1  A    between atoms: C_2  and  C_3
REMARK    2  A    between atoms: C_7  and  C_8
REMARK    3  A    between atoms: C_8  and  N_9
REMARK    4  A    between atoms: C_10  and  C_12
REMARK                            x       y       z     vdW  Elec       q    Type
REMARK                         _______ _______ _______ _____ _____    ______ ____
ROOT
ATOM      1  N   UNL     1      46.212   5.641  10.320  0.00  0.00    +0.000 N 
ATOM      2  C   UNL     1      45.713   6.426  11.332  0.00  0.00    +0.000 C 
ATOM      3  O   UNL     1      44.582   6.901  11.304  0.00  0.00    +0.000 OA
ATOM      4  H   UNL     1      47.219   5.543  10.243  0.00  0.00    +0.000 HD
ENDROOT
BRANCH   2   5
ATOM      5  C   UNL     1      46.590   6.604  12.496  0.00  0.00    +0.000 A 
ATOM      6  C   UNL     1      47.277   7.798  12.678  0.00  0.00    +0.000 A 
ATOM      7  S   UNL     1      48.220   7.831  14.101  0.00  0.00    +0.000 S 
ATOM      8  C   UNL     1      47.776   6.237  14.499  0.00  0.00    +0.000 A 
ATOM      9  N   UNL     1      48.270   5.625  15.609  0.00  0.00    +0.000 NA
ATOM     10  C   UNL     1      47.866   4.409  15.772  0.00  0.00    +0.000 A 
ATOM     11  N   UNL     1      47.006   3.751  14.931  0.00  0.00    +0.000 N 
ATOM     12  C   UNL     1      46.451   4.340  13.820  0.00  0.00    +0.000 A 
ATOM     13  O   UNL     1      45.630   3.750  13.131  0.00  0.00    +0.000 OA
ATOM     14  C   UNL     1      46.898   5.699  13.576  0.00  0.00    +0.000 A 
ATOM     15  H   UNL     1      46.710   2.806  15.126  0.00  0.00    +0.000 HD
ENDBRANCH   2   5
BRANCH   1  16
ATOM     16  C   UNL     1      45.454   5.358   9.124  0.00  0.00    +0.000 C 
BRANCH  16  21
ATOM     17  C   UNL     1      46.607   2.168   7.367  0.00  0.00    +0.000 A 
ATOM     18  C   UNL     1      45.858   1.189   8.026  0.00  0.00    +0.000 A 
ATOM     19  C   UNL     1      44.958   1.562   9.025  0.00  0.00    +0.000 A 
ATOM     20  C   UNL     1      44.805   2.910   9.365  0.00  0.00    +0.000 A 
ATOM     21  C   UNL     1      45.560   3.901   8.724  0.00  0.00    +0.000 A 
ATOM     22  C   UNL     1      46.461   3.515   7.720  0.00  0.00    +0.000 A 
BRANCH  17  24
ATOM     23  N   UNL     1      48.263   1.481   5.494  0.00  0.00    +0.000 NA
ATOM     24  C   UNL     1      47.525   1.793   6.331  0.00  0.00    +0.000 C 
ENDBRANCH  17  24
ENDBRANCH  16  21
ENDBRANCH   1  16
TORSDOF 4
ENDMDL
MODEL 4
REMARK VINA RESULT:    -6.940      1.420      1.980
REMARK INTER + INTRA:          -9.119
REMARK INTER:                  -8.556
REMARK INTRA:                  -0.563
REMARK UNBOUND:                -0.557
REMARK  Name = 
REMARK  4 active torsions:
REMARK  status: ('A' for Active; 'I' for Inactive)
REMARK    1  A    between atoms: C_2  and  C_3
REMARK    2  A    between atoms: C_7  and  C_8
REMARK    3  A    between atoms: C_8  and  N_9
REMARK    4  A    between atoms: C_10  and  C_12
REMARK                            x       y       z     vdW  Elec       q    Type
REMARK                         _______ _______ _______ _____ _____    ______ ____
ROOT
ATOM      1  N   UNL     1      46.862   4.453  15.850  0.00  0.00    +0.000 N 
ATOM      2  C   UNL     1      46.912   4.187  14.503  0.00  0.00    +0.000 C 
ATOM      3  O   UNL     1      47.259   3.098  14.058  0.00  0.00    +0.000 OA
ATOM      4  H   UNL     1      46.879   5.424  16.147  0.00  0.00    +0.000 HD
ENDROOT
BRANCH   2   5
ATOM      5  C   UNL     1      46.451   5.264  13.619  0.00  0.00    +0.000 A 
ATOM      6  C   UNL     1      47.262   6.367  13.377  0.00  0.00    +0.000 A 
ATOM      7  S   UNL     1      46.571   7.498  12.301  0.00  0.00    +0.000 S 
ATOM      8  C   UNL     1      45.148   6.574  12.155  0.00  0.00    +0.000 A 
ATOM      9  N   UNL     1      44.108   6.999  11.388  0.00  0.00    +0.000 NA
ATOM     10  C   UNL     1      43.086   6.209  11.391  0.00  0.00    +0.000 A 
ATOM     11  N   UNL     1      43.012   5.028  12.084  0.00  0.00    +0.000 N 
ATOM     12  C   UNL     1      44.051   4.539  12.839  0.00  0.00    +0.000 A 
ATOM     13  O   UNL     1      43.979   3.446  13.386  0.00  0.00    +0.000 OA
ATOM     14  C   UNL     1      45.212   5.406  12.893  0.00  0.00    +0.000 A 
ATOM     15  H   UNL     1      42.191   4.444  12.026  0.00  0.00    +0.000 HD
ENDBRANCH   2   5
BRANCH   1  16
ATOM     16  C   UNL     1      47.261   3.482  16.840  0.00  0.00    +0.000 C 
BRANCH  16  21
ATOM     17  C   UNL     1      50.770   4.767  17.636  0.00  0.00    +0.000 A 
ATOM     18  C   UNL     1      51.516   3.586  17.641  0.00  0.00    +0.000 A 
ATOM     19  C   UNL     1      50.889   2.371  17.362  0.00  0.00    +0.000 A 
ATOM     20  C   UNL     1      49.520   2.335  17.077  0.00  0.00    +0.000 A 
ATOM     21  C   UNL     1      48.756   3.509  17.083  0.00  0.00    +0.000 A 
ATOM     22  C   UNL     1      49.397   4.727  17.364  0.00  0.00    +0.000 A 
BRANCH  17  24
ATOM     23  N   UNL     1      51.918   7.040  18.126  0.00  0.00    +0.000 NA
ATOM     24  C   UNL     1      51.409   6.021  17.909  0.00  0.00    +0.000 C 
ENDBRANCH  17  24
ENDBRANCH  16  21
ENDBRANCH   1  16
TORSDOF 4
ENDMDL
MODEL 5
REMARK VINA RESULT:    -6.903      2.911      7.207
REMARK INTER + INTRA:          -9.074
REMARK INTER:                  -8.247
REMARK INTRA:                  -0.827
REMARK UNBOUND:                -0.557
REMARK  Name = 
REMARK  4 active torsions:
REMARK  status: ('A' for Active; 'I' for Inactive)
REMARK    1  A    between atoms: C_2  and  C_3
REMARK    2  A    between atoms: C_7  and  C_8
REMARK    3  A    between atoms: C_8  and  N_9
REMARK    4  A    between atoms: C_10  and  C_12
REMARK                            x       y       z     vdW  Elec       q    Type
REMARK                         _______ _______ _______ _____ _____    ______ ____
ROOT
ATOM      1  N   UNL     1      46.965   7.141  14.027  0.00  0.00    +0.000 N 
ATOM      2  C   UNL     1      48.222   6.589  14.075  0.00  0.00    +0.000 C 
ATOM      3  O   UNL     1      48.938   6.488  13.083  0.00  0.00    +0.000 OA
ATOM      4  H   UNL     1      46.316   6.918  14.775  0.00  0.00    +0.000 HD
ENDROOT
BRANCH   2   5
ATOM      5  C   UNL     1      48.697   6.189  15.405  0.00  0.00    +0.000 A 
ATOM      6  C   UNL     1      49.720   6.897  16.025  0.00  0.00    +0.000 A 
ATOM      7  S   UNL     1      50.115   6.306  17.577  0.00  0.00    +0.000 S 
ATOM      8  C   UNL     1      48.963   5.058  17.455  0.00  0.00    +0.000 A 
ATOM      9  N   UNL     1      48.803   4.148  18.454  0.00  0.00    +0.000 NA
ATOM     10  C   UNL     1      47.912   3.244  18.215  0.00  0.00    +0.000 A 
ATOM     11  N   UNL     1      47.159   3.173  17.071  0.00  0.00    +0.000 N 
ATOM     12  C   UNL     1      47.256   4.092  16.053  0.00  0.00    +0.000 A 
ATOM     13  O   UNL     1      46.518   4.041  15.079  0.00  0.00    +0.000 OA
ATOM     14  C   UNL     1      48.267   5.111  16.262  0.00  0.00    +0.000 A 
ATOM     15  H   UNL     1      46.460   2.453  16.954  0.00  0.00    +0.000 HD
ENDBRANCH   2   5
BRANCH   1  16
ATOM     16  C   UNL     1      46.375   7.602  12.793  0.00  0.00    +0.000 C 
BRANCH  16  21
ATOM     17  C   UNL     1      45.149   5.051  10.227  0.00  0.00    +0.000 A 
ATOM     18  C   UNL     1      44.090   4.444  10.906  0.00  0.00    +0.000 A 
ATOM     19  C   UNL     1      43.753   4.877  12.189  0.00  0.00    +0.000 A 
ATOM     20  C   UNL     1      44.472   5.914  12.793  0.00  0.00    +0.000 A 
ATOM     21  C   UNL     1      45.546   6.522  12.130  0.00  0.00    +0.000 A 
ATOM     22  C   UNL     1      45.875   6.080  10.839  0.00  0.00    +0.000 A 
BRANCH  17  24
ATOM     23  N   UNL     1      45.780   4.267   7.837  0.00  0.00    +0.000 NA
ATOM     24  C   UNL     1      45.494   4.621   8.903  0.00  0.00    +0.000 C 
ENDBRANCH  17  24
ENDBRANCH  16  21
ENDBRANCH   1  16
TORSDOF 4
ENDMDL
MODEL 6
REMARK VINA RESULT:    -6.832      2.240      2.965
REMARK INTER + INTRA:          -8.986
REMARK INTER:                  -8.271
REMARK INTRA:                  -0.715
REMARK UNBOUND:                -0.557
REMARK  Name = 
REMARK  4 active torsions:
REMARK  status: ('A' for Active; 'I' for Inactive)
REMARK    1  A    between atoms: C_2  and  C_3
REMARK    2  A    between atoms: C_7  and  C_8
REMARK    3  A    between atoms: C_8  and  N_9
REMARK    4  A    between atoms: C_10  and  C_12
REMARK                            x       y       z     vdW  Elec       q    Type
REMARK                         _______ _______ _______ _____ _____    ______ ____
ROOT
ATOM      1  N   UNL     1      47.069   5.921  14.421  0.00  0.00    +0.000 N 
ATOM      2  C   UNL     1      46.974   6.334  13.115  0.00  0.00    +0.000 C 
ATOM      3  O   UNL     1      47.909   6.859  12.518  0.00  0.00    +0.000 OA
ATOM      4  H   UNL     1      46.209   5.793  14.946  0.00  0.00    +0.000 HD
ENDROOT
BRANCH   2   5
ATOM      5  C   UNL     1      45.703   6.044  12.440  0.00  0.00    +0.000 A 
ATOM      6  C   UNL     1      44.964   7.071  11.866  0.00  0.00    +0.000 A 
ATOM      7  S   UNL     1      43.534   6.537  11.101  0.00  0.00    +0.000 S 
ATOM      8  C   UNL     1      43.832   4.922  11.549  0.00  0.00    +0.000 A 
ATOM      9  N   UNL     1      42.957   3.930  11.229  0.00  0.00    +0.000 NA
ATOM     10  C   UNL     1      43.299   2.759  11.654  0.00  0.00    +0.000 A 
ATOM     11  N   UNL     1      44.442   2.488  12.362  0.00  0.00    +0.000 N 
ATOM     12  C   UNL     1      45.374   3.449  12.674  0.00  0.00    +0.000 A 
ATOM     13  O   UNL     1      46.418   3.160  13.244  0.00  0.00    +0.000 OA
ATOM     14  C   UNL     1      45.019   4.788  12.245  0.00  0.00    +0.000 A 
ATOM     15  H   UNL     1      44.664   1.545  12.647  0.00  0.00    +0.000 HD
ENDBRANCH   2   5
BRANCH   1  16
ATOM     16  C   UNL     1      48.265   6.117  15.204  0.00  0.00    +0.000 C 
BRANCH  16  21
ATOM     17  C   UNL     1      49.307   4.519  18.514  0.00  0.00    +0.000 A 
ATOM     18  C   UNL     1      48.443   3.424  18.590  0.00  0.00    +0.000 A 
ATOM     19  C   UNL     1      47.536   3.185  17.557  0.00  0.00    +0.000 A 
ATOM     20  C   UNL     1      47.492   4.038  16.449  0.00  0.00    +0.000 A 
ATOM     21  C   UNL     1      48.342   5.148  16.365  0.00  0.00    +0.000 A 
ATOM     22  C   UNL     1      49.252   5.378  17.410  0.00  0.00    +0.000 A 
BRANCH  17  24
ATOM     23  N   UNL     1      51.021   4.960  20.409  0.00  0.00    +0.000 NA
ATOM     24  C   UNL     1      50.250   4.764  19.565  0.00  0.00    +0.000 C 
ENDBRANCH  17  24
ENDBRANCH  16  21
ENDBRANCH   1  16
TORSDOF 4
ENDMDL
MODEL 7
REMARK VINA RESULT:    -6.704      2.121      2.952
REMARK INTER + INTRA:          -8.828
REMARK INTER:                  -8.221
REMARK INTRA:                  -0.607
REMARK UNBOUND:                -0.557
REMARK  Name = 
REMARK  4 active torsions:
REMARK  status: ('A' for Active; 'I' for Inactive)
REMARK    1  A    between atoms: C_2  and  C_3
REMARK    2  A    between atoms: C_7  and  C_8
REMARK    3  A    between atoms: C_8  and  N_9
REMARK    4  A    between atoms: C_10  and  C_12
REMARK                            x       y       z     vdW  Elec       q    Type
REMARK                         _______ _______ _______ _____ _____    ______ ____
ROOT
ATOM      1  N   UNL     1      47.749   7.234  14.579  0.00  0.00    +0.000 N 
ATOM      2  C   UNL     1      47.820   6.576  13.375  0.00  0.00    +0.000 C 
ATOM      3  O   UNL     1      48.874   6.143  12.920  0.00  0.00    +0.000 OA
ATOM      4  H   UNL     1      46.945   7.829  14.752  0.00  0.00    +0.000 HD
ENDROOT
BRANCH   2   5
ATOM      5  C   UNL     1      46.540   6.350  12.691  0.00  0.00    +0.000 A 
ATOM      6  C   UNL     1      45.860   7.413  12.111  0.00  0.00    +0.000 A 
ATOM      7  S   UNL     1      44.410   6.953  11.336  0.00  0.00    +0.000 S 
ATOM      8  C   UNL     1      44.621   5.325  11.787  0.00  0.00    +0.000 A 
ATOM      9  N   UNL     1      43.699   4.379  11.461  0.00  0.00    +0.000 NA
ATOM     10  C   UNL     1      43.978   3.192  11.889  0.00  0.00    +0.000 A 
ATOM     11  N   UNL     1      45.100   2.863  12.605  0.00  0.00    +0.000 N 
ATOM     12  C   UNL     1      46.077   3.775  12.924  0.00  0.00    +0.000 A 
ATOM     13  O   UNL     1      47.101   3.434  13.501  0.00  0.00    +0.000 OA
ATOM     14  C   UNL     1      45.795   5.131  12.491  0.00  0.00    +0.000 A 
ATOM     15  H   UNL     1      45.271   1.910  12.892  0.00  0.00    +0.000 HD
ENDBRANCH   2   5
BRANCH   1  16
ATOM     16  C   UNL     1      48.922   7.507  15.375  0.00  0.00    +0.000 C 
BRANCH  16  21
ATOM     17  C   UNL     1      48.648   4.230  17.320  0.00  0.00    +0.000 A 
ATOM     18  C   UNL     1      49.940   4.090  17.833  0.00  0.00    +0.000 A 
ATOM     19  C   UNL     1      50.898   5.070  17.571  0.00  0.00    +0.000 A 
ATOM     20  C   UNL     1      50.567   6.188  16.799  0.00  0.00    +0.000 A 
ATOM     21  C   UNL     1      49.280   6.335  16.266  0.00  0.00    +0.000 A 
ATOM     22  C   UNL     1      48.324   5.343  16.536  0.00  0.00    +0.000 A 
BRANCH  17  24
ATOM     23  N   UNL     1      46.845   2.433  17.812  0.00  0.00    +0.000 NA
ATOM     24  C   UNL     1      47.655   3.233  17.595  0.00  0.00    +0.000 C 
ENDBRANCH  17  24
ENDBRANCH  16  21
ENDBRANCH   1  16
TORSDOF 4
ENDMDL
MODEL 8
REMARK VINA RESULT:    -6.342      1.947      3.023
REMARK INTER + INTRA:          -8.382
REMARK INTER:                  -7.529
REMARK INTRA:                  -0.853
REMARK UNBOUND:                -0.557
REMARK  Name = 
REMARK  4 active torsions:
REMARK  status: ('A' for Active; 'I' for Inactive)
REMARK    1  A    between atoms: C_2  and  C_3
REMARK    2  A    between atoms: C_7  and  C_8
REMARK    3  A    between atoms: C_8  and  N_9
REMARK    4  A    between atoms: C_10  and  C_12
REMARK                            x       y       z     vdW  Elec       q    Type
REMARK                         _______ _______ _______ _____ _____    ______ ____
ROOT
ATOM      1  N   UNL     1      47.174   4.754  16.151  0.00  0.00    +0.000 N 
ATOM      2  C   UNL     1      47.185   4.307  14.852  0.00  0.00    +0.000 C 
ATOM      3  O   UNL     1      47.386   3.132  14.559  0.00  0.00    +0.000 OA
ATOM      4  H   UNL     1      47.318   5.744  16.317  0.00  0.00    +0.000 HD
ENDROOT
BRANCH   2   5
ATOM      5  C   UNL     1      46.867   5.308  13.826  0.00  0.00    +0.000 A 
ATOM      6  C   UNL     1      45.732   5.165  13.038  0.00  0.00    +0.000 A 
ATOM      7  S   UNL     1      45.510   6.440  11.925  0.00  0.00    +0.000 S 
ATOM      8  C   UNL     1      46.946   7.204  12.429  0.00  0.00    +0.000 A 
ATOM      9  N   UNL     1      47.372   8.357  11.846  0.00  0.00    +0.000 NA
ATOM     10  C   UNL     1      48.489   8.809  12.313  0.00  0.00    +0.000 A 
ATOM     11  N   UNL     1      49.213   8.219  13.316  0.00  0.00    +0.000 N 
ATOM     12  C   UNL     1      48.803   7.077  13.962  0.00  0.00    +0.000 A 
ATOM     13  O   UNL     1      49.436   6.616  14.902  0.00  0.00    +0.000 OA
ATOM     14  C   UNL     1      47.568   6.512  13.452  0.00  0.00    +0.000 A 
ATOM     15  H   UNL     1      50.069   8.636  13.652  0.00  0.00    +0.000 HD
ENDBRANCH   2   5
BRANCH   1  16
ATOM     16  C   UNL     1      47.446   3.878  17.266  0.00  0.00    +0.000 C 
BRANCH  16  21
ATOM     17  C   UNL     1      51.040   2.645  17.662  0.00  0.00    +0.000 A 
ATOM     18  C   UNL     1      51.685   3.787  18.142  0.00  0.00    +0.000 A 
ATOM     19  C   UNL     1      50.953   4.954  18.364  0.00  0.00    +0.000 A 
ATOM     20  C   UNL     1      49.579   4.981  18.107  0.00  0.00    +0.000 A 
ATOM     21  C   UNL     1      48.920   3.849  17.611  0.00  0.00    +0.000 A 
ATOM     22  C   UNL     1      49.666   2.679  17.393  0.00  0.00    +0.000 A 
BRANCH  17  24
ATOM     23  N   UNL     1      52.380   0.459  17.276  0.00  0.00    +0.000 NA
ATOM     24  C   UNL     1      51.783   1.438  17.444  0.00  0.00    +0.000 C 
ENDBRANCH  17  24
ENDBRANCH  16  21
ENDBRANCH   1  16
TORSDOF 4
ENDMDL
MODEL 9
REMARK VINA RESULT:    -6.178      3.268      3.983
REMARK INTER + INTRA:          -8.179
REMARK INTER:                  -7.715
REMARK INTRA:                  -0.464
REMARK UNBOUND:                -0.557
REMARK  Name = 
REMARK  4 active torsions:
REMARK  status: ('A' for Active; 'I' for Inactive)
REMARK    1  A    between atoms: C_2  and  C_3
REMARK    2  A    between atoms: C_7  and  C_8
REMARK    3  A    between atoms: C_8  and  N_9
REMARK    4  A    between atoms: C_10  and  C_12
REMARK                            x       y       z     vdW  Elec       q    Type
REMARK                         _______ _______ _______ _____ _____    ______ ____
ROOT
ATOM      1  N   UNL     1      47.662   6.404  14.887  0.00  0.00    +0.000 N 
ATOM      2  C   UNL     1      47.789   6.228  13.530  0.00  0.00    +0.000 C 
ATOM      3  O   UNL     1      48.879   6.118  12.978  0.00  0.00    +0.000 OA
ATOM      4  H   UNL     1      46.795   6.795  15.240  0.00  0.00    +0.000 HD
ENDROOT
BRANCH   2   5
ATOM      5  C   UNL     1      46.534   6.103  12.780  0.00  0.00    +0.000 A 
ATOM      6  C   UNL     1      45.951   7.223  12.199  0.00  0.00    +0.000 A 
ATOM      7  S   UNL     1      44.515   6.877  11.343  0.00  0.00    +0.000 S 
ATOM      8  C   UNL     1      44.601   5.227  11.754  0.00  0.00    +0.000 A 
ATOM      9  N   UNL     1      43.639   4.351  11.356  0.00  0.00    +0.000 NA
ATOM     10  C   UNL     1      43.821   3.138  11.762  0.00  0.00    +0.000 A 
ATOM     11  N   UNL     1      44.883   2.720  12.521  0.00  0.00    +0.000 N 
ATOM     12  C   UNL     1      45.899   3.558  12.913  0.00  0.00    +0.000 A 
ATOM     13  O   UNL     1      46.869   3.137  13.528  0.00  0.00    +0.000 OA
ATOM     14  C   UNL     1      45.724   4.940  12.508  0.00  0.00    +0.000 A 
ATOM     15  H   UNL     1      44.980   1.750  12.787  0.00  0.00    +0.000 HD
ENDBRANCH   2   5
BRANCH   1  16
ATOM     16  C   UNL     1      48.809   6.519  15.757  0.00  0.00    +0.000 C 
BRANCH  16  21
ATOM     17  C   UNL     1      47.886   7.214  19.398  0.00  0.00    +0.000 A 
ATOM     18  C   UNL     1      47.944   8.609  19.449  0.00  0.00    +0.000 A 
ATOM     19  C   UNL     1      48.257   9.331  18.297  0.00  0.00    +0.000 A 
ATOM     20  C   UNL     1      48.512   8.662  17.096  0.00  0.00    +0.000 A 
ATOM     21  C   UNL     1      48.473   7.263  17.032  0.00  0.00    +0.000 A 
ATOM     22  C   UNL     1      48.155   6.547  18.198  0.00  0.00    +0.000 A 
BRANCH  17  24
ATOM     23  N   UNL     1      47.289   5.867  21.532  0.00  0.00    +0.000 NA
ATOM     24  C   UNL     1      47.552   6.466  20.575  0.00  0.00    +0.000 C 
ENDBRANCH  17  24
ENDBRANCH  16  21
ENDBRANCH   1  16
TORSDOF 4
ENDMDL
