MODEL 1
REMARK VINA RESULT:    -8.033      0.000      0.000
REMARK INTER + INTRA:         -12.981
REMARK INTER:                 -11.790
REMARK INTRA:                  -1.191
REMARK UNBOUND:                -1.191
REMARK  Name = 
REMARK  9 active torsions:
REMARK  status: ('A' for Active; 'I' for Inactive)
REMARK    1  A    between atoms: C_1  and  C_2
REMARK    2  A    between atoms: C_2  and  C_3
REMARK    3  A    between atoms: C_2  and  C_26
REMARK    4  A    between atoms: C_3  and  N_4
REMARK    5  A    between atoms: N_4  and  C_5
REMARK    6  A    between atoms: C_5  and  C_6
REMARK    7  A    between atoms: C_9  and  C_10
REMARK    8  A    between atoms: C_10  and  N_11
REMARK    9  A    between atoms: C_12  and  C_14
REMARK                            x       y       z     vdW  Elec       q    Type
REMARK                         _______ _______ _______ _____ _____    ______ ____
ROOT
ATOM      1  C   UNL     1      44.291   4.421  11.758  0.00  0.00    +0.000 A 
ATOM      2  C   UNL     1      45.379   4.185  12.615  0.00  0.00    +0.000 A 
ATOM      3  C   UNL     1      46.186   5.231  13.068  0.00  0.00    +0.000 A 
ATOM      4  C   UNL     1      45.906   6.550  12.695  0.00  0.00    +0.000 A 
ATOM      5  C   UNL     1      44.814   6.795  11.854  0.00  0.00    +0.000 A 
ATOM      6  C   UNL     1      44.009   5.744  11.395  0.00  0.00    +0.000 A 
ENDROOT
BRANCH   1   7
ATOM      7  C   UNL     1      43.431   3.297  11.206  0.00  0.00    +0.000 C 
BRANCH   7   8
ATOM      8  N   UNL     1      44.220   2.313  10.463  0.00  0.00    +0.000 NA
ATOM      9  H   UNL     1      45.141   2.280  10.898  0.00  0.00    +0.000 HD
BRANCH   8  10
ATOM     10  C   UNL     1      44.389   2.673   9.054  0.00  0.00    +0.000 C 
BRANCH  10  12
ATOM     11  C   UNL     1      45.818   4.758   8.590  0.00  0.00    +0.000 C 
ATOM     12  C   UNL     1      45.806   3.237   8.801  0.00  0.00    +0.000 C 
BRANCH  12  13
ATOM     13  C   UNL     1      46.418   2.564   7.589  0.00  0.00    +0.000 A 
ATOM     14  C   UNL     1      46.576   3.265   6.396  0.00  0.00    +0.000 A 
ATOM     15  C   UNL     1      47.070   2.590   5.284  0.00  0.00    +0.000 A 
ATOM     16  C   UNL     1      47.396   1.244   5.391  0.00  0.00    +0.000 A 
ATOM     17  C   UNL     1      47.229   0.627   6.618  0.00  0.00    +0.000 A 
ATOM     18  N   UNL     1      46.756   1.256   7.712  0.00  0.00    +0.000 NA
ENDBRANCH  12  13
ENDBRANCH  10  12
ENDBRANCH   8  10
ENDBRANCH   7   8
ENDBRANCH   1   7
BRANCH   4  19
ATOM     19  C   UNL     1      46.786   7.682  13.150  0.00  0.00    +0.000 C 
BRANCH  19  20
ATOM     20  N   UNL     1      47.444   7.364  14.392  0.00  0.00    +0.000 N 
ATOM     21  C   UNL     1      48.728   6.884  14.416  0.00  0.00    +0.000 C 
ATOM     22  O   UNL     1      49.389   6.732  13.392  0.00  0.00    +0.000 OA
ATOM     23  H   UNL     1      46.848   7.223  15.202  0.00  0.00    +0.000 HD
BRANCH  21  24
ATOM     24  C   UNL     1      49.296   6.607  15.741  0.00  0.00    +0.000 A 
ATOM     25  C   UNL     1      50.353   7.374  16.213  0.00  0.00    +0.000 A 
ATOM     26  S   UNL     1      50.878   6.925  17.773  0.00  0.00    +0.000 S 
ATOM     27  C   UNL     1      49.741   5.661  17.853  0.00  0.00    +0.000 A 
ATOM     28  N   UNL     1      49.683   4.837  18.933  0.00  0.00    +0.000 NA
ATOM     29  C   UNL     1      48.792   3.908  18.849  0.00  0.00    +0.000 A 
ATOM     30  N   UNL     1      47.941   3.735  17.785  0.00  0.00    +0.000 N 
ATOM     31  C   UNL     1      47.942   4.565  16.690  0.00  0.00    +0.000 A 
ATOM     32  O   UNL     1      47.126   4.419  15.783  0.00  0.00    +0.000 OA
ATOM     33  C   UNL     1      48.947   5.607  16.721  0.00  0.00    +0.000 A 
ATOM     34  H   UNL     1      47.246   3.007  17.794  0.00  0.00    +0.000 HD
ENDBRANCH  21  24
ENDBRANCH  19  20
ENDBRANCH   4  19
TORSDOF 8
ENDMDL
MODEL 2
REMARK VINA RESULT:    -7.468      4.146      9.306
REMARK INTER + INTRA:         -12.151
REMARK INTER:                  -9.454
REMARK INTRA:                  -2.698
REMARK UNBOUND:                -1.191
REMARK  Name = 
REMARK  9 active torsions:
REMARK  status: ('A' for Active; 'I' for Inactive)
REMARK    1  A    between atoms: C_1  and  C_2
REMARK    2  A    between atoms: C_2  and  C_3
REMARK    3  A    between atoms: C_2  and  C_26
REMARK    4  A    between atoms: C_3  and  N_4
REMARK    5  A    between atoms: N_4  and  C_5
REMARK    6  A    between atoms: C_5  and  C_6
REMARK    7  A    between atoms: C_9  and  C_10
REMARK    8  A    between atoms: C_10  and  N_11
REMARK    9  A    between atoms: C_12  and  C_14
REMARK                            x       y       z     vdW  Elec       q    Type
REMARK                         _______ _______ _______ _____ _____    ______ ____
ROOT
ATOM      1  C   UNL     1      48.175   5.533  20.476  0.00  0.00    +0.000 A 
ATOM      2  C   UNL     1      48.883   4.393  20.061  0.00  0.00    +0.000 A 
ATOM      3  C   UNL     1      48.603   3.766  18.845  0.00  0.00    +0.000 A 
ATOM      4  C   UNL     1      47.620   4.285  17.995  0.00  0.00    +0.000 A 
ATOM      5  C   UNL     1      46.920   5.431  18.394  0.00  0.00    +0.000 A 
ATOM      6  C   UNL     1      47.198   6.054  19.618  0.00  0.00    +0.000 A 
ENDROOT
BRANCH   1   7
ATOM      7  C   UNL     1      48.422   6.201  21.818  0.00  0.00    +0.000 C 
BRANCH   7   8
ATOM      8  N   UNL     1      49.024   7.527  21.671  0.00  0.00    +0.000 NA
ATOM      9  H   UNL     1      48.331   8.120  21.214  0.00  0.00    +0.000 HD
BRANCH   8  10
ATOM     10  C   UNL     1      50.232   7.510  20.844  0.00  0.00    +0.000 C 
BRANCH  10  12
ATOM     11  C   UNL     1      48.937   9.498  19.859  0.00  0.00    +0.000 C 
ATOM     12  C   UNL     1      50.120   8.533  19.692  0.00  0.00    +0.000 C 
BRANCH  12  13
ATOM     13  C   UNL     1      49.982   7.806  18.369  0.00  0.00    +0.000 A 
ATOM     14  C   UNL     1      50.806   6.726  18.067  0.00  0.00    +0.000 A 
ATOM     15  C   UNL     1      50.702   6.135  16.811  0.00  0.00    +0.000 A 
ATOM     16  C   UNL     1      49.780   6.631  15.897  0.00  0.00    +0.000 A 
ATOM     17  C   UNL     1      48.985   7.695  16.285  0.00  0.00    +0.000 A 
ATOM     18  N   UNL     1      49.061   8.284  17.494  0.00  0.00    +0.000 NA
ENDBRANCH  12  13
ENDBRANCH  10  12
ENDBRANCH   8  10
ENDBRANCH   7   8
ENDBRANCH   1   7
BRANCH   4  19
ATOM     19  C   UNL     1      47.285   3.602  16.698  0.00  0.00    +0.000 C 
BRANCH  19  20
ATOM     20  N   UNL     1      46.750   4.536  15.739  0.00  0.00    +0.000 N 
ATOM     21  C   UNL     1      46.787   4.277  14.394  0.00  0.00    +0.000 C 
ATOM     22  O   UNL     1      47.245   3.230  13.942  0.00  0.00    +0.000 OA
ATOM     23  H   UNL     1      46.623   5.493  16.055  0.00  0.00    +0.000 HD
BRANCH  21  24
ATOM     24  C   UNL     1      46.202   5.297  13.517  0.00  0.00    +0.000 A 
ATOM     25  C   UNL     1      46.900   6.469  13.258  0.00  0.00    +0.000 A 
ATOM     26  S   UNL     1      46.080   7.536  12.209  0.00  0.00    +0.000 S 
ATOM     27  C   UNL     1      44.743   6.488  12.099  0.00  0.00    +0.000 A 
ATOM     28  N   UNL     1      43.645   6.827  11.372  0.00  0.00    +0.000 NA
ATOM     29  C   UNL     1      42.698   5.951  11.398  0.00  0.00    +0.000 A 
ATOM     30  N   UNL     1      42.753   4.758  12.076  0.00  0.00    +0.000 N 
ATOM     31  C   UNL     1      43.854   4.363  12.794  0.00  0.00    +0.000 A 
ATOM     32  O   UNL     1      43.895   3.262  13.338  0.00  0.00    +0.000 OA
ATOM     33  C   UNL     1      44.937   5.324  12.823  0.00  0.00    +0.000 A 
ATOM     34  H   UNL     1      41.989   4.104  12.030  0.00  0.00    +0.000 HD
ENDBRANCH  21  24
ENDBRANCH  19  20
ENDBRANCH   4  19
TORSDOF 8
ENDMDL
MODEL 3
REMARK VINA RESULT:    -7.429      3.981     10.062
REMARK INTER + INTRA:         -12.094
REMARK INTER:                  -9.547
REMARK INTRA:                  -2.547
REMARK UNBOUND:                -1.191
REMARK  Name = 
REMARK  9 active torsions:
REMARK  status: ('A' for Active; 'I' for Inactive)
REMARK    1  A    between atoms: C_1  and  C_2
REMARK    2  A    between atoms: C_2  and  C_3
REMARK    3  A    between atoms: C_2  and  C_26
REMARK    4  A    between atoms: C_3  and  N_4
REMARK    5  A    between atoms: N_4  and  C_5
REMARK    6  A    between atoms: C_5  and  C_6
REMARK    7  A    between atoms: C_9  and  C_10
REMARK    8  A    between atoms: C_10  and  N_11
REMARK    9  A    between atoms: C_12  and  C_14
REMARK                            x       y       z     vdW  Elec       q    Type
REMARK                         _______ _______ _______ _____ _____    ______ ____
ROOT
ATOM      1  C   UNL     1      51.330   5.164  17.894  0.00  0.00    +0.000 A 
ATOM      2  C   UNL     1      51.006   3.807  18.053  0.00  0.00    +0.000 A 
ATOM      3  C   UNL     1      49.774   3.300  17.636  0.00  0.00    +0.000 A 
ATOM      4  C   UNL     1      48.840   4.140  17.018  0.00  0.00    +0.000 A 
ATOM      5  C   UNL     1      49.161   5.491  16.841  0.00  0.00    +0.000 A 
ATOM      6  C   UNL     1      50.396   5.999  17.267  0.00  0.00    +0.000 A 
ENDROOT
BRANCH   1   7
ATOM      7  C   UNL     1      52.641   5.752  18.388  0.00  0.00    +0.000 C 
BRANCH   7   8
ATOM      8  N   UNL     1      52.754   5.694  19.847  0.00  0.00    +0.000 NA
ATOM      9  H   UNL     1      52.261   4.855  20.151  0.00  0.00    +0.000 HD
BRANCH   8  10
ATOM     10  C   UNL     1      52.146   6.851  20.507  0.00  0.00    +0.000 C 
BRANCH  10  12
ATOM     11  C   UNL     1      50.962   4.906  21.697  0.00  0.00    +0.000 C 
ATOM     12  C   UNL     1      50.961   6.412  21.395  0.00  0.00    +0.000 C 
BRANCH  12  13
ATOM     13  C   UNL     1      49.652   6.781  20.727  0.00  0.00    +0.000 A 
ATOM     14  C   UNL     1      48.609   5.862  20.659  0.00  0.00    +0.000 A 
ATOM     15  C   UNL     1      47.452   6.211  19.968  0.00  0.00    +0.000 A 
ATOM     16  C   UNL     1      47.365   7.463  19.372  0.00  0.00    +0.000 A 
ATOM     17  C   UNL     1      48.439   8.325  19.504  0.00  0.00    +0.000 A 
ATOM     18  N   UNL     1      49.569   8.015  20.170  0.00  0.00    +0.000 NA
ENDBRANCH  12  13
ENDBRANCH  10  12
ENDBRANCH   8  10
ENDBRANCH   7   8
ENDBRANCH   1   7
BRANCH   4  19
ATOM     19  C   UNL     1      47.496   3.615  16.593  0.00  0.00    +0.000 C 
BRANCH  19  20
ATOM     20  N   UNL     1      46.853   4.515  15.669  0.00  0.00    +0.000 N 
ATOM     21  C   UNL     1      46.826   4.255  14.323  0.00  0.00    +0.000 C 
ATOM     22  O   UNL     1      47.316   3.236  13.844  0.00  0.00    +0.000 OA
ATOM     23  H   UNL     1      46.690   5.463  15.993  0.00  0.00    +0.000 HD
BRANCH  21  24
ATOM     24  C   UNL     1      46.133   5.239  13.483  0.00  0.00    +0.000 A 
ATOM     25  C   UNL     1      46.648   6.522  13.354  0.00  0.00    +0.000 A 
ATOM     26  S   UNL     1      45.724   7.528  12.330  0.00  0.00    +0.000 S 
ATOM     27  C   UNL     1      44.582   6.297  12.058  0.00  0.00    +0.000 A 
ATOM     28  N   UNL     1      43.485   6.517  11.286  0.00  0.00    +0.000 NA
ATOM     29  C   UNL     1      42.690   5.505  11.187  0.00  0.00    +0.000 A 
ATOM     30  N   UNL     1      42.900   4.285  11.781  0.00  0.00    +0.000 N 
ATOM     31  C   UNL     1      44.010   4.010  12.541  0.00  0.00    +0.000 A 
ATOM     32  O   UNL     1      44.197   2.889  13.009  0.00  0.00    +0.000 OA
ATOM     33  C   UNL     1      44.920   5.123  12.710  0.00  0.00    +0.000 A 
ATOM     34  H   UNL     1      42.254   3.525  11.639  0.00  0.00    +0.000 HD
ENDBRANCH  21  24
ENDBRANCH  19  20
ENDBRANCH   4  19
TORSDOF 8
ENDMDL
MODEL 4
REMARK VINA RESULT:    -7.368      2.434      2.921
REMARK INTER + INTRA:         -12.006
REMARK INTER:                 -10.971
REMARK INTRA:                  -1.035
REMARK UNBOUND:                -1.191
REMARK  Name = 
REMARK  9 active torsions:
REMARK  status: ('A' for Active; 'I' for Inactive)
REMARK    1  A    between atoms: C_1  and  C_2
REMARK    2  A    between atoms: C_2  and  C_3
REMARK    3  A    between atoms: C_2  and  C_26
REMARK    4  A    between atoms: C_3  and  N_4
REMARK    5  A    between atoms: N_4  and  C_5
REMARK    6  A    between atoms: C_5  and  C_6
REMARK    7  A    between atoms: C_9  and  C_10
REMARK    8  A    between atoms: C_10  and  N_11
REMARK    9  A    between atoms: C_12  and  C_14
REMARK                            x       y       z     vdW  Elec       q    Type
REMARK                         _______ _______ _______ _____ _____    ______ ____
ROOT
ATOM      1  C   UNL     1      44.867   5.597  11.970  0.00  0.00    +0.000 A 
ATOM      2  C   UNL     1      45.466   4.721  12.890  0.00  0.00    +0.000 A 
ATOM      3  C   UNL     1      46.593   5.097  13.624  0.00  0.00    +0.000 A 
ATOM      4  C   UNL     1      47.135   6.379  13.475  0.00  0.00    +0.000 A 
ATOM      5  C   UNL     1      46.536   7.264  12.570  0.00  0.00    +0.000 A 
ATOM      6  C   UNL     1      45.409   6.882  11.830  0.00  0.00    +0.000 A 
ENDROOT
BRANCH   1   7
ATOM      7  C   UNL     1      43.676   5.194  11.118  0.00  0.00    +0.000 C 
BRANCH   7   8
ATOM      8  N   UNL     1      44.007   5.150   9.693  0.00  0.00    +0.000 NA
ATOM      9  H   UNL     1      43.199   4.759   9.211  0.00  0.00    +0.000 HD
BRANCH   8  10
ATOM     10  C   UNL     1      45.167   4.303   9.409  0.00  0.00    +0.000 C 
BRANCH  10  12
ATOM     11  C   UNL     1      44.385   1.862   9.596  0.00  0.00    +0.000 C 
ATOM     12  C   UNL     1      44.737   3.024   8.656  0.00  0.00    +0.000 C 
BRANCH  12  13
ATOM     13  C   UNL     1      45.843   2.583   7.718  0.00  0.00    +0.000 A 
ATOM     14  C   UNL     1      46.191   3.364   6.619  0.00  0.00    +0.000 A 
ATOM     15  C   UNL     1      47.156   2.887   5.738  0.00  0.00    +0.000 A 
ATOM     16  C   UNL     1      47.749   1.653   5.976  0.00  0.00    +0.000 A 
ATOM     17  C   UNL     1      47.360   0.949   7.102  0.00  0.00    +0.000 A 
ATOM     18  N   UNL     1      46.431   1.388   7.975  0.00  0.00    +0.000 NA
ENDBRANCH  12  13
ENDBRANCH  10  12
ENDBRANCH   8  10
ENDBRANCH   7   8
ENDBRANCH   1   7
BRANCH   4  19
ATOM     19  C   UNL     1      48.368   6.786  14.235  0.00  0.00    +0.000 C 
BRANCH  19  20
ATOM     20  N   UNL     1      48.103   6.876  15.648  0.00  0.00    +0.000 N 
ATOM     21  C   UNL     1      48.951   6.319  16.570  0.00  0.00    +0.000 C 
ATOM     22  O   UNL     1      49.988   5.748  16.243  0.00  0.00    +0.000 OA
ATOM     23  H   UNL     1      47.149   7.093  15.921  0.00  0.00    +0.000 HD
BRANCH  21  24
ATOM     24  C   UNL     1      48.582   6.486  17.981  0.00  0.00    +0.000 A 
ATOM     25  C   UNL     1      48.664   5.405  18.848  0.00  0.00    +0.000 A 
ATOM     26  S   UNL     1      48.211   5.779  20.450  0.00  0.00    +0.000 S 
ATOM     27  C   UNL     1      47.848   7.388  20.030  0.00  0.00    +0.000 A 
ATOM     28  N   UNL     1      47.360   8.260  20.952  0.00  0.00    +0.000 NA
ATOM     29  C   UNL     1      47.105   9.438  20.491  0.00  0.00    +0.000 A 
ATOM     30  N   UNL     1      47.307   9.828  19.190  0.00  0.00    +0.000 N 
ATOM     31  C   UNL     1      47.830   8.991  18.236  0.00  0.00    +0.000 A 
ATOM     32  O   UNL     1      48.055   9.390  17.095  0.00  0.00    +0.000 OA
ATOM     33  C   UNL     1      48.105   7.645  18.694  0.00  0.00    +0.000 A 
ATOM     34  H   UNL     1      47.115  10.774  18.900  0.00  0.00    +0.000 HD
ENDBRANCH  21  24
ENDBRANCH  19  20
ENDBRANCH   4  19
TORSDOF 8
ENDMDL
MODEL 5
REMARK VINA RESULT:    -7.325      3.232      6.064
REMARK INTER + INTRA:         -11.942
REMARK INTER:                 -10.708
REMARK INTRA:                  -1.235
REMARK UNBOUND:                -1.191
REMARK  Name = 
REMARK  9 active torsions:
REMARK  status: ('A' for Active; 'I' for Inactive)
REMARK    1  A    between atoms: C_1  and  C_2
REMARK    2  A    between atoms: C_2  and  C_3
REMARK    3  A    between atoms: C_2  and  C_26
REMARK    4  A    between atoms: C_3  and  N_4
REMARK    5  A    between atoms: N_4  and  C_5
REMARK    6  A    between atoms: C_5  and  C_6
REMARK    7  A    between atoms: C_9  and  C_10
REMARK    8  A    between atoms: C_10  and  N_11
REMARK    9  A    between atoms: C_12  and  C_14
REMARK                            x       y       z     vdW  Elec       q    Type
REMARK                         _______ _______ _______ _____ _____    ______ ____
ROOT
ATOM      1  C   UNL     1      47.079   2.076   6.613  0.00  0.00    +0.000 A 
ATOM      2  C   UNL     1      46.609   1.194   7.601  0.00  0.00    +0.000 A 
ATOM      3  C   UNL     1      45.769   1.632   8.626  0.00  0.00    +0.000 A 
ATOM      4  C   UNL     1      45.351   2.968   8.673  0.00  0.00    +0.000 A 
ATOM      5  C   UNL     1      45.802   3.850   7.684  0.00  0.00    +0.000 A 
ATOM      6  C   UNL     1      46.651   3.409   6.659  0.00  0.00    +0.000 A 
ENDROOT
BRANCH   1   7
ATOM      7  C   UNL     1      48.038   1.638   5.520  0.00  0.00    +0.000 C 
BRANCH   7   8
ATOM      8  N   UNL     1      47.441   0.638   4.632  0.00  0.00    +0.000 NA
ATOM      9  H   UNL     1      48.128   0.435   3.908  0.00  0.00    +0.000 HD
BRANCH   8  10
ATOM     10  C   UNL     1      46.217   1.116   3.985  0.00  0.00    +0.000 C 
BRANCH  10  12
ATOM     11  C   UNL     1      44.662   0.499   2.035  0.00  0.00    +0.000 C 
ATOM     12  C   UNL     1      46.109   0.562   2.547  0.00  0.00    +0.000 C 
BRANCH  12  13
ATOM     13  C   UNL     1      46.717  -0.824   2.482  0.00  0.00    +0.000 A 
ATOM     14  C   UNL     1      45.987  -1.936   2.892  0.00  0.00    +0.000 A 
ATOM     15  C   UNL     1      46.608  -3.182   2.890  0.00  0.00    +0.000 A 
ATOM     16  C   UNL     1      47.931  -3.285   2.478  0.00  0.00    +0.000 A 
ATOM     17  C   UNL     1      48.578  -2.134   2.067  0.00  0.00    +0.000 A 
ATOM     18  N   UNL     1      48.001  -0.916   2.054  0.00  0.00    +0.000 NA
ENDBRANCH  12  13
ENDBRANCH  10  12
ENDBRANCH   8  10
ENDBRANCH   7   8
ENDBRANCH   1   7
BRANCH   4  19
ATOM     19  C   UNL     1      44.473   3.461   9.790  0.00  0.00    +0.000 C 
BRANCH  19  20
ATOM     20  N   UNL     1      45.025   4.641  10.405  0.00  0.00    +0.000 N 
ATOM     21  C   UNL     1      44.253   5.471  11.176  0.00  0.00    +0.000 C 
ATOM     22  O   UNL     1      43.069   5.236  11.406  0.00  0.00    +0.000 OA
ATOM     23  H   UNL     1      45.896   4.993  10.019  0.00  0.00    +0.000 HD
BRANCH  21  24
ATOM     24  C   UNL     1      44.929   6.636  11.759  0.00  0.00    +0.000 A 
ATOM     25  C   UNL     1      44.551   7.917  11.377  0.00  0.00    +0.000 A 
ATOM     26  S   UNL     1      45.430   9.150  12.162  0.00  0.00    +0.000 S 
ATOM     27  C   UNL     1      46.376   8.015  13.007  0.00  0.00    +0.000 A 
ATOM     28  N   UNL     1      47.372   8.415  13.842  0.00  0.00    +0.000 NA
ATOM     29  C   UNL     1      48.024   7.450  14.396  0.00  0.00    +0.000 A 
ATOM     30  N   UNL     1      47.763   6.116  14.200  0.00  0.00    +0.000 N 
ATOM     31  C   UNL     1      46.746   5.669  13.393  0.00  0.00    +0.000 A 
ATOM     32  O   UNL     1      46.500   4.469  13.287  0.00  0.00    +0.000 OA
ATOM     33  C   UNL     1      46.001   6.714  12.721  0.00  0.00    +0.000 A 
ATOM     34  H   UNL     1      48.291   5.410  14.687  0.00  0.00    +0.000 HD
ENDBRANCH  21  24
ENDBRANCH  19  20
ENDBRANCH   4  19
TORSDOF 8
ENDMDL
MODEL 6
REMARK VINA RESULT:    -7.318      1.701      2.954
REMARK INTER + INTRA:         -11.932
REMARK INTER:                 -10.082
REMARK INTRA:                  -1.850
REMARK UNBOUND:                -1.191
REMARK  Name = 
REMARK  9 active torsions:
REMARK  status: ('A' for Active; 'I' for Inactive)
REMARK    1  A    between atoms: C_1  and  C_2
REMARK    2  A    between atoms: C_2  and  C_3
REMARK    3  A    between atoms: C_2  and  C_26
REMARK    4  A    between atoms: C_3  and  N_4
REMARK    5  A    between atoms: N_4  and  C_5
REMARK    6  A    between atoms: C_5  and  C_6
REMARK    7  A    between atoms: C_9  and  C_10
REMARK    8  A    between atoms: C_10  and  N_11
REMARK    9  A    between atoms: C_12  and  C_14
REMARK                            x       y       z     vdW  Elec       q    Type
REMARK                         _______ _______ _______ _____ _____    ______ ____
ROOT
ATOM      1  C   UNL     1      45.577   7.630  11.983  0.00  0.00    +0.000 A 
ATOM      2  C   UNL     1      45.865   8.682  12.868  0.00  0.00    +0.000 A 
ATOM      3  C   UNL     1      47.121   8.807  13.464  0.00  0.00    +0.000 A 
ATOM      4  C   UNL     1      48.137   7.893  13.165  0.00  0.00    +0.000 A 
ATOM      5  C   UNL     1      47.864   6.850  12.271  0.00  0.00    +0.000 A 
ATOM      6  C   UNL     1      46.601   6.722  11.679  0.00  0.00    +0.000 A 
ENDROOT
BRANCH   1   7
ATOM      7  C   UNL     1      44.204   7.439  11.364  0.00  0.00    +0.000 C 
BRANCH   7   8
ATOM      8  N   UNL     1      43.470   6.333  11.982  0.00  0.00    +0.000 NA
ATOM      9  H   UNL     1      44.125   5.845  12.592  0.00  0.00    +0.000 HD
BRANCH   8  10
ATOM     10  C   UNL     1      42.957   5.376  10.999  0.00  0.00    +0.000 C 
BRANCH  10  12
ATOM     11  C   UNL     1      44.352   3.878  12.552  0.00  0.00    +0.000 C 
ATOM     12  C   UNL     1      43.543   3.969  11.249  0.00  0.00    +0.000 C 
BRANCH  12  13
ATOM     13  C   UNL     1      44.430   3.567  10.088  0.00  0.00    +0.000 A 
ATOM     14  C   UNL     1      44.974   4.533   9.246  0.00  0.00    +0.000 A 
ATOM     15  C   UNL     1      45.718   4.120   8.145  0.00  0.00    +0.000 A 
ATOM     16  C   UNL     1      45.903   2.762   7.917  0.00  0.00    +0.000 A 
ATOM     17  C   UNL     1      45.346   1.867   8.813  0.00  0.00    +0.000 A 
ATOM     18  N   UNL     1      44.624   2.239   9.889  0.00  0.00    +0.000 NA
ENDBRANCH  12  13
ENDBRANCH  10  12
ENDBRANCH   8  10
ENDBRANCH   7   8
ENDBRANCH   1   7
BRANCH   4  19
ATOM     19  C   UNL     1      49.485   7.997  13.825  0.00  0.00    +0.000 C 
BRANCH  19  20
ATOM     20  N   UNL     1      49.569   7.135  14.977  0.00  0.00    +0.000 N 
ATOM     21  C   UNL     1      49.265   7.592  16.233  0.00  0.00    +0.000 C 
ATOM     22  O   UNL     1      48.877   8.740  16.435  0.00  0.00    +0.000 OA
ATOM     23  H   UNL     1      50.131   6.294  14.879  0.00  0.00    +0.000 HD
BRANCH  21  24
ATOM     24  C   UNL     1      49.376   6.619  17.326  0.00  0.00    +0.000 A 
ATOM     25  C   UNL     1      50.104   6.940  18.465  0.00  0.00    +0.000 A 
ATOM     26  S   UNL     1      50.117   5.701  19.638  0.00  0.00    +0.000 S 
ATOM     27  C   UNL     1      49.188   4.676  18.647  0.00  0.00    +0.000 A 
ATOM     28  N   UNL     1      48.868   3.416  19.046  0.00  0.00    +0.000 NA
ATOM     29  C   UNL     1      48.183   2.742  18.186  0.00  0.00    +0.000 A 
ATOM     30  N   UNL     1      47.775   3.219  16.964  0.00  0.00    +0.000 N 
ATOM     31  C   UNL     1      48.046   4.495  16.537  0.00  0.00    +0.000 A 
ATOM     32  O   UNL     1      47.613   4.911  15.464  0.00  0.00    +0.000 OA
ATOM     33  C   UNL     1      48.841   5.286  17.453  0.00  0.00    +0.000 A 
ATOM     34  H   UNL     1      47.215   2.650  16.350  0.00  0.00    +0.000 HD
ENDBRANCH  21  24
ENDBRANCH  19  20
ENDBRANCH   4  19
TORSDOF 8
ENDMDL
MODEL 7
REMARK VINA RESULT:    -7.237      2.905      8.860
REMARK INTER + INTRA:         -11.813
REMARK INTER:                 -10.004
REMARK INTRA:                  -1.809
REMARK UNBOUND:                -1.191
REMARK  Name = 
REMARK  9 active torsions:
REMARK  status: ('A' for Active; 'I' for Inactive)
REMARK    1  A    between atoms: C_1  and  C_2
REMARK    2  A    between atoms: C_2  and  C_3
REMARK    3  A    between atoms: C_2  and  C_26
REMARK    4  A    between atoms: C_3  and  N_4
REMARK    5  A    between atoms: N_4  and  C_5
REMARK    6  A    between atoms: C_5  and  C_6
REMARK    7  A    between atoms: C_9  and  C_10
REMARK    8  A    between atoms: C_10  and  N_11
REMARK    9  A    between atoms: C_12  and  C_14
REMARK                            x       y       z     vdW  Elec       q    Type
REMARK                         _______ _______ _______ _____ _____    ______ ____
ROOT
ATOM      1  C   UNL     1      50.559   7.432  15.263  0.00  0.00    +0.000 A 
ATOM      2  C   UNL     1      49.263   6.895  15.336  0.00  0.00    +0.000 A 
ATOM      3  C   UNL     1      48.377   6.986  14.260  0.00  0.00    +0.000 A 
ATOM      4  C   UNL     1      48.778   7.598  13.067  0.00  0.00    +0.000 A 
ATOM      5  C   UNL     1      50.073   8.123  12.980  0.00  0.00    +0.000 A 
ATOM      6  C   UNL     1      50.959   8.036  14.063  0.00  0.00    +0.000 A 
ENDROOT
BRANCH   1   7
ATOM      7  C   UNL     1      51.523   7.396  16.436  0.00  0.00    +0.000 C 
BRANCH   7   8
ATOM      8  N   UNL     1      51.844   6.026  16.842  0.00  0.00    +0.000 NA
ATOM      9  H   UNL     1      51.277   5.404  16.267  0.00  0.00    +0.000 HD
BRANCH   8  10
ATOM     10  C   UNL     1      51.532   5.766  18.249  0.00  0.00    +0.000 C 
BRANCH  10  12
ATOM     11  C   UNL     1      52.021   3.288  17.778  0.00  0.00    +0.000 C 
ATOM     12  C   UNL     1      51.080   4.302  18.445  0.00  0.00    +0.000 C 
BRANCH  12  13
ATOM     13  C   UNL     1      49.681   4.116  17.893  0.00  0.00    +0.000 A 
ATOM     14  C   UNL     1      48.640   4.940  18.312  0.00  0.00    +0.000 A 
ATOM     15  C   UNL     1      47.355   4.687  17.841  0.00  0.00    +0.000 A 
ATOM     16  C   UNL     1      47.144   3.629  16.966  0.00  0.00    +0.000 A 
ATOM     17  C   UNL     1      48.236   2.871  16.584  0.00  0.00    +0.000 A 
ATOM     18  N   UNL     1      49.492   3.094  17.020  0.00  0.00    +0.000 NA
ENDBRANCH  12  13
ENDBRANCH  10  12
ENDBRANCH   8  10
ENDBRANCH   7   8
ENDBRANCH   1   7
BRANCH   4  19
ATOM     19  C   UNL     1      47.823   7.733  11.913  0.00  0.00    +0.000 C 
BRANCH  19  20
ATOM     20  N   UNL     1      47.061   6.524  11.722  0.00  0.00    +0.000 N 
ATOM     21  C   UNL     1      45.696   6.516  11.838  0.00  0.00    +0.000 C 
ATOM     22  O   UNL     1      45.054   7.536  12.076  0.00  0.00    +0.000 OA
ATOM     23  H   UNL     1      47.569   5.647  11.796  0.00  0.00    +0.000 HD
BRANCH  21  24
ATOM     24  C   UNL     1      45.029   5.228  11.611  0.00  0.00    +0.000 A 
ATOM     25  C   UNL     1      44.321   4.626  12.643  0.00  0.00    +0.000 A 
ATOM     26  S   UNL     1      43.600   3.144  12.201  0.00  0.00    +0.000 S 
ATOM     27  C   UNL     1      44.245   3.235  10.629  0.00  0.00    +0.000 A 
ATOM     28  N   UNL     1      44.037   2.239   9.728  0.00  0.00    +0.000 NA
ATOM     29  C   UNL     1      44.605   2.426   8.585  0.00  0.00    +0.000 A 
ATOM     30  N   UNL     1      45.355   3.529   8.255  0.00  0.00    +0.000 N 
ATOM     31  C   UNL     1      45.561   4.572   9.123  0.00  0.00    +0.000 A 
ATOM     32  O   UNL     1      46.186   5.573   8.776  0.00  0.00    +0.000 OA
ATOM     33  C   UNL     1      44.970   4.398  10.433  0.00  0.00    +0.000 A 
ATOM     34  H   UNL     1      45.747   3.628   7.333  0.00  0.00    +0.000 HD
ENDBRANCH  21  24
ENDBRANCH  19  20
ENDBRANCH   4  19
TORSDOF 8
ENDMDL
MODEL 8
REMARK VINA RESULT:    -7.193      2.492      3.818
REMARK INTER + INTRA:         -11.748
REMARK INTER:                 -10.292
REMARK INTRA:                  -1.455
REMARK UNBOUND:                -1.191
REMARK  Name = 
REMARK  9 active torsions:
REMARK  status: ('A' for Active; 'I' for Inactive)
REMARK    1  A    between atoms: C_1  and  C_2
REMARK    2  A    between atoms: C_2  and  C_3
REMARK    3  A    between atoms: C_2  and  C_26
REMARK    4  A    between atoms: C_3  and  N_4
REMARK    5  A    between atoms: N_4  and  C_5
REMARK    6  A    between atoms: C_5  and  C_6
REMARK    7  A    between atoms: C_9  and  C_10
REMARK    8  A    between atoms: C_10  and  N_11
REMARK    9  A    between atoms: C_12  and  C_14
REMARK                            x       y       z     vdW  Elec       q    Type
REMARK                         _______ _______ _______ _____ _____    ______ ____
ROOT
ATOM      1  C   UNL     1      45.997   7.454  12.341  0.00  0.00    +0.000 A 
ATOM      2  C   UNL     1      46.352   8.472  13.242  0.00  0.00    +0.000 A 
ATOM      3  C   UNL     1      47.540   8.412  13.973  0.00  0.00    +0.000 A 
ATOM      4  C   UNL     1      48.422   7.339  13.799  0.00  0.00    +0.000 A 
ATOM      5  C   UNL     1      48.083   6.328  12.892  0.00  0.00    +0.000 A 
ATOM      6  C   UNL     1      46.886   6.386  12.163  0.00  0.00    +0.000 A 
ENDROOT
BRANCH   1   7
ATOM      7  C   UNL     1      44.685   7.466  11.575  0.00  0.00    +0.000 C 
BRANCH   7   8
ATOM      8  N   UNL     1      43.730   6.490  12.102  0.00  0.00    +0.000 NA
ATOM      9  H   UNL     1      44.252   5.862  12.711  0.00  0.00    +0.000 HD
BRANCH   8  10
ATOM     10  C   UNL     1      43.099   5.691  11.049  0.00  0.00    +0.000 C 
BRANCH  10  12
ATOM     11  C   UNL     1      44.077   3.884  12.591  0.00  0.00    +0.000 C 
ATOM     12  C   UNL     1      43.410   4.190  11.242  0.00  0.00    +0.000 C 
BRANCH  12  13
ATOM     13  C   UNL     1      44.308   3.702  10.124  0.00  0.00    +0.000 A 
ATOM     14  C   UNL     1      44.975   4.609   9.305  0.00  0.00    +0.000 A 
ATOM     15  C   UNL     1      45.728   4.123   8.241  0.00  0.00    +0.000 A 
ATOM     16  C   UNL     1      45.800   2.752   8.025  0.00  0.00    +0.000 A 
ATOM     17  C   UNL     1      45.124   1.918   8.897  0.00  0.00    +0.000 A 
ATOM     18  N   UNL     1      44.391   2.361   9.938  0.00  0.00    +0.000 NA
ENDBRANCH  12  13
ENDBRANCH  10  12
ENDBRANCH   8  10
ENDBRANCH   7   8
ENDBRANCH   1   7
BRANCH   4  19
ATOM     19  C   UNL     1      49.689   7.246  14.604  0.00  0.00    +0.000 C 
BRANCH  19  20
ATOM     20  N   UNL     1      49.408   7.234  16.018  0.00  0.00    +0.000 N 
ATOM     21  C   UNL     1      48.872   6.130  16.629  0.00  0.00    +0.000 C 
ATOM     22  O   UNL     1      48.636   5.093  16.014  0.00  0.00    +0.000 OA
ATOM     23  H   UNL     1      49.338   8.136  16.478  0.00  0.00    +0.000 HD
BRANCH  21  24
ATOM     24  C   UNL     1      48.641   6.232  18.074  0.00  0.00    +0.000 A 
ATOM     25  C   UNL     1      48.900   5.141  18.894  0.00  0.00    +0.000 A 
ATOM     26  S   UNL     1      48.589   5.440  20.545  0.00  0.00    +0.000 S 
ATOM     27  C   UNL     1      48.057   7.022  20.217  0.00  0.00    +0.000 A 
ATOM     28  N   UNL     1      47.600   7.829  21.211  0.00  0.00    +0.000 NA
ATOM     29  C   UNL     1      47.204   8.991  20.816  0.00  0.00    +0.000 A 
ATOM     30  N   UNL     1      47.236   9.428  19.514  0.00  0.00    +0.000 N 
ATOM     31  C   UNL     1      47.721   8.659  18.485  0.00  0.00    +0.000 A 
ATOM     32  O   UNL     1      47.793   9.102  17.341  0.00  0.00    +0.000 OA
ATOM     33  C   UNL     1      48.150   7.331  18.870  0.00  0.00    +0.000 A 
ATOM     34  H   UNL     1      46.940  10.360  19.276  0.00  0.00    +0.000 HD
ENDBRANCH  21  24
ENDBRANCH  19  20
ENDBRANCH   4  19
TORSDOF 8
ENDMDL
MODEL 9
REMARK VINA RESULT:    -6.801      4.118      9.269
REMARK INTER + INTRA:         -11.173
REMARK INTER:                  -8.489
REMARK INTRA:                  -2.684
REMARK UNBOUND:                -1.191
REMARK  Name = 
REMARK  9 active torsions:
REMARK  status: ('A' for Active; 'I' for Inactive)
REMARK    1  A    between atoms: C_1  and  C_2
REMARK    2  A    between atoms: C_2  and  C_3
REMARK    3  A    between atoms: C_2  and  C_26
REMARK    4  A    between atoms: C_3  and  N_4
REMARK    5  A    between atoms: N_4  and  C_5
REMARK    6  A    between atoms: C_5  and  C_6
REMARK    7  A    between atoms: C_9  and  C_10
REMARK    8  A    between atoms: C_10  and  N_11
REMARK    9  A    between atoms: C_12  and  C_14
REMARK                            x       y       z     vdW  Elec       q    Type
REMARK                         _______ _______ _______ _____ _____    ______ ____
ROOT
ATOM      1  C   UNL     1      49.153   8.799  19.268  0.00  0.00    +0.000 A 
ATOM      2  C   UNL     1      50.268   8.051  18.857  0.00  0.00    +0.000 A 
ATOM      3  C   UNL     1      50.388   7.587  17.545  0.00  0.00    +0.000 A 
ATOM      4  C   UNL     1      49.401   7.888  16.599  0.00  0.00    +0.000 A 
ATOM      5  C   UNL     1      48.293   8.646  16.997  0.00  0.00    +0.000 A 
ATOM      6  C   UNL     1      48.172   9.105  18.316  0.00  0.00    +0.000 A 
ENDROOT
BRANCH   1   7
ATOM      7  C   UNL     1      48.970   9.268  20.702  0.00  0.00    +0.000 C 
BRANCH   7   8
ATOM      8  N   UNL     1      48.730   8.153  21.619  0.00  0.00    +0.000 NA
ATOM      9  H   UNL     1      49.516   7.512  21.522  0.00  0.00    +0.000 HD
BRANCH   8  10
ATOM     10  C   UNL     1      47.499   7.422  21.310  0.00  0.00    +0.000 C 
BRANCH  10  12
ATOM     11  C   UNL     1      48.898   5.500  22.285  0.00  0.00    +0.000 C 
ATOM     12  C   UNL     1      47.745   5.897  21.351  0.00  0.00    +0.000 C 
BRANCH  12  13
ATOM     13  C   UNL     1      48.040   5.385  19.956  0.00  0.00    +0.000 A 
ATOM     14  C   UNL     1      47.126   5.578  18.924  0.00  0.00    +0.000 A 
ATOM     15  C   UNL     1      47.398   5.025  17.677  0.00  0.00    +0.000 A 
ATOM     16  C   UNL     1      48.569   4.301  17.491  0.00  0.00    +0.000 A 
ATOM     17  C   UNL     1      49.434   4.172  18.563  0.00  0.00    +0.000 A 
ATOM     18  N   UNL     1      49.198   4.700  19.781  0.00  0.00    +0.000 NA
ENDBRANCH  12  13
ENDBRANCH  10  12
ENDBRANCH   8  10
ENDBRANCH   7   8
ENDBRANCH   1   7
BRANCH   4  19
ATOM     19  C   UNL     1      49.501   7.367  15.191  0.00  0.00    +0.000 C 
BRANCH  19  20
ATOM     20  N   UNL     1      48.219   7.392  14.534  0.00  0.00    +0.000 N 
ATOM     21  C   UNL     1      47.979   6.645  13.410  0.00  0.00    +0.000 C 
ATOM     22  O   UNL     1      48.828   5.898  12.928  0.00  0.00    +0.000 OA
ATOM     23  H   UNL     1      47.614   8.181  14.741  0.00  0.00    +0.000 HD
BRANCH  21  24
ATOM     24  C   UNL     1      46.632   6.743  12.836  0.00  0.00    +0.000 A 
ATOM     25  C   UNL     1      46.253   7.894  12.156  0.00  0.00    +0.000 A 
ATOM     26  S   UNL     1      44.662   7.832  11.544  0.00  0.00    +0.000 S 
ATOM     27  C   UNL     1      44.409   6.283  12.203  0.00  0.00    +0.000 A 
ATOM     28  N   UNL     1      43.210   5.655  12.076  0.00  0.00    +0.000 NA
ATOM     29  C   UNL     1      43.150   4.499  12.647  0.00  0.00    +0.000 A 
ATOM     30  N   UNL     1      44.188   3.907  13.324  0.00  0.00    +0.000 N 
ATOM     31  C   UNL     1      45.425   4.491  13.446  0.00  0.00    +0.000 A 
ATOM     32  O   UNL     1      46.350   3.907  14.006  0.00  0.00    +0.000 OA
ATOM     33  C   UNL     1      45.536   5.806  12.850  0.00  0.00    +0.000 A 
ATOM     34  H   UNL     1      44.085   2.987  13.721  0.00  0.00    +0.000 HD
ENDBRANCH  21  24
ENDBRANCH  19  20
ENDBRANCH   4  19
TORSDOF 8
ENDMDL
