MODEL 1
REMARK VINA RESULT:    -7.142      0.000      0.000
REMARK INTER + INTRA:          -9.359
REMARK INTER:                  -8.813
REMARK INTRA:                  -0.547
REMARK UNBOUND:                -0.547
REMARK  Name = 
REMARK  4 active torsions:
REMARK  status: ('A' for Active; 'I' for Inactive)
REMARK    1  A    between atoms: C_3  and  C_4
REMARK    2  A    between atoms: C_4  and  N_5
REMARK    3  A    between atoms: N_5  and  C_6
REMARK    4  A    between atoms: C_13  and  N_14
REMARK                            x       y       z     vdW  Elec       q    Type
REMARK                         _______ _______ _______ _____ _____    ______ ____
ROOT
ATOM      1  C   UNL     1      43.273   5.584  12.073  0.00  0.00    +0.000 A 
ATOM      2  C   UNL     1      43.202   4.571  11.120  0.00  0.00    +0.000 A 
ATOM      3  C   UNL     1      44.246   3.648  11.008  0.00  0.00    +0.000 A 
ATOM      4  C   UNL     1      45.339   3.744  11.890  0.00  0.00    +0.000 A 
ATOM      5  C   UNL     1      45.455   4.778  12.832  0.00  0.00    +0.000 A 
ATOM      6  C   UNL     1      44.391   5.686  12.907  0.00  0.00    +0.000 A 
ENDROOT
BRANCH   5   7
ATOM      7  N   UNL     1      46.603   4.922  13.578  0.00  0.00    +0.000 N 
ATOM      8  C   UNL     1      47.020   3.927  14.573  0.00  0.00    +0.000 C 
ATOM      9  C   UNL     1      47.535   4.672  15.819  0.00  0.00    +0.000 C 
ATOM     10  O   UNL     1      48.612   5.567  15.488  0.00  0.00    +0.000 OA
ATOM     11  C   UNL     1      48.170   6.551  14.535  0.00  0.00    +0.000 C 
ATOM     12  C   UNL     1      47.644   5.904  13.242  0.00  0.00    +0.000 C 
ENDBRANCH   5   7
BRANCH   3  13
ATOM     13  C   UNL     1      44.241   2.583   9.939  0.00  0.00    +0.000 C 
BRANCH  13  14
ATOM     14  N   UNL     1      44.705   3.142   8.676  0.00  0.00    +0.000 N 
ATOM     15  H   UNL     1      44.745   4.158   8.706  0.00  0.00    +0.000 HD
BRANCH  14  16
ATOM     16  C   UNL     1      45.835   2.578   8.068  0.00  0.00    +0.000 A 
ATOM     17  C   UNL     1      46.148   1.219   8.140  0.00  0.00    +0.000 A 
ATOM     18  C   UNL     1      47.245   0.737   7.438  0.00  0.00    +0.000 A 
ATOM     19  N   UNL     1      48.037   1.499   6.662  0.00  0.00    +0.000 NA
ATOM     20  C   UNL     1      47.699   2.801   6.567  0.00  0.00    +0.000 A 
ATOM     21  C   UNL     1      46.619   3.370   7.227  0.00  0.00    +0.000 A 
ENDBRANCH  14  16
ENDBRANCH  13  14
ENDBRANCH   3  13
TORSDOF 4
ENDMDL
MODEL 2
REMARK VINA RESULT:    -6.943      2.084      2.623
REMARK INTER + INTRA:          -9.113
REMARK INTER:                  -8.525
REMARK INTRA:                  -0.588
REMARK UNBOUND:                -0.547
REMARK  Name = 
REMARK  4 active torsions:
REMARK  status: ('A' for Active; 'I' for Inactive)
REMARK    1  A    between atoms: C_3  and  C_4
REMARK    2  A    between atoms: C_4  and  N_5
REMARK    3  A    between atoms: N_5  and  C_6
REMARK    4  A    between atoms: C_13  and  N_14
REMARK                            x       y       z     vdW  Elec       q    Type
REMARK                         _______ _______ _______ _____ _____    ______ ____
ROOT
ATOM      1  C   UNL     1      43.306   4.218  13.006  0.00  0.00    +0.000 A 
ATOM      2  C   UNL     1      43.396   3.307  11.955  0.00  0.00    +0.000 A 
ATOM      3  C   UNL     1      44.260   3.563  10.887  0.00  0.00    +0.000 A 
ATOM      4  C   UNL     1      45.050   4.728  10.912  0.00  0.00    +0.000 A 
ATOM      5  C   UNL     1      44.950   5.681  11.937  0.00  0.00    +0.000 A 
ATOM      6  C   UNL     1      44.067   5.391  12.985  0.00  0.00    +0.000 A 
ENDROOT
BRANCH   5   7
ATOM      7  N   UNL     1      45.632   6.875  11.855  0.00  0.00    +0.000 N 
ATOM      8  C   UNL     1      47.086   6.933  11.660  0.00  0.00    +0.000 C 
ATOM      9  C   UNL     1      47.654   8.035  12.573  0.00  0.00    +0.000 C 
ATOM     10  O   UNL     1      47.037   9.307  12.308  0.00  0.00    +0.000 OA
ATOM     11  C   UNL     1      45.618   9.233  12.536  0.00  0.00    +0.000 C 
ATOM     12  C   UNL     1      44.950   8.161  11.656  0.00  0.00    +0.000 C 
ENDBRANCH   5   7
BRANCH   3  13
ATOM     13  C   UNL     1      44.330   2.639   9.696  0.00  0.00    +0.000 C 
BRANCH  13  14
ATOM     14  N   UNL     1      44.874   3.348   8.545  0.00  0.00    +0.000 N 
ATOM     15  H   UNL     1      45.080   4.319   8.765  0.00  0.00    +0.000 HD
BRANCH  14  16
ATOM     16  C   UNL     1      45.892   2.738   7.802  0.00  0.00    +0.000 A 
ATOM     17  C   UNL     1      46.686   3.423   6.879  0.00  0.00    +0.000 A 
ATOM     18  C   UNL     1      47.726   2.752   6.248  0.00  0.00    +0.000 A 
ATOM     19  N   UNL     1      48.042   1.466   6.479  0.00  0.00    +0.000 NA
ATOM     20  C   UNL     1      47.296   0.828   7.403  0.00  0.00    +0.000 A 
ATOM     21  C   UNL     1      46.242   1.416   8.086  0.00  0.00    +0.000 A 
ENDBRANCH  14  16
ENDBRANCH  13  14
ENDBRANCH   3  13
TORSDOF 4
ENDMDL
MODEL 3
REMARK VINA RESULT:    -6.779      1.534      2.251
REMARK INTER + INTRA:          -8.911
REMARK INTER:                  -8.327
REMARK INTRA:                  -0.583
REMARK UNBOUND:                -0.547
REMARK  Name = 
REMARK  4 active torsions:
REMARK  status: ('A' for Active; 'I' for Inactive)
REMARK    1  A    between atoms: C_3  and  C_4
REMARK    2  A    between atoms: C_4  and  N_5
REMARK    3  A    between atoms: N_5  and  C_6
REMARK    4  A    between atoms: C_13  and  N_14
REMARK                            x       y       z     vdW  Elec       q    Type
REMARK                         _______ _______ _______ _____ _____    ______ ____
ROOT
ATOM      1  C   UNL     1      43.532   4.071  12.806  0.00  0.00    +0.000 A 
ATOM      2  C   UNL     1      43.470   3.754  11.451  0.00  0.00    +0.000 A 
ATOM      3  C   UNL     1      44.390   4.318  10.563  0.00  0.00    +0.000 A 
ATOM      4  C   UNL     1      45.387   5.175  11.067  0.00  0.00    +0.000 A 
ATOM      5  C   UNL     1      45.447   5.543  12.419  0.00  0.00    +0.000 A 
ATOM      6  C   UNL     1      44.503   4.961  13.275  0.00  0.00    +0.000 A 
ENDROOT
BRANCH   5   7
ATOM      7  N   UNL     1      46.346   6.494  12.849  0.00  0.00    +0.000 N 
ATOM      8  C   UNL     1      46.017   7.923  12.885  0.00  0.00    +0.000 C 
ATOM      9  C   UNL     1      47.234   8.716  12.374  0.00  0.00    +0.000 C 
ATOM     10  O   UNL     1      48.411   8.429  13.150  0.00  0.00    +0.000 OA
ATOM     11  C   UNL     1      48.732   7.027  13.074  0.00  0.00    +0.000 C 
ATOM     12  C   UNL     1      47.575   6.145  13.576  0.00  0.00    +0.000 C 
ENDBRANCH   5   7
BRANCH   3  13
ATOM     13  C   UNL     1      44.309   4.059   9.079  0.00  0.00    +0.000 C 
BRANCH  13  14
ATOM     14  N   UNL     1      44.611   2.661   8.799  0.00  0.00    +0.000 N 
ATOM     15  H   UNL     1      43.787   2.154   8.485  0.00  0.00    +0.000 HD
BRANCH  14  16
ATOM     16  C   UNL     1      45.749   2.359   8.040  0.00  0.00    +0.000 A 
ATOM     17  C   UNL     1      46.528   3.330   7.406  0.00  0.00    +0.000 A 
ATOM     18  C   UNL     1      47.685   2.943   6.741  0.00  0.00    +0.000 A 
ATOM     19  N   UNL     1      48.130   1.675   6.678  0.00  0.00    +0.000 NA
ATOM     20  C   UNL     1      47.392   0.755   7.330  0.00  0.00    +0.000 A 
ATOM     21  C   UNL     1      46.226   1.047   8.023  0.00  0.00    +0.000 A 
ENDBRANCH  14  16
ENDBRANCH  13  14
ENDBRANCH   3  13
TORSDOF 4
ENDMDL
MODEL 4
REMARK VINA RESULT:    -6.203      1.690      2.496
REMARK INTER + INTRA:          -8.200
REMARK INTER:                  -7.492
REMARK INTRA:                  -0.708
REMARK UNBOUND:                -0.547
REMARK  Name = 
REMARK  4 active torsions:
REMARK  status: ('A' for Active; 'I' for Inactive)
REMARK    1  A    between atoms: C_3  and  C_4
REMARK    2  A    between atoms: C_4  and  N_5
REMARK    3  A    between atoms: N_5  and  C_6
REMARK    4  A    between atoms: C_13  and  N_14
REMARK                            x       y       z     vdW  Elec       q    Type
REMARK                         _______ _______ _______ _____ _____    ______ ____
ROOT
ATOM      1  C   UNL     1      44.971   8.021  11.725  0.00  0.00    +0.000 A 
ATOM      2  C   UNL     1      44.219   6.880  11.457  0.00  0.00    +0.000 A 
ATOM      3  C   UNL     1      44.651   5.637  11.928  0.00  0.00    +0.000 A 
ATOM      4  C   UNL     1      45.828   5.570  12.696  0.00  0.00    +0.000 A 
ATOM      5  C   UNL     1      46.626   6.697  12.946  0.00  0.00    +0.000 A 
ATOM      6  C   UNL     1      46.162   7.922  12.451  0.00  0.00    +0.000 A 
ENDROOT
BRANCH   5   7
ATOM      7  N   UNL     1      47.843   6.569  13.579  0.00  0.00    +0.000 N 
ATOM      8  C   UNL     1      48.006   5.791  14.812  0.00  0.00    +0.000 C 
ATOM      9  C   UNL     1      48.934   6.572  15.761  0.00  0.00    +0.000 C 
ATOM     10  O   UNL     1      50.203   6.851  15.144  0.00  0.00    +0.000 OA
ATOM     11  C   UNL     1      50.019   7.641  13.954  0.00  0.00    +0.000 C 
ATOM     12  C   UNL     1      49.111   6.936  12.931  0.00  0.00    +0.000 C 
ENDBRANCH   5   7
BRANCH   3  13
ATOM     13  C   UNL     1      43.904   4.369  11.594  0.00  0.00    +0.000 C 
BRANCH  13  14
ATOM     14  N   UNL     1      43.598   4.329  10.170  0.00  0.00    +0.000 N 
ATOM     15  H   UNL     1      43.315   5.242   9.821  0.00  0.00    +0.000 HD
BRANCH  14  16
ATOM     16  C   UNL     1      44.493   3.680   9.309  0.00  0.00    +0.000 A 
ATOM     17  C   UNL     1      45.317   4.355   8.406  0.00  0.00    +0.000 A 
ATOM     18  C   UNL     1      46.231   3.632   7.650  0.00  0.00    +0.000 A 
ATOM     19  N   UNL     1      46.396   2.300   7.740  0.00  0.00    +0.000 NA
ATOM     20  C   UNL     1      45.625   1.666   8.645  0.00  0.00    +0.000 A 
ATOM     21  C   UNL     1      44.689   2.304   9.447  0.00  0.00    +0.000 A 
ENDBRANCH  14  16
ENDBRANCH  13  14
ENDBRANCH   3  13
TORSDOF 4
ENDMDL
MODEL 5
REMARK VINA RESULT:    -6.124      3.437      7.115
REMARK INTER + INTRA:          -8.103
REMARK INTER:                  -7.486
REMARK INTRA:                  -0.617
REMARK UNBOUND:                -0.547
REMARK  Name = 
REMARK  4 active torsions:
REMARK  status: ('A' for Active; 'I' for Inactive)
REMARK    1  A    between atoms: C_3  and  C_4
REMARK    2  A    between atoms: C_4  and  N_5
REMARK    3  A    between atoms: N_5  and  C_6
REMARK    4  A    between atoms: C_13  and  N_14
REMARK                            x       y       z     vdW  Elec       q    Type
REMARK                         _______ _______ _______ _____ _____    ______ ____
ROOT
ATOM      1  C   UNL     1      45.842   8.611  12.424  0.00  0.00    +0.000 A 
ATOM      2  C   UNL     1      46.978   8.322  13.177  0.00  0.00    +0.000 A 
ATOM      3  C   UNL     1      47.307   6.992  13.454  0.00  0.00    +0.000 A 
ATOM      4  C   UNL     1      46.495   5.966  12.936  0.00  0.00    +0.000 A 
ATOM      5  C   UNL     1      45.323   6.230  12.210  0.00  0.00    +0.000 A 
ATOM      6  C   UNL     1      45.025   7.576  11.959  0.00  0.00    +0.000 A 
ENDROOT
BRANCH   5   7
ATOM      7  N   UNL     1      44.479   5.206  11.842  0.00  0.00    +0.000 N 
ATOM      8  C   UNL     1      43.606   4.527  12.807  0.00  0.00    +0.000 C 
ATOM      9  C   UNL     1      43.638   3.016  12.512  0.00  0.00    +0.000 C 
ATOM     10  O   UNL     1      43.243   2.736  11.157  0.00  0.00    +0.000 OA
ATOM     11  C   UNL     1      44.133   3.387  10.231  0.00  0.00    +0.000 C 
ATOM     12  C   UNL     1      44.162   4.911  10.438  0.00  0.00    +0.000 C 
ENDBRANCH   5   7
BRANCH   3  13
ATOM     13  C   UNL     1      48.486   6.642  14.328  0.00  0.00    +0.000 C 
BRANCH  13  14
ATOM     14  N   UNL     1      48.068   6.560  15.721  0.00  0.00    +0.000 N 
ATOM     15  H   UNL     1      47.128   6.925  15.854  0.00  0.00    +0.000 HD
BRANCH  14  16
ATOM     16  C   UNL     1      48.283   5.363  16.417  0.00  0.00    +0.000 A 
ATOM     17  C   UNL     1      47.425   4.264  16.336  0.00  0.00    +0.000 A 
ATOM     18  C   UNL     1      47.762   3.090  16.998  0.00  0.00    +0.000 A 
ATOM     19  N   UNL     1      48.889   2.925  17.713  0.00  0.00    +0.000 NA
ATOM     20  C   UNL     1      49.729   3.979  17.747  0.00  0.00    +0.000 A 
ATOM     21  C   UNL     1      49.479   5.188  17.115  0.00  0.00    +0.000 A 
ENDBRANCH  14  16
ENDBRANCH  13  14
ENDBRANCH   3  13
TORSDOF 4
ENDMDL
MODEL 6
REMARK VINA RESULT:    -6.087      3.449      7.253
REMARK INTER + INTRA:          -8.057
REMARK INTER:                  -7.422
REMARK INTRA:                  -0.635
REMARK UNBOUND:                -0.547
REMARK  Name = 
REMARK  4 active torsions:
REMARK  status: ('A' for Active; 'I' for Inactive)
REMARK    1  A    between atoms: C_3  and  C_4
REMARK    2  A    between atoms: C_4  and  N_5
REMARK    3  A    between atoms: N_5  and  C_6
REMARK    4  A    between atoms: C_13  and  N_14
REMARK                            x       y       z     vdW  Elec       q    Type
REMARK                         _______ _______ _______ _____ _____    ______ ____
ROOT
ATOM      1  C   UNL     1      45.917   8.531  12.865  0.00  0.00    +0.000 A 
ATOM      2  C   UNL     1      47.059   8.377  13.649  0.00  0.00    +0.000 A 
ATOM      3  C   UNL     1      47.653   7.118  13.770  0.00  0.00    +0.000 A 
ATOM      4  C   UNL     1      47.100   6.032  13.065  0.00  0.00    +0.000 A 
ATOM      5  C   UNL     1      45.928   6.150  12.303  0.00  0.00    +0.000 A 
ATOM      6  C   UNL     1      45.360   7.427  12.213  0.00  0.00    +0.000 A 
ENDROOT
BRANCH   5   7
ATOM      7  N   UNL     1      45.338   5.037  11.746  0.00  0.00    +0.000 N 
ATOM      8  C   UNL     1      45.173   4.882  10.296  0.00  0.00    +0.000 C 
ATOM      9  C   UNL     1      43.775   4.295  10.027  0.00  0.00    +0.000 C 
ATOM     10  O   UNL     1      43.588   3.045  10.714  0.00  0.00    +0.000 OA
ATOM     11  C   UNL     1      43.725   3.229  12.135  0.00  0.00    +0.000 C 
ATOM     12  C   UNL     1      45.102   3.804  12.510  0.00  0.00    +0.000 C 
ENDBRANCH   5   7
BRANCH   3  13
ATOM     13  C   UNL     1      48.845   6.897  14.668  0.00  0.00    +0.000 C 
BRANCH  13  14
ATOM     14  N   UNL     1      48.404   6.693  16.042  0.00  0.00    +0.000 N 
ATOM     15  H   UNL     1      47.491   7.109  16.208  0.00  0.00    +0.000 HD
BRANCH  14  16
ATOM     16  C   UNL     1      48.523   5.415  16.602  0.00  0.00    +0.000 A 
ATOM     17  C   UNL     1      47.568   4.410  16.434  0.00  0.00    +0.000 A 
ATOM     18  C   UNL     1      47.811   3.148  16.960  0.00  0.00    +0.000 A 
ATOM     19  N   UNL     1      48.933   2.810  17.620  0.00  0.00    +0.000 NA
ATOM     20  C   UNL     1      49.865   3.776  17.739  0.00  0.00    +0.000 A 
ATOM     21  C   UNL     1      49.713   5.063  17.243  0.00  0.00    +0.000 A 
ENDBRANCH  14  16
ENDBRANCH  13  14
ENDBRANCH   3  13
TORSDOF 4
ENDMDL
MODEL 7
REMARK VINA RESULT:    -5.903      3.665      7.575
REMARK INTER + INTRA:          -7.830
REMARK INTER:                  -7.226
REMARK INTRA:                  -0.604
REMARK UNBOUND:                -0.547
REMARK  Name = 
REMARK  4 active torsions:
REMARK  status: ('A' for Active; 'I' for Inactive)
REMARK    1  A    between atoms: C_3  and  C_4
REMARK    2  A    between atoms: C_4  and  N_5
REMARK    3  A    between atoms: N_5  and  C_6
REMARK    4  A    between atoms: C_13  and  N_14
REMARK                            x       y       z     vdW  Elec       q    Type
REMARK                         _______ _______ _______ _____ _____    ______ ____
ROOT
ATOM      1  C   UNL     1      48.143   6.597  13.625  0.00  0.00    +0.000 A 
ATOM      2  C   UNL     1      48.259   6.046  14.899  0.00  0.00    +0.000 A 
ATOM      3  C   UNL     1      47.411   5.005  15.286  0.00  0.00    +0.000 A 
ATOM      4  C   UNL     1      46.473   4.509  14.360  0.00  0.00    +0.000 A 
ATOM      5  C   UNL     1      46.307   5.072  13.085  0.00  0.00    +0.000 A 
ATOM      6  C   UNL     1      47.172   6.119  12.739  0.00  0.00    +0.000 A 
ENDROOT
BRANCH   5   7
ATOM      7  N   UNL     1      45.285   4.656  12.261  0.00  0.00    +0.000 N 
ATOM      8  C   UNL     1      44.589   5.574  11.353  0.00  0.00    +0.000 C 
ATOM      9  C   UNL     1      43.083   5.259  11.404  0.00  0.00    +0.000 C 
ATOM     10  O   UNL     1      42.821   3.886  11.065  0.00  0.00    +0.000 OA
ATOM     11  C   UNL     1      43.489   3.006  11.988  0.00  0.00    +0.000 C 
ATOM     12  C   UNL     1      45.010   3.235  12.002  0.00  0.00    +0.000 C 
ENDBRANCH   5   7
BRANCH   3  13
ATOM     13  C   UNL     1      47.455   4.434  16.681  0.00  0.00    +0.000 C 
BRANCH  13  14
ATOM     14  N   UNL     1      48.057   3.108  16.659  0.00  0.00    +0.000 N 
ATOM     15  H   UNL     1      47.914   2.645  15.765  0.00  0.00    +0.000 HD
BRANCH  14  16
ATOM     16  C   UNL     1      49.365   2.957  17.139  0.00  0.00    +0.000 A 
ATOM     17  C   UNL     1      50.135   1.811  16.924  0.00  0.00    +0.000 A 
ATOM     18  C   UNL     1      51.451   1.784  17.367  0.00  0.00    +0.000 A 
ATOM     19  N   UNL     1      52.058   2.812  17.988  0.00  0.00    +0.000 NA
ATOM     20  C   UNL     1      51.318   3.927  18.151  0.00  0.00    +0.000 A 
ATOM     21  C   UNL     1      49.999   4.048  17.737  0.00  0.00    +0.000 A 
ENDBRANCH  14  16
ENDBRANCH  13  14
ENDBRANCH   3  13
TORSDOF 4
ENDMDL
MODEL 8
REMARK VINA RESULT:    -5.573      2.921      5.077
REMARK INTER + INTRA:          -7.423
REMARK INTER:                  -6.801
REMARK INTRA:                  -0.622
REMARK UNBOUND:                -0.547
REMARK  Name = 
REMARK  4 active torsions:
REMARK  status: ('A' for Active; 'I' for Inactive)
REMARK    1  A    between atoms: C_3  and  C_4
REMARK    2  A    between atoms: C_4  and  N_5
REMARK    3  A    between atoms: N_5  and  C_6
REMARK    4  A    between atoms: C_13  and  N_14
REMARK                            x       y       z     vdW  Elec       q    Type
REMARK                         _______ _______ _______ _____ _____    ______ ____
ROOT
ATOM      1  C   UNL     1      49.825   7.784  14.143  0.00  0.00    +0.000 A 
ATOM      2  C   UNL     1      48.948   7.647  13.068  0.00  0.00    +0.000 A 
ATOM      3  C   UNL     1      47.889   6.739  13.148  0.00  0.00    +0.000 A 
ATOM      4  C   UNL     1      47.710   6.001  14.333  0.00  0.00    +0.000 A 
ATOM      5  C   UNL     1      48.600   6.089  15.414  0.00  0.00    +0.000 A 
ATOM      6  C   UNL     1      49.653   7.006  15.292  0.00  0.00    +0.000 A 
ENDROOT
BRANCH   5   7
ATOM      7  N   UNL     1      48.475   5.249  16.498  0.00  0.00    +0.000 N 
ATOM      8  C   UNL     1      49.366   5.333  17.661  0.00  0.00    +0.000 C 
ATOM      9  C   UNL     1      49.733   3.902  18.096  0.00  0.00    +0.000 C 
ATOM     10  O   UNL     1      48.559   3.125  18.390  0.00  0.00    +0.000 OA
ATOM     11  C   UNL     1      47.717   3.031  17.225  0.00  0.00    +0.000 C 
ATOM     12  C   UNL     1      47.283   4.417  16.716  0.00  0.00    +0.000 C 
ENDBRANCH   5   7
BRANCH   3  13
ATOM     13  C   UNL     1      46.964   6.508  11.978  0.00  0.00    +0.000 C 
BRANCH  13  14
ATOM     14  N   UNL     1      45.619   6.214  12.455  0.00  0.00    +0.000 N 
ATOM     15  H   UNL     1      45.026   7.041  12.440  0.00  0.00    +0.000 HD
BRANCH  14  16
ATOM     16  C   UNL     1      44.966   5.077  11.963  0.00  0.00    +0.000 A 
ATOM     17  C   UNL     1      44.210   4.218  12.764  0.00  0.00    +0.000 A 
ATOM     18  C   UNL     1      43.532   3.160  12.173  0.00  0.00    +0.000 A 
ATOM     19  N   UNL     1      43.536   2.906  10.852  0.00  0.00    +0.000 NA
ATOM     20  C   UNL     1      44.234   3.767  10.085  0.00  0.00    +0.000 A 
ATOM     21  C   UNL     1      44.938   4.853  10.585  0.00  0.00    +0.000 A 
ENDBRANCH  14  16
ENDBRANCH  13  14
ENDBRANCH   3  13
TORSDOF 4
ENDMDL
MODEL 9
REMARK VINA RESULT:    -5.148      3.631      6.239
REMARK INTER + INTRA:          -6.899
REMARK INTER:                  -6.438
REMARK INTRA:                  -0.461
REMARK UNBOUND:                -0.547
REMARK  Name = 
REMARK  4 active torsions:
REMARK  status: ('A' for Active; 'I' for Inactive)
REMARK    1  A    between atoms: C_3  and  C_4
REMARK    2  A    between atoms: C_4  and  N_5
REMARK    3  A    between atoms: N_5  and  C_6
REMARK    4  A    between atoms: C_13  and  N_14
REMARK                            x       y       z     vdW  Elec       q    Type
REMARK                         _______ _______ _______ _____ _____    ______ ____
ROOT
ATOM      1  C   UNL     1      48.360   2.606  17.097  0.00  0.00    +0.000 A 
ATOM      2  C   UNL     1      47.870   3.046  15.869  0.00  0.00    +0.000 A 
ATOM      3  C   UNL     1      47.542   4.393  15.695  0.00  0.00    +0.000 A 
ATOM      4  C   UNL     1      47.748   5.289  16.761  0.00  0.00    +0.000 A 
ATOM      5  C   UNL     1      48.201   4.866  18.020  0.00  0.00    +0.000 A 
ATOM      6  C   UNL     1      48.511   3.506  18.155  0.00  0.00    +0.000 A 
ENDROOT
BRANCH   5   7
ATOM      7  N   UNL     1      48.253   5.745  19.079  0.00  0.00    +0.000 N 
ATOM      8  C   UNL     1      48.323   5.288  20.472  0.00  0.00    +0.000 C 
ATOM      9  C   UNL     1      47.392   6.175  21.320  0.00  0.00    +0.000 C 
ATOM     10  O   UNL     1      47.742   7.565  21.205  0.00  0.00    +0.000 OA
ATOM     11  C   UNL     1      47.636   7.997  19.836  0.00  0.00    +0.000 C 
ATOM     12  C   UNL     1      48.543   7.175  18.903  0.00  0.00    +0.000 C 
ENDBRANCH   5   7
BRANCH   3  13
ATOM     13  C   UNL     1      46.939   4.893  14.406  0.00  0.00    +0.000 C 
BRANCH  13  14
ATOM     14  N   UNL     1      46.122   3.850  13.799  0.00  0.00    +0.000 N 
ATOM     15  H   UNL     1      45.849   3.144  14.478  0.00  0.00    +0.000 HD
BRANCH  14  16
ATOM     16  C   UNL     1      45.063   4.228  12.963  0.00  0.00    +0.000 A 
ATOM     17  C   UNL     1      44.634   5.549  12.817  0.00  0.00    +0.000 A 
ATOM     18  C   UNL     1      43.629   5.839  11.903  0.00  0.00    +0.000 A 
ATOM     19  N   UNL     1      43.037   4.921  11.118  0.00  0.00    +0.000 NA
ATOM     20  C   UNL     1      43.490   3.657  11.238  0.00  0.00    +0.000 A 
ATOM     21  C   UNL     1      44.491   3.274  12.118  0.00  0.00    +0.000 A 
ENDBRANCH  14  16
ENDBRANCH  13  14
ENDBRANCH   3  13
TORSDOF 4
ENDMDL
