MODEL 1
REMARK VINA RESULT:    -7.422      0.000      0.000
REMARK INTER + INTRA:         -11.028
REMARK INTER:                 -10.459
REMARK INTRA:                  -0.569
REMARK UNBOUND:                -0.569
REMARK  Name = 
REMARK  8 active torsions:
REMARK  status: ('A' for Active; 'I' for Inactive)
REMARK    1  A    between atoms: N_1  and  C_2
REMARK    2  A    between atoms: C_2  and  C_3
REMARK    3  A    between atoms: C_7  and  C_8
REMARK    4  A    between atoms: C_8  and  C_9
REMARK    5  A    between atoms: C_9  and  N_10
REMARK    6  A    between atoms: N_10  and  C_11
REMARK    7  A    between atoms: CA_14  and  C_15
REMARK    8  A    between atoms: C_15  and  OXT_17
REMARK                            x       y       z     vdW  Elec       q    Type
REMARK                         _______ _______ _______ _____ _____    ______ ____
ROOT
ATOM      1  C   UNL     1      43.273   4.336  11.064  0.00  0.00    +0.000 C 
ENDROOT
BRANCH   1   2
ATOM      2  N   UNL     1      43.633   4.651   9.673  0.00  0.00    +0.000 N 
ATOM      3  H   UNL     1      43.913   5.623   9.555  0.00  0.00    +0.000 HD
BRANCH   2   4
ATOM      4  C   UNL     1      44.509   3.764   9.022  0.00  0.00    +0.000 A 
ATOM      5  C   UNL     1      45.456   4.180   8.079  0.00  0.00    +0.000 A 
ATOM      6  C   UNL     1      46.351   3.274   7.511  0.00  0.00    +0.000 A 
ATOM      7  CA  UNL     1      46.296   1.956   7.927  0.00  0.00    +0.000 A 
ATOM      8  N   UNL     1      45.430   1.488   8.870  0.00  0.00    +0.000 NA
ATOM      9  C   UNL     1      44.584   2.415   9.399  0.00  0.00    +0.000 A 
BRANCH   7  10
ATOM     10  C   UNL     1      47.231   0.953   7.338  0.00  0.00    +0.000 C 
ATOM     11  O   UNL     1      48.151   1.211   6.581  0.00  0.00    +0.000 OA
BRANCH  10  12
ATOM     12  OXT UNL     1      46.912  -0.296   7.755  0.00  0.00    +0.000 OA
ATOM     13  HXT UNL     1      46.364  -0.223   8.571  0.00  0.00    +0.000 HD
ENDBRANCH  10  12
ENDBRANCH   7  10
ENDBRANCH   2   4
ENDBRANCH   1   2
BRANCH   1  14
ATOM     14  C   UNL     1      43.409   5.558  11.980  0.00  0.00    +0.000 C 
BRANCH  14  19
ATOM     15  C   UNL     1      46.734   5.207  13.846  0.00  0.00    +0.000 A 
ATOM     16  C   UNL     1      47.570   5.998  13.049  0.00  0.00    +0.000 A 
ATOM     17  C   UNL     1      47.060   6.664  11.933  0.00  0.00    +0.000 A 
ATOM     18  C   UNL     1      45.711   6.545  11.599  0.00  0.00    +0.000 A 
ATOM     19  C   UNL     1      44.854   5.760  12.380  0.00  0.00    +0.000 A 
ATOM     20  C   UNL     1      45.376   5.099  13.504  0.00  0.00    +0.000 A 
BRANCH  15  21
ATOM     21  C   UNL     1      47.273   4.494  15.061  0.00  0.00    +0.000 C 
BRANCH  21  22
ATOM     22  N   UNL     1      47.590   3.101  14.772  0.00  0.00    +0.000 NA
ATOM     23  H   UNL     1      47.502   2.555  15.627  0.00  0.00    +0.000 HD
ATOM     24  H   UNL     1      48.568   3.038  14.491  0.00  0.00    +0.000 HD
ENDBRANCH  21  22
ENDBRANCH  15  21
ENDBRANCH  14  19
ENDBRANCH   1  14
TORSDOF 8
ENDMDL
MODEL 2
REMARK VINA RESULT:    -7.080      3.306      6.824
REMARK INTER + INTRA:         -10.545
REMARK INTER:                  -9.985
REMARK INTRA:                  -0.560
REMARK UNBOUND:                -0.569
REMARK  Name = 
REMARK  8 active torsions:
REMARK  status: ('A' for Active; 'I' for Inactive)
REMARK    1  A    between atoms: N_1  and  C_2
REMARK    2  A    between atoms: C_2  and  C_3
REMARK    3  A    between atoms: C_7  and  C_8
REMARK    4  A    between atoms: C_8  and  C_9
REMARK    5  A    between atoms: C_9  and  N_10
REMARK    6  A    between atoms: N_10  and  C_11
REMARK    7  A    between atoms: CA_14  and  C_15
REMARK    8  A    between atoms: C_15  and  OXT_17
REMARK                            x       y       z     vdW  Elec       q    Type
REMARK                         _______ _______ _______ _____ _____    ______ ____
ROOT
ATOM      1  C   UNL     1      44.129   4.224   9.216  0.00  0.00    +0.000 C 
ENDROOT
BRANCH   1   2
ATOM      2  N   UNL     1      44.002   5.138  10.361  0.00  0.00    +0.000 N 
ATOM      3  H   UNL     1      43.038   5.237  10.674  0.00  0.00    +0.000 HD
BRANCH   2   4
ATOM      4  C   UNL     1      44.890   4.945  11.435  0.00  0.00    +0.000 A 
ATOM      5  C   UNL     1      45.697   5.965  11.952  0.00  0.00    +0.000 A 
ATOM      6  C   UNL     1      46.511   5.745  13.062  0.00  0.00    +0.000 A 
ATOM      7  CA  UNL     1      46.478   4.497  13.657  0.00  0.00    +0.000 A 
ATOM      8  N   UNL     1      45.687   3.470  13.235  0.00  0.00    +0.000 NA
ATOM      9  C   UNL     1      44.905   3.740  12.153  0.00  0.00    +0.000 A 
BRANCH   7  10
ATOM     10  C   UNL     1      47.339   4.218  14.844  0.00  0.00    +0.000 C 
ATOM     11  O   UNL     1      47.605   3.107  15.271  0.00  0.00    +0.000 OA
BRANCH  10  12
ATOM     12  OXT UNL     1      47.784   5.373  15.391  0.00  0.00    +0.000 OA
ATOM     13  HXT UNL     1      47.021   5.991  15.480  0.00  0.00    +0.000 HD
ENDBRANCH  10  12
ENDBRANCH   7  10
ENDBRANCH   2   4
ENDBRANCH   1   2
BRANCH   1  14
ATOM     14  C   UNL     1      45.421   4.473   8.427  0.00  0.00    +0.000 C 
BRANCH  14  19
ATOM     15  C   UNL     1      47.108   2.002   6.038  0.00  0.00    +0.000 A 
ATOM     16  C   UNL     1      47.034   0.820   6.784  0.00  0.00    +0.000 A 
ATOM     17  C   UNL     1      46.419   0.812   8.037  0.00  0.00    +0.000 A 
ATOM     18  C   UNL     1      45.874   1.985   8.561  0.00  0.00    +0.000 A 
ATOM     19  C   UNL     1      45.935   3.180   7.834  0.00  0.00    +0.000 A 
ATOM     20  C   UNL     1      46.550   3.176   6.573  0.00  0.00    +0.000 A 
BRANCH  15  21
ATOM     21  C   UNL     1      47.760   2.018   4.678  0.00  0.00    +0.000 C 
BRANCH  21  22
ATOM     22  N   UNL     1      47.437   0.820   3.912  0.00  0.00    +0.000 NA
ATOM     23  H   UNL     1      46.489   0.903   3.548  0.00  0.00    +0.000 HD
ATOM     24  H   UNL     1      47.433   0.020   4.543  0.00  0.00    +0.000 HD
ENDBRANCH  21  22
ENDBRANCH  15  21
ENDBRANCH  14  19
ENDBRANCH   1  14
TORSDOF 8
ENDMDL
MODEL 3
REMARK VINA RESULT:    -6.954      1.871      2.768
REMARK INTER + INTRA:         -10.369
REMARK INTER:                  -9.874
REMARK INTRA:                  -0.495
REMARK UNBOUND:                -0.569
REMARK  Name = 
REMARK  8 active torsions:
REMARK  status: ('A' for Active; 'I' for Inactive)
REMARK    1  A    between atoms: N_1  and  C_2
REMARK    2  A    between atoms: C_2  and  C_3
REMARK    3  A    between atoms: C_7  and  C_8
REMARK    4  A    between atoms: C_8  and  C_9
REMARK    5  A    between atoms: C_9  and  N_10
REMARK    6  A    between atoms: N_10  and  C_11
REMARK    7  A    between atoms: CA_14  and  C_15
REMARK    8  A    between atoms: C_15  and  OXT_17
REMARK                            x       y       z     vdW  Elec       q    Type
REMARK                         _______ _______ _______ _____ _____    ______ ____
ROOT
ATOM      1  C   UNL     1      43.382   3.555  11.595  0.00  0.00    +0.000 C 
ENDROOT
BRANCH   1   2
ATOM      2  N   UNL     1      43.641   4.308  10.358  0.00  0.00    +0.000 N 
ATOM      3  H   UNL     1      43.746   5.307  10.526  0.00  0.00    +0.000 HD
BRANCH   2   4
ATOM      4  C   UNL     1      44.638   3.807   9.502  0.00  0.00    +0.000 A 
ATOM      5  C   UNL     1      44.856   2.440   9.300  0.00  0.00    +0.000 A 
ATOM      6  C   UNL     1      45.810   1.989   8.388  0.00  0.00    +0.000 A 
ATOM      7  CA  UNL     1      46.516   2.934   7.666  0.00  0.00    +0.000 A 
ATOM      8  N   UNL     1      46.329   4.280   7.779  0.00  0.00    +0.000 NA
ATOM      9  C   UNL     1      45.380   4.665   8.677  0.00  0.00    +0.000 A 
BRANCH   7  10
ATOM     10  C   UNL     1      47.552   2.496   6.685  0.00  0.00    +0.000 C 
ATOM     11  O   UNL     1      48.408   1.653   6.898  0.00  0.00    +0.000 OA
BRANCH  10  12
ATOM     12  OXT UNL     1      47.419   3.171   5.519  0.00  0.00    +0.000 OA
ATOM     13  HXT UNL     1      46.636   3.766   5.590  0.00  0.00    +0.000 HD
ENDBRANCH  10  12
ENDBRANCH   7  10
ENDBRANCH   2   4
ENDBRANCH   1   2
BRANCH   1  14
ATOM     14  C   UNL     1      43.366   4.468  12.827  0.00  0.00    +0.000 C 
BRANCH  14  19
ATOM     15  C   UNL     1      45.887   7.348  12.732  0.00  0.00    +0.000 A 
ATOM     16  C   UNL     1      47.022   6.724  13.263  0.00  0.00    +0.000 A 
ATOM     17  C   UNL     1      46.985   5.376  13.623  0.00  0.00    +0.000 A 
ATOM     18  C   UNL     1      45.812   4.637  13.460  0.00  0.00    +0.000 A 
ATOM     19  C   UNL     1      44.664   5.238  12.931  0.00  0.00    +0.000 A 
ATOM     20  C   UNL     1      44.714   6.593  12.567  0.00  0.00    +0.000 A 
BRANCH  15  21
ATOM     21  C   UNL     1      45.921   8.801  12.328  0.00  0.00    +0.000 C 
BRANCH  21  22
ATOM     22  N   UNL     1      44.722   9.509  12.760  0.00  0.00    +0.000 NA
ATOM     23  H   UNL     1      44.923  10.006  13.626  0.00  0.00    +0.000 HD
ATOM     24  H   UNL     1      44.000   8.825  12.983  0.00  0.00    +0.000 HD
ENDBRANCH  21  22
ENDBRANCH  15  21
ENDBRANCH  14  19
ENDBRANCH   1  14
TORSDOF 8
ENDMDL
MODEL 4
REMARK VINA RESULT:    -6.686      3.398      6.331
REMARK INTER + INTRA:          -9.990
REMARK INTER:                  -9.284
REMARK INTRA:                  -0.707
REMARK UNBOUND:                -0.569
REMARK  Name = 
REMARK  8 active torsions:
REMARK  status: ('A' for Active; 'I' for Inactive)
REMARK    1  A    between atoms: N_1  and  C_2
REMARK    2  A    between atoms: C_2  and  C_3
REMARK    3  A    between atoms: C_7  and  C_8
REMARK    4  A    between atoms: C_8  and  C_9
REMARK    5  A    between atoms: C_9  and  N_10
REMARK    6  A    between atoms: N_10  and  C_11
REMARK    7  A    between atoms: CA_14  and  C_15
REMARK    8  A    between atoms: C_15  and  OXT_17
REMARK                            x       y       z     vdW  Elec       q    Type
REMARK                         _______ _______ _______ _____ _____    ______ ____
ROOT
ATOM      1  C   UNL     1      44.710   3.138  11.674  0.00  0.00    +0.000 C 
ENDROOT
BRANCH   1   2
ATOM      2  N   UNL     1      44.613   4.520  12.167  0.00  0.00    +0.000 N 
ATOM      3  H   UNL     1      44.017   4.599  12.989  0.00  0.00    +0.000 HD
BRANCH   2   4
ATOM      4  C   UNL     1      45.816   5.233  12.315  0.00  0.00    +0.000 A 
ATOM      5  C   UNL     1      46.160   6.326  11.512  0.00  0.00    +0.000 A 
ATOM      6  C   UNL     1      47.332   7.046  11.741  0.00  0.00    +0.000 A 
ATOM      7  CA  UNL     1      48.133   6.666  12.803  0.00  0.00    +0.000 A 
ATOM      8  N   UNL     1      47.841   5.639  13.651  0.00  0.00    +0.000 NA
ATOM      9  C   UNL     1      46.681   4.975  13.388  0.00  0.00    +0.000 A 
BRANCH   7  10
ATOM     10  C   UNL     1      49.400   7.405  13.078  0.00  0.00    +0.000 C 
ATOM     11  O   UNL     1      49.878   8.269  12.362  0.00  0.00    +0.000 OA
BRANCH  10  12
ATOM     12  OXT UNL     1      49.957   6.979  14.236  0.00  0.00    +0.000 OA
ATOM     13  HXT UNL     1      50.178   6.022  14.143  0.00  0.00    +0.000 HD
ENDBRANCH  10  12
ENDBRANCH   7  10
ENDBRANCH   2   4
ENDBRANCH   1   2
BRANCH   1  14
ATOM     14  C   UNL     1      44.056   2.974  10.297  0.00  0.00    +0.000 C 
BRANCH  14  19
ATOM     15  C   UNL     1      46.629   1.918   7.666  0.00  0.00    +0.000 A 
ATOM     16  C   UNL     1      46.921   3.152   7.071  0.00  0.00    +0.000 A 
ATOM     17  C   UNL     1      46.315   4.321   7.534  0.00  0.00    +0.000 A 
ATOM     18  C   UNL     1      45.407   4.271   8.593  0.00  0.00    +0.000 A 
ATOM     19  C   UNL     1      45.099   3.050   9.204  0.00  0.00    +0.000 A 
ATOM     20  C   UNL     1      45.718   1.881   8.735  0.00  0.00    +0.000 A 
BRANCH  15  21
ATOM     21  C   UNL     1      47.289   0.651   7.182  0.00  0.00    +0.000 C 
BRANCH  21  22
ATOM     22  N   UNL     1      46.645  -0.536   7.731  0.00  0.00    +0.000 NA
ATOM     23  H   UNL     1      46.715  -0.512   8.747  0.00  0.00    +0.000 HD
ATOM     24  H   UNL     1      47.161  -1.359   7.427  0.00  0.00    +0.000 HD
ENDBRANCH  21  22
ENDBRANCH  15  21
ENDBRANCH  14  19
ENDBRANCH   1  14
TORSDOF 8
ENDMDL
MODEL 5
REMARK VINA RESULT:    -6.464      3.364      6.400
REMARK INTER + INTRA:          -9.678
REMARK INTER:                  -8.977
REMARK INTRA:                  -0.701
REMARK UNBOUND:                -0.569
REMARK  Name = 
REMARK  8 active torsions:
REMARK  status: ('A' for Active; 'I' for Inactive)
REMARK    1  A    between atoms: N_1  and  C_2
REMARK    2  A    between atoms: C_2  and  C_3
REMARK    3  A    between atoms: C_7  and  C_8
REMARK    4  A    between atoms: C_8  and  C_9
REMARK    5  A    between atoms: C_9  and  N_10
REMARK    6  A    between atoms: N_10  and  C_11
REMARK    7  A    between atoms: CA_14  and  C_15
REMARK    8  A    between atoms: C_15  and  OXT_17
REMARK                            x       y       z     vdW  Elec       q    Type
REMARK                         _______ _______ _______ _____ _____    ______ ____
ROOT
ATOM      1  C   UNL     1      43.162   4.638  11.412  0.00  0.00    +0.000 C 
ENDROOT
BRANCH   1   2
ATOM      2  N   UNL     1      43.400   5.557  12.535  0.00  0.00    +0.000 N 
ATOM      3  H   UNL     1      42.785   5.372  13.326  0.00  0.00    +0.000 HD
BRANCH   2   4
ATOM      4  C   UNL     1      44.735   5.748  12.934  0.00  0.00    +0.000 A 
ATOM      5  C   UNL     1      45.561   4.702  13.361  0.00  0.00    +0.000 A 
ATOM      6  C   UNL     1      46.899   4.928  13.682  0.00  0.00    +0.000 A 
ATOM      7  CA  UNL     1      47.396   6.210  13.539  0.00  0.00    +0.000 A 
ATOM      8  N   UNL     1      46.662   7.269  13.090  0.00  0.00    +0.000 NA
ATOM      9  C   UNL     1      45.364   6.992  12.783  0.00  0.00    +0.000 A 
BRANCH   7  10
ATOM     10  C   UNL     1      48.820   6.497  13.878  0.00  0.00    +0.000 C 
ATOM     11  O   UNL     1      49.276   6.546  15.008  0.00  0.00    +0.000 OA
BRANCH  10  12
ATOM     12  OXT UNL     1      49.545   6.704  12.753  0.00  0.00    +0.000 OA
ATOM     13  HXT UNL     1      50.496   6.779  13.003  0.00  0.00    +0.000 HD
ENDBRANCH  10  12
ENDBRANCH   7  10
ENDBRANCH   2   4
ENDBRANCH   1   2
BRANCH   1  14
ATOM     14  C   UNL     1      43.805   5.143  10.114  0.00  0.00    +0.000 C 
BRANCH  14  19
ATOM     15  C   UNL     1      46.062   3.243   7.673  0.00  0.00    +0.000 A 
ATOM     16  C   UNL     1      45.902   1.930   8.133  0.00  0.00    +0.000 A 
ATOM     17  C   UNL     1      45.050   1.654   9.203  0.00  0.00    +0.000 A 
ATOM     18  C   UNL     1      44.351   2.686   9.830  0.00  0.00    +0.000 A 
ATOM     19  C   UNL     1      44.494   4.007   9.390  0.00  0.00    +0.000 A 
ATOM     20  C   UNL     1      45.348   4.273   8.309  0.00  0.00    +0.000 A 
BRANCH  15  21
ATOM     21  C   UNL     1      46.969   3.549   6.508  0.00  0.00    +0.000 C 
BRANCH  21  22
ATOM     22  N   UNL     1      48.243   2.847   6.619  0.00  0.00    +0.000 NA
ATOM     23  H   UNL     1      48.588   2.932   7.573  0.00  0.00    +0.000 HD
ATOM     24  H   UNL     1      48.926   3.312   6.023  0.00  0.00    +0.000 HD
ENDBRANCH  21  22
ENDBRANCH  15  21
ENDBRANCH  14  19
ENDBRANCH   1  14
TORSDOF 8
ENDMDL
MODEL 6
REMARK VINA RESULT:    -6.373      1.653      2.116
REMARK INTER + INTRA:          -9.550
REMARK INTER:                  -9.087
REMARK INTRA:                  -0.463
REMARK UNBOUND:                -0.569
REMARK  Name = 
REMARK  8 active torsions:
REMARK  status: ('A' for Active; 'I' for Inactive)
REMARK    1  A    between atoms: N_1  and  C_2
REMARK    2  A    between atoms: C_2  and  C_3
REMARK    3  A    between atoms: C_7  and  C_8
REMARK    4  A    between atoms: C_8  and  C_9
REMARK    5  A    between atoms: C_9  and  N_10
REMARK    6  A    between atoms: N_10  and  C_11
REMARK    7  A    between atoms: CA_14  and  C_15
REMARK    8  A    between atoms: C_15  and  OXT_17
REMARK                            x       y       z     vdW  Elec       q    Type
REMARK                         _______ _______ _______ _____ _____    ______ ____
ROOT
ATOM      1  C   UNL     1      44.370   5.798  10.623  0.00  0.00    +0.000 C 
ENDROOT
BRANCH   1   2
ATOM      2  N   UNL     1      43.726   4.643   9.981  0.00  0.00    +0.000 N 
ATOM      3  H   UNL     1      42.887   4.902   9.465  0.00  0.00    +0.000 HD
BRANCH   2   4
ATOM      4  C   UNL     1      44.553   3.776   9.246  0.00  0.00    +0.000 A 
ATOM      5  C   UNL     1      45.484   4.225   8.303  0.00  0.00    +0.000 A 
ATOM      6  C   UNL     1      46.333   3.333   7.647  0.00  0.00    +0.000 A 
ATOM      7  CA  UNL     1      46.247   1.992   7.977  0.00  0.00    +0.000 A 
ATOM      8  N   UNL     1      45.395   1.488   8.913  0.00  0.00    +0.000 NA
ATOM      9  C   UNL     1      44.595   2.402   9.529  0.00  0.00    +0.000 A 
BRANCH   7  10
ATOM     10  C   UNL     1      47.132   1.003   7.293  0.00  0.00    +0.000 C 
ATOM     11  O   UNL     1      47.944   1.271   6.424  0.00  0.00    +0.000 OA
BRANCH  10  12
ATOM     12  OXT UNL     1      46.904  -0.245   7.767  0.00  0.00    +0.000 OA
ATOM     13  HXT UNL     1      47.356  -0.336   8.638  0.00  0.00    +0.000 HD
ENDBRANCH  10  12
ENDBRANCH   7  10
ENDBRANCH   2   4
ENDBRANCH   1   2
BRANCH   1  14
ATOM     14  C   UNL     1      45.379   5.368  11.695  0.00  0.00    +0.000 C 
BRANCH  14  19
ATOM     15  C   UNL     1      48.233   7.688  12.757  0.00  0.00    +0.000 A 
ATOM     16  C   UNL     1      47.522   8.847  13.091  0.00  0.00    +0.000 A 
ATOM     17  C   UNL     1      46.130   8.872  13.002  0.00  0.00    +0.000 A 
ATOM     18  C   UNL     1      45.431   7.742  12.576  0.00  0.00    +0.000 A 
ATOM     19  C   UNL     1      46.119   6.571  12.236  0.00  0.00    +0.000 A 
ATOM     20  C   UNL     1      47.519   6.554  12.335  0.00  0.00    +0.000 A 
BRANCH  15  21
ATOM     21  C   UNL     1      49.738   7.647  12.863  0.00  0.00    +0.000 C 
BRANCH  21  22
ATOM     22  N   UNL     1      50.173   7.143  14.160  0.00  0.00    +0.000 NA
ATOM     23  H   UNL     1      49.359   7.024  14.761  0.00  0.00    +0.000 HD
ATOM     24  H   UNL     1      50.758   7.848  14.606  0.00  0.00    +0.000 HD
ENDBRANCH  21  22
ENDBRANCH  15  21
ENDBRANCH  14  19
ENDBRANCH   1  14
TORSDOF 8
ENDMDL
MODEL 7
REMARK VINA RESULT:    -6.252      3.810      6.708
REMARK INTER + INTRA:          -9.380
REMARK INTER:                  -8.705
REMARK INTRA:                  -0.675
REMARK UNBOUND:                -0.569
REMARK  Name = 
REMARK  8 active torsions:
REMARK  status: ('A' for Active; 'I' for Inactive)
REMARK    1  A    between atoms: N_1  and  C_2
REMARK    2  A    between atoms: C_2  and  C_3
REMARK    3  A    between atoms: C_7  and  C_8
REMARK    4  A    between atoms: C_8  and  C_9
REMARK    5  A    between atoms: C_9  and  N_10
REMARK    6  A    between atoms: N_10  and  C_11
REMARK    7  A    between atoms: CA_14  and  C_15
REMARK    8  A    between atoms: C_15  and  OXT_17
REMARK                            x       y       z     vdW  Elec       q    Type
REMARK                         _______ _______ _______ _____ _____    ______ ____
ROOT
ATOM      1  C   UNL     1      46.048   7.445  12.830  0.00  0.00    +0.000 C 
ENDROOT
BRANCH   1   2
ATOM      2  N   UNL     1      47.184   6.513  12.774  0.00  0.00    +0.000 N 
ATOM      3  H   UNL     1      48.041   6.963  12.456  0.00  0.00    +0.000 HD
BRANCH   2   4
ATOM      4  C   UNL     1      47.400   5.698  13.899  0.00  0.00    +0.000 A 
ATOM      5  C   UNL     1      48.058   6.144  15.050  0.00  0.00    +0.000 A 
ATOM      6  C   UNL     1      48.188   5.322  16.170  0.00  0.00    +0.000 A 
ATOM      7  CA  UNL     1      47.622   4.061  16.120  0.00  0.00    +0.000 A 
ATOM      8  N   UNL     1      46.931   3.575  15.050  0.00  0.00    +0.000 NA
ATOM      9  C   UNL     1      46.826   4.421  13.988  0.00  0.00    +0.000 A 
BRANCH   7  10
ATOM     10  C   UNL     1      47.744   3.146  17.293  0.00  0.00    +0.000 C 
ATOM     11  O   UNL     1      48.795   2.794  17.801  0.00  0.00    +0.000 OA
BRANCH  10  12
ATOM     12  OXT UNL     1      46.520   2.750  17.716  0.00  0.00    +0.000 OA
ATOM     13  HXT UNL     1      45.845   3.354  17.328  0.00  0.00    +0.000 HD
ENDBRANCH  10  12
ENDBRANCH   7  10
ENDBRANCH   2   4
ENDBRANCH   1   2
BRANCH   1  14
ATOM     14  C   UNL     1      45.144   7.319  11.598  0.00  0.00    +0.000 C 
BRANCH  14  19
ATOM     15  C   UNL     1      44.364   3.735  10.501  0.00  0.00    +0.000 A 
ATOM     16  C   UNL     1      43.480   3.336  11.510  0.00  0.00    +0.000 A 
ATOM     17  C   UNL     1      43.113   4.224  12.521  0.00  0.00    +0.000 A 
ATOM     18  C   UNL     1      43.629   5.521  12.539  0.00  0.00    +0.000 A 
ATOM     19  C   UNL     1      44.516   5.944  11.542  0.00  0.00    +0.000 A 
ATOM     20  C   UNL     1      44.873   5.045  10.526  0.00  0.00    +0.000 A 
BRANCH  15  21
ATOM     21  C   UNL     1      44.756   2.786   9.396  0.00  0.00    +0.000 C 
BRANCH  21  22
ATOM     22  N   UNL     1      44.339   3.280   8.089  0.00  0.00    +0.000 NA
ATOM     23  H   UNL     1      44.856   4.130   7.874  0.00  0.00    +0.000 HD
ATOM     24  H   UNL     1      43.356   3.546   8.137  0.00  0.00    +0.000 HD
ENDBRANCH  21  22
ENDBRANCH  15  21
ENDBRANCH  14  19
ENDBRANCH   1  14
TORSDOF 8
ENDMDL
MODEL 8
REMARK VINA RESULT:    -6.073      3.349      5.467
REMARK INTER + INTRA:          -9.128
REMARK INTER:                  -8.584
REMARK INTRA:                  -0.543
REMARK UNBOUND:                -0.569
REMARK  Name = 
REMARK  8 active torsions:
REMARK  status: ('A' for Active; 'I' for Inactive)
REMARK    1  A    between atoms: N_1  and  C_2
REMARK    2  A    between atoms: C_2  and  C_3
REMARK    3  A    between atoms: C_7  and  C_8
REMARK    4  A    between atoms: C_8  and  C_9
REMARK    5  A    between atoms: C_9  and  N_10
REMARK    6  A    between atoms: N_10  and  C_11
REMARK    7  A    between atoms: CA_14  and  C_15
REMARK    8  A    between atoms: C_15  and  OXT_17
REMARK                            x       y       z     vdW  Elec       q    Type
REMARK                         _______ _______ _______ _____ _____    ______ ____
ROOT
ATOM      1  C   UNL     1      48.448   6.762  14.050  0.00  0.00    +0.000 C 
ENDROOT
BRANCH   1   2
ATOM      2  N   UNL     1      47.101   7.177  13.630  0.00  0.00    +0.000 N 
ATOM      3  H   UNL     1      47.113   8.028  13.071  0.00  0.00    +0.000 HD
BRANCH   2   4
ATOM      4  C   UNL     1      46.272   6.188  13.072  0.00  0.00    +0.000 A 
ATOM      5  C   UNL     1      45.892   6.180  11.726  0.00  0.00    +0.000 A 
ATOM      6  C   UNL     1      45.125   5.140  11.201  0.00  0.00    +0.000 A 
ATOM      7  CA  UNL     1      44.773   4.101  12.043  0.00  0.00    +0.000 A 
ATOM      8  N   UNL     1      45.142   4.020  13.353  0.00  0.00    +0.000 NA
ATOM      9  C   UNL     1      45.897   5.057  13.813  0.00  0.00    +0.000 A 
BRANCH   7  10
ATOM     10  C   UNL     1      43.947   2.972  11.523  0.00  0.00    +0.000 C 
ATOM     11  O   UNL     1      43.667   2.789  10.350  0.00  0.00    +0.000 OA
BRANCH  10  12
ATOM     12  OXT UNL     1      43.538   2.175  12.539  0.00  0.00    +0.000 OA
ATOM     13  HXT UNL     1      42.735   2.575  12.946  0.00  0.00    +0.000 HD
ENDBRANCH  10  12
ENDBRANCH   7  10
ENDBRANCH   2   4
ENDBRANCH   1   2
BRANCH   1  14
ATOM     14  C   UNL     1      48.801   7.294  15.444  0.00  0.00    +0.000 C 
BRANCH  14  19
ATOM     15  C   UNL     1      48.948   4.055  17.479  0.00  0.00    +0.000 A 
ATOM     16  C   UNL     1      50.307   4.013  17.814  0.00  0.00    +0.000 A 
ATOM     17  C   UNL     1      51.166   5.037  17.411  0.00  0.00    +0.000 A 
ATOM     18  C   UNL     1      50.678   6.112  16.666  0.00  0.00    +0.000 A 
ATOM     19  C   UNL     1      49.323   6.177  16.320  0.00  0.00    +0.000 A 
ATOM     20  C   UNL     1      48.467   5.145  16.735  0.00  0.00    +0.000 A 
BRANCH  15  21
ATOM     21  C   UNL     1      48.009   2.960  17.922  0.00  0.00    +0.000 C 
BRANCH  21  22
ATOM     22  N   UNL     1      46.650   3.191  17.446  0.00  0.00    +0.000 NA
ATOM     23  H   UNL     1      46.194   2.294  17.291  0.00  0.00    +0.000 HD
ATOM     24  H   UNL     1      46.695   3.652  16.539  0.00  0.00    +0.000 HD
ENDBRANCH  21  22
ENDBRANCH  15  21
ENDBRANCH  14  19
ENDBRANCH   1  14
TORSDOF 8
ENDMDL
MODEL 9
REMARK VINA RESULT:    -5.915      3.112      5.496
REMARK INTER + INTRA:          -8.905
REMARK INTER:                  -8.251
REMARK INTRA:                  -0.653
REMARK UNBOUND:                -0.569
REMARK  Name = 
REMARK  8 active torsions:
REMARK  status: ('A' for Active; 'I' for Inactive)
REMARK    1  A    between atoms: N_1  and  C_2
REMARK    2  A    between atoms: C_2  and  C_3
REMARK    3  A    between atoms: C_7  and  C_8
REMARK    4  A    between atoms: C_8  and  C_9
REMARK    5  A    between atoms: C_9  and  N_10
REMARK    6  A    between atoms: N_10  and  C_11
REMARK    7  A    between atoms: CA_14  and  C_15
REMARK    8  A    between atoms: C_15  and  OXT_17
REMARK                            x       y       z     vdW  Elec       q    Type
REMARK                         _______ _______ _______ _____ _____    ______ ____
ROOT
ATOM      1  C   UNL     1      48.469   6.861  14.158  0.00  0.00    +0.000 C 
ENDROOT
BRANCH   1   2
ATOM      2  N   UNL     1      47.029   7.020  13.908  0.00  0.00    +0.000 N 
ATOM      3  H   UNL     1      46.799   7.937  13.530  0.00  0.00    +0.000 HD
BRANCH   2   4
ATOM      4  C   UNL     1      46.382   5.983  13.212  0.00  0.00    +0.000 A 
ATOM      5  C   UNL     1      46.600   4.628  13.484  0.00  0.00    +0.000 A 
ATOM      6  C   UNL     1      45.884   3.636  12.815  0.00  0.00    +0.000 A 
ATOM      7  CA  UNL     1      44.930   4.030  11.895  0.00  0.00    +0.000 A 
ATOM      8  N   UNL     1      44.634   5.330  11.609  0.00  0.00    +0.000 NA
ATOM      9  C   UNL     1      45.356   6.258  12.296  0.00  0.00    +0.000 A 
BRANCH   7  10
ATOM     10  C   UNL     1      44.146   3.000  11.152  0.00  0.00    +0.000 C 
ATOM     11  O   UNL     1      42.973   2.733  11.350  0.00  0.00    +0.000 OA
BRANCH  10  12
ATOM     12  OXT UNL     1      44.921   2.390  10.224  0.00  0.00    +0.000 OA
ATOM     13  HXT UNL     1      45.816   2.804  10.243  0.00  0.00    +0.000 HD
ENDBRANCH  10  12
ENDBRANCH   7  10
ENDBRANCH   2   4
ENDBRANCH   1   2
BRANCH   1  14
ATOM     14  C   UNL     1      48.856   7.308  15.573  0.00  0.00    +0.000 C 
BRANCH  14  19
ATOM     15  C   UNL     1      48.904   3.917  17.349  0.00  0.00    +0.000 A 
ATOM     16  C   UNL     1      50.239   3.856  17.768  0.00  0.00    +0.000 A 
ATOM     17  C   UNL     1      51.111   4.913  17.505  0.00  0.00    +0.000 A 
ATOM     18  C   UNL     1      50.662   6.042  16.818  0.00  0.00    +0.000 A 
ATOM     19  C   UNL     1      49.332   6.127  16.389  0.00  0.00    +0.000 A 
ATOM     20  C   UNL     1      48.461   5.061  16.664  0.00  0.00    +0.000 A 
BRANCH  15  21
ATOM     21  C   UNL     1      47.951   2.785  17.640  0.00  0.00    +0.000 C 
BRANCH  21  22
ATOM     22  N   UNL     1      46.562   3.193  17.466  0.00  0.00    +0.000 NA
ATOM     23  H   UNL     1      46.290   3.042  16.496  0.00  0.00    +0.000 HD
ATOM     24  H   UNL     1      46.492   4.196  17.631  0.00  0.00    +0.000 HD
ENDBRANCH  21  22
ENDBRANCH  15  21
ENDBRANCH  14  19
ENDBRANCH   1  14
TORSDOF 8
ENDMDL
