MODEL 1
REMARK VINA RESULT:    -8.463      0.000      0.000
REMARK INTER + INTRA:         -13.671
REMARK INTER:                 -12.422
REMARK INTRA:                  -1.249
REMARK UNBOUND:                -1.249
REMARK  Name = 
REMARK  9 active torsions:
REMARK  status: ('A' for Active; 'I' for Inactive)
REMARK    1  A    between atoms: C_1  and  C_2
REMARK    2  A    between atoms: C_2  and  C_3
REMARK    3  A    between atoms: C_3  and  N_4
REMARK    4  A    between atoms: C_3  and  C_12
REMARK    5  A    between atoms: N_4  and  C_5
REMARK    6  A    between atoms: C_5  and  C_6
REMARK    7  A    between atoms: C_15  and  C_16
REMARK    8  A    between atoms: C_16  and  N_17
REMARK    9  A    between atoms: C_18  and  C_20
REMARK                            x       y       z     vdW  Elec       q    Type
REMARK                         _______ _______ _______ _____ _____    ______ ____
ROOT
ATOM      1  C   UNL     1      45.412   4.569  12.351  0.00  0.00    +0.000 A 
ATOM      2  C   UNL     1      45.944   4.305  13.627  0.00  0.00    +0.000 A 
ATOM      3  C   UNL     1      46.971   5.092  14.161  0.00  0.00    +0.000 A 
ATOM      4  C   UNL     1      47.447   6.204  13.461  0.00  0.00    +0.000 A 
ATOM      5  C   UNL     1      46.920   6.478  12.196  0.00  0.00    +0.000 A 
ATOM      6  C   UNL     1      45.926   5.663  11.643  0.00  0.00    +0.000 A 
ENDROOT
BRANCH   1   7
ATOM      7  C   UNL     1      44.359   3.625  11.751  0.00  0.00    +0.000 C 
BRANCH   7   9
ATOM      8  C   UNL     1      42.454   5.402  11.829  0.00  0.00    +0.000 C 
ATOM      9  C   UNL     1      43.267   4.426  10.990  0.00  0.00    +0.000 C 
ENDBRANCH   7   9
BRANCH   7  10
ATOM     10  N   UNL     1      44.964   2.587  10.886  0.00  0.00    +0.000 NA
ATOM     11  H   UNL     1      44.753   1.669  11.273  0.00  0.00    +0.000 HD
BRANCH  10  12
ATOM     12  C   UNL     1      44.438   2.645   9.514  0.00  0.00    +0.000 C 
BRANCH  12  13
ATOM     13  C   UNL     1      45.473   2.516   8.419  0.00  0.00    +0.000 A 
ATOM     14  C   UNL     1      45.844   3.667   7.696  0.00  0.00    +0.000 A 
ATOM     15  C   UNL     1      46.872   3.622   6.754  0.00  0.00    +0.000 A 
ATOM     16  C   UNL     1      47.548   2.428   6.528  0.00  0.00    +0.000 A 
ATOM     17  C   UNL     1      47.192   1.280   7.237  0.00  0.00    +0.000 A 
ATOM     18  C   UNL     1      46.162   1.325   8.182  0.00  0.00    +0.000 A 
ENDBRANCH  12  13
ENDBRANCH  10  12
ENDBRANCH   7  10
ENDBRANCH   1   7
BRANCH   4  19
ATOM     19  C   UNL     1      48.536   7.076  14.029  0.00  0.00    +0.000 C 
BRANCH  19  20
ATOM     20  N   UNL     1      48.390   7.240  15.451  0.00  0.00    +0.000 N 
ATOM     21  C   UNL     1      49.311   6.708  16.318  0.00  0.00    +0.000 C 
ATOM     22  O   UNL     1      50.317   6.132  15.913  0.00  0.00    +0.000 OA
ATOM     23  H   UNL     1      47.470   7.505  15.797  0.00  0.00    +0.000 HD
BRANCH  21  24
ATOM     24  C   UNL     1      49.066   6.911  17.750  0.00  0.00    +0.000 A 
ATOM     25  C   UNL     1      49.009   8.202  18.255  0.00  0.00    +0.000 A 
ATOM     26  S   UNL     1      48.677   8.272  19.926  0.00  0.00    +0.000 S 
ATOM     27  C   UNL     1      48.659   6.573  20.046  0.00  0.00    +0.000 A 
ATOM     28  N   UNL     1      48.453   5.961  21.245  0.00  0.00    +0.000 NA
ATOM     29  C   UNL     1      48.489   4.671  21.195  0.00  0.00    +0.000 A 
ATOM     30  N   UNL     1      48.707   3.940  20.056  0.00  0.00    +0.000 N 
ATOM     31  C   UNL     1      48.896   4.514  18.823  0.00  0.00    +0.000 A 
ATOM     32  O   UNL     1      49.053   3.828  17.819  0.00  0.00    +0.000 OA
ATOM     33  C   UNL     1      48.875   5.964  18.824  0.00  0.00    +0.000 A 
ATOM     34  H   UNL     1      48.715   2.931  20.088  0.00  0.00    +0.000 HD
ENDBRANCH  21  24
ENDBRANCH  19  20
ENDBRANCH   4  19
TORSDOF 8
ENDMDL
MODEL 2
REMARK VINA RESULT:    -8.165      1.519      2.380
REMARK INTER + INTRA:         -13.233
REMARK INTER:                 -11.902
REMARK INTRA:                  -1.331
REMARK UNBOUND:                -1.249
REMARK  Name = 
REMARK  9 active torsions:
REMARK  status: ('A' for Active; 'I' for Inactive)
REMARK    1  A    between atoms: C_1  and  C_2
REMARK    2  A    between atoms: C_2  and  C_3
REMARK    3  A    between atoms: C_3  and  N_4
REMARK    4  A    between atoms: C_3  and  C_12
REMARK    5  A    between atoms: N_4  and  C_5
REMARK    6  A    between atoms: C_5  and  C_6
REMARK    7  A    between atoms: C_15  and  C_16
REMARK    8  A    between atoms: C_16  and  N_17
REMARK    9  A    between atoms: C_18  and  C_20
REMARK                            x       y       z     vdW  Elec       q    Type
REMARK                         _______ _______ _______ _____ _____    ______ ____
ROOT
ATOM      1  C   UNL     1      45.396   4.356  12.261  0.00  0.00    +0.000 A 
ATOM      2  C   UNL     1      45.904   5.509  11.634  0.00  0.00    +0.000 A 
ATOM      3  C   UNL     1      46.851   6.321  12.267  0.00  0.00    +0.000 A 
ATOM      4  C   UNL     1      47.364   5.966  13.518  0.00  0.00    +0.000 A 
ATOM      5  C   UNL     1      46.870   4.819  14.146  0.00  0.00    +0.000 A 
ATOM      6  C   UNL     1      45.889   4.033  13.532  0.00  0.00    +0.000 A 
ENDROOT
BRANCH   1   7
ATOM      7  C   UNL     1      44.283   3.543  11.583  0.00  0.00    +0.000 C 
BRANCH   7   9
ATOM      8  C   UNL     1      42.455   5.390  11.783  0.00  0.00    +0.000 C 
ATOM      9  C   UNL     1      43.268   4.480  10.872  0.00  0.00    +0.000 C 
ENDBRANCH   7   9
BRANCH   7  10
ATOM     10  N   UNL     1      44.819   2.527  10.650  0.00  0.00    +0.000 NA
ATOM     11  H   UNL     1      44.453   1.613  10.909  0.00  0.00    +0.000 HD
BRANCH  10  12
ATOM     12  C   UNL     1      44.432   2.804   9.259  0.00  0.00    +0.000 C 
BRANCH  12  13
ATOM     13  C   UNL     1      45.508   2.557   8.226  0.00  0.00    +0.000 A 
ATOM     14  C   UNL     1      45.897   3.616   7.382  0.00  0.00    +0.000 A 
ATOM     15  C   UNL     1      46.961   3.470   6.491  0.00  0.00    +0.000 A 
ATOM     16  C   UNL     1      47.654   2.265   6.437  0.00  0.00    +0.000 A 
ATOM     17  C   UNL     1      47.279   1.207   7.266  0.00  0.00    +0.000 A 
ATOM     18  C   UNL     1      46.215   1.353   8.160  0.00  0.00    +0.000 A 
ENDBRANCH  12  13
ENDBRANCH  10  12
ENDBRANCH   7  10
ENDBRANCH   1   7
BRANCH   4  19
ATOM     19  C   UNL     1      48.401   6.816  14.207  0.00  0.00    +0.000 C 
BRANCH  19  20
ATOM     20  N   UNL     1      48.110   6.967  15.608  0.00  0.00    +0.000 N 
ATOM     21  C   UNL     1      48.959   6.461  16.559  0.00  0.00    +0.000 C 
ATOM     22  O   UNL     1      50.019   5.920  16.255  0.00  0.00    +0.000 OA
ATOM     23  H   UNL     1      47.153   7.200  15.862  0.00  0.00    +0.000 HD
BRANCH  21  24
ATOM     24  C   UNL     1      48.568   6.647  17.961  0.00  0.00    +0.000 A 
ATOM     25  C   UNL     1      48.623   5.568  18.832  0.00  0.00    +0.000 A 
ATOM     26  S   UNL     1      48.178   5.954  20.432  0.00  0.00    +0.000 S 
ATOM     27  C   UNL     1      47.835   7.565  20.003  0.00  0.00    +0.000 A 
ATOM     28  N   UNL     1      47.368   8.449  20.928  0.00  0.00    +0.000 NA
ATOM     29  C   UNL     1      47.128   9.629  20.461  0.00  0.00    +0.000 A 
ATOM     30  N   UNL     1      47.316  10.005  19.157  0.00  0.00    +0.000 N 
ATOM     31  C   UNL     1      47.806   9.155  18.195  0.00  0.00    +0.000 A 
ATOM     32  O   UNL     1      47.996   9.535  17.046  0.00  0.00    +0.000 OA
ATOM     33  C   UNL     1      48.084   7.811  18.665  0.00  0.00    +0.000 A 
ATOM     34  H   UNL     1      47.114  10.949  18.860  0.00  0.00    +0.000 HD
ENDBRANCH  21  24
ENDBRANCH  19  20
ENDBRANCH   4  19
TORSDOF 8
ENDMDL
MODEL 3
REMARK VINA RESULT:    -8.161      2.040      2.372
REMARK INTER + INTRA:         -13.227
REMARK INTER:                 -11.662
REMARK INTRA:                  -1.565
REMARK UNBOUND:                -1.249
REMARK  Name = 
REMARK  9 active torsions:
REMARK  status: ('A' for Active; 'I' for Inactive)
REMARK    1  A    between atoms: C_1  and  C_2
REMARK    2  A    between atoms: C_2  and  C_3
REMARK    3  A    between atoms: C_3  and  N_4
REMARK    4  A    between atoms: C_3  and  C_12
REMARK    5  A    between atoms: N_4  and  C_5
REMARK    6  A    between atoms: C_5  and  C_6
REMARK    7  A    between atoms: C_15  and  C_16
REMARK    8  A    between atoms: C_16  and  N_17
REMARK    9  A    between atoms: C_18  and  C_20
REMARK                            x       y       z     vdW  Elec       q    Type
REMARK                         _______ _______ _______ _____ _____    ______ ____
ROOT
ATOM      1  C   UNL     1      45.543   4.965  12.102  0.00  0.00    +0.000 A 
ATOM      2  C   UNL     1      46.259   4.939  13.313  0.00  0.00    +0.000 A 
ATOM      3  C   UNL     1      47.319   5.821  13.548  0.00  0.00    +0.000 A 
ATOM      4  C   UNL     1      47.650   6.797  12.603  0.00  0.00    +0.000 A 
ATOM      5  C   UNL     1      46.940   6.835  11.399  0.00  0.00    +0.000 A 
ATOM      6  C   UNL     1      45.910   5.923  11.147  0.00  0.00    +0.000 A 
ENDROOT
BRANCH   1   7
ATOM      7  C   UNL     1      44.452   3.917  11.834  0.00  0.00    +0.000 C 
BRANCH   7   9
ATOM      8  C   UNL     1      42.376   5.492  11.872  0.00  0.00    +0.000 C 
ATOM      9  C   UNL     1      43.257   4.545  11.068  0.00  0.00    +0.000 C 
ENDBRANCH   7   9
BRANCH   7  10
ATOM     10  N   UNL     1      44.978   2.728  11.127  0.00  0.00    +0.000 NA
ATOM     11  H   UNL     1      44.746   1.894  11.663  0.00  0.00    +0.000 HD
BRANCH  10  12
ATOM     12  C   UNL     1      44.400   2.592   9.782  0.00  0.00    +0.000 C 
BRANCH  12  13
ATOM     13  C   UNL     1      45.400   2.550   8.649  0.00  0.00    +0.000 A 
ATOM     14  C   UNL     1      45.744   3.753   8.001  0.00  0.00    +0.000 A 
ATOM     15  C   UNL     1      46.742   3.784   7.027  0.00  0.00    +0.000 A 
ATOM     16  C   UNL     1      47.415   2.613   6.692  0.00  0.00    +0.000 A 
ATOM     17  C   UNL     1      47.084   1.414   7.325  0.00  0.00    +0.000 A 
ATOM     18  C   UNL     1      46.085   1.383   8.303  0.00  0.00    +0.000 A 
ENDBRANCH  12  13
ENDBRANCH  10  12
ENDBRANCH   7  10
ENDBRANCH   1   7
BRANCH   4  19
ATOM     19  C   UNL     1      48.775   7.770  12.846  0.00  0.00    +0.000 C 
BRANCH  19  20
ATOM     20  N   UNL     1      49.788   7.199  13.694  0.00  0.00    +0.000 N 
ATOM     21  C   UNL     1      49.996   7.681  14.961  0.00  0.00    +0.000 C 
ATOM     22  O   UNL     1      49.291   8.566  15.437  0.00  0.00    +0.000 OA
ATOM     23  H   UNL     1      50.510   6.640  13.245  0.00  0.00    +0.000 HD
BRANCH  21  24
ATOM     24  C   UNL     1      51.065   7.048  15.743  0.00  0.00    +0.000 A 
ATOM     25  C   UNL     1      52.381   7.435  15.534  0.00  0.00    +0.000 A 
ATOM     26  S   UNL     1      53.500   6.640  16.545  0.00  0.00    +0.000 S 
ATOM     27  C   UNL     1      52.269   5.702  17.256  0.00  0.00    +0.000 A 
ATOM     28  N   UNL     1      52.561   4.771  18.206  0.00  0.00    +0.000 NA
ATOM     29  C   UNL     1      51.536   4.117  18.641  0.00  0.00    +0.000 A 
ATOM     30  N   UNL     1      50.248   4.313  18.217  0.00  0.00    +0.000 N 
ATOM     31  C   UNL     1      49.903   5.255  17.279  0.00  0.00    +0.000 A 
ATOM     32  O   UNL     1      48.736   5.428  16.949  0.00  0.00    +0.000 OA
ATOM     33  C   UNL     1      51.020   6.013  16.748  0.00  0.00    +0.000 A 
ATOM     34  H   UNL     1      49.491   3.770  18.606  0.00  0.00    +0.000 HD
ENDBRANCH  21  24
ENDBRANCH  19  20
ENDBRANCH   4  19
TORSDOF 8
ENDMDL
MODEL 4
REMARK VINA RESULT:    -7.520      1.591      2.033
REMARK INTER + INTRA:         -12.287
REMARK INTER:                 -11.039
REMARK INTRA:                  -1.248
REMARK UNBOUND:                -1.249
REMARK  Name = 
REMARK  9 active torsions:
REMARK  status: ('A' for Active; 'I' for Inactive)
REMARK    1  A    between atoms: C_1  and  C_2
REMARK    2  A    between atoms: C_2  and  C_3
REMARK    3  A    between atoms: C_3  and  N_4
REMARK    4  A    between atoms: C_3  and  C_12
REMARK    5  A    between atoms: N_4  and  C_5
REMARK    6  A    between atoms: C_5  and  C_6
REMARK    7  A    between atoms: C_15  and  C_16
REMARK    8  A    between atoms: C_16  and  N_17
REMARK    9  A    between atoms: C_18  and  C_20
REMARK                            x       y       z     vdW  Elec       q    Type
REMARK                         _______ _______ _______ _____ _____    ______ ____
ROOT
ATOM      1  C   UNL     1      45.994   5.155  11.783  0.00  0.00    +0.000 A 
ATOM      2  C   UNL     1      46.524   6.404  11.409  0.00  0.00    +0.000 A 
ATOM      3  C   UNL     1      47.289   7.164  12.301  0.00  0.00    +0.000 A 
ATOM      4  C   UNL     1      47.599   6.664  13.570  0.00  0.00    +0.000 A 
ATOM      5  C   UNL     1      47.083   5.421  13.947  0.00  0.00    +0.000 A 
ATOM      6  C   UNL     1      46.280   4.684  13.071  0.00  0.00    +0.000 A 
ENDROOT
BRANCH   1   7
ATOM      7  C   UNL     1      45.074   4.394  10.816  0.00  0.00    +0.000 C 
BRANCH   7   9
ATOM      8  C   UNL     1      43.266   2.787  11.786  0.00  0.00    +0.000 C 
ATOM      9  C   UNL     1      43.657   4.214  11.427  0.00  0.00    +0.000 C 
ENDBRANCH   7   9
BRANCH   7  10
ATOM     10  N   UNL     1      45.007   5.035   9.484  0.00  0.00    +0.000 NA
ATOM     11  H   UNL     1      45.941   5.334   9.212  0.00  0.00    +0.000 HD
BRANCH  10  12
ATOM     12  C   UNL     1      44.497   4.112   8.459  0.00  0.00    +0.000 C 
BRANCH  12  13
ATOM     13  C   UNL     1      45.512   3.138   7.904  0.00  0.00    +0.000 A 
ATOM     14  C   UNL     1      46.467   3.604   6.979  0.00  0.00    +0.000 A 
ATOM     15  C   UNL     1      47.490   2.772   6.524  0.00  0.00    +0.000 A 
ATOM     16  C   UNL     1      47.577   1.465   6.994  0.00  0.00    +0.000 A 
ATOM     17  C   UNL     1      46.637   0.990   7.910  0.00  0.00    +0.000 A 
ATOM     18  C   UNL     1      45.612   1.824   8.367  0.00  0.00    +0.000 A 
ENDBRANCH  12  13
ENDBRANCH  10  12
ENDBRANCH   7  10
ENDBRANCH   1   7
BRANCH   4  19
ATOM     19  C   UNL     1      48.440   7.457  14.536  0.00  0.00    +0.000 C 
BRANCH  19  20
ATOM     20  N   UNL     1      48.840   6.657  15.664  0.00  0.00    +0.000 N 
ATOM     21  C   UNL     1      49.257   7.247  16.830  0.00  0.00    +0.000 C 
ATOM     22  O   UNL     1      49.245   8.467  16.975  0.00  0.00    +0.000 OA
ATOM     23  H   UNL     1      49.069   5.682  15.485  0.00  0.00    +0.000 HD
BRANCH  21  24
ATOM     24  C   UNL     1      49.664   6.349  17.917  0.00  0.00    +0.000 A 
ATOM     25  C   UNL     1      50.865   5.661  17.817  0.00  0.00    +0.000 A 
ATOM     26  S   UNL     1      51.216   4.692  19.176  0.00  0.00    +0.000 S 
ATOM     27  C   UNL     1      49.742   5.110  19.919  0.00  0.00    +0.000 A 
ATOM     28  N   UNL     1      49.396   4.585  21.127  0.00  0.00    +0.000 NA
ATOM     29  C   UNL     1      48.242   4.969  21.563  0.00  0.00    +0.000 A 
ATOM     30  N   UNL     1      47.407   5.833  20.903  0.00  0.00    +0.000 N 
ATOM     31  C   UNL     1      47.724   6.404  19.694  0.00  0.00    +0.000 A 
ATOM     32  O   UNL     1      46.969   7.200  19.149  0.00  0.00    +0.000 OA
ATOM     33  C   UNL     1      49.008   5.998  19.154  0.00  0.00    +0.000 A 
ATOM     34  H   UNL     1      46.520   6.097  21.305  0.00  0.00    +0.000 HD
ENDBRANCH  21  24
ENDBRANCH  19  20
ENDBRANCH   4  19
TORSDOF 8
ENDMDL
MODEL 5
REMARK VINA RESULT:    -7.409      2.365      3.347
REMARK INTER + INTRA:         -12.124
REMARK INTER:                 -10.703
REMARK INTRA:                  -1.421
REMARK UNBOUND:                -1.249
REMARK  Name = 
REMARK  9 active torsions:
REMARK  status: ('A' for Active; 'I' for Inactive)
REMARK    1  A    between atoms: C_1  and  C_2
REMARK    2  A    between atoms: C_2  and  C_3
REMARK    3  A    between atoms: C_3  and  N_4
REMARK    4  A    between atoms: C_3  and  C_12
REMARK    5  A    between atoms: N_4  and  C_5
REMARK    6  A    between atoms: C_5  and  C_6
REMARK    7  A    between atoms: C_15  and  C_16
REMARK    8  A    between atoms: C_16  and  N_17
REMARK    9  A    between atoms: C_18  and  C_20
REMARK                            x       y       z     vdW  Elec       q    Type
REMARK                         _______ _______ _______ _____ _____    ______ ____
ROOT
ATOM      1  C   UNL     1      45.488   4.819  11.980  0.00  0.00    +0.000 A 
ATOM      2  C   UNL     1      45.834   5.928  11.185  0.00  0.00    +0.000 A 
ATOM      3  C   UNL     1      46.882   6.781  11.548  0.00  0.00    +0.000 A 
ATOM      4  C   UNL     1      47.654   6.511  12.682  0.00  0.00    +0.000 A 
ATOM      5  C   UNL     1      47.322   5.408  13.474  0.00  0.00    +0.000 A 
ATOM      6  C   UNL     1      46.245   4.582  13.136  0.00  0.00    +0.000 A 
ENDROOT
BRANCH   1   7
ATOM      7  C   UNL     1      44.268   3.962  11.609  0.00  0.00    +0.000 C 
BRANCH   7   9
ATOM      8  C   UNL     1      42.283   5.647  11.729  0.00  0.00    +0.000 C 
ATOM      9  C   UNL     1      42.997   4.455  12.353  0.00  0.00    +0.000 C 
ENDBRANCH   7   9
BRANCH   7  10
ATOM     10  N   UNL     1      44.046   3.906  10.147  0.00  0.00    +0.000 NA
ATOM     11  H   UNL     1      44.618   4.618   9.697  0.00  0.00    +0.000 HD
BRANCH  10  12
ATOM     12  C   UNL     1      44.411   2.596   9.589  0.00  0.00    +0.000 C 
BRANCH  12  13
ATOM     13  C   UNL     1      45.536   2.614   8.578  0.00  0.00    +0.000 A 
ATOM     14  C   UNL     1      46.188   1.405   8.266  0.00  0.00    +0.000 A 
ATOM     15  C   UNL     1      47.154   1.350   7.261  0.00  0.00    +0.000 A 
ATOM     16  C   UNL     1      47.475   2.501   6.549  0.00  0.00    +0.000 A 
ATOM     17  C   UNL     1      46.837   3.706   6.848  0.00  0.00    +0.000 A 
ATOM     18  C   UNL     1      45.868   3.761   7.854  0.00  0.00    +0.000 A 
ENDBRANCH  12  13
ENDBRANCH  10  12
ENDBRANCH   7  10
ENDBRANCH   1   7
BRANCH   4  19
ATOM     19  C   UNL     1      48.800   7.406  13.076  0.00  0.00    +0.000 C 
BRANCH  19  20
ATOM     20  N   UNL     1      49.618   6.796  14.091  0.00  0.00    +0.000 N 
ATOM     21  C   UNL     1      49.499   7.168  15.406  0.00  0.00    +0.000 C 
ATOM     22  O   UNL     1      48.656   7.983  15.771  0.00  0.00    +0.000 OA
ATOM     23  H   UNL     1      50.453   6.304  13.782  0.00  0.00    +0.000 HD
BRANCH  21  24
ATOM     24  C   UNL     1      50.390   6.504  16.364  0.00  0.00    +0.000 A 
ATOM     25  C   UNL     1      49.841   5.769  17.406  0.00  0.00    +0.000 A 
ATOM     26  S   UNL     1      51.003   5.025  18.408  0.00  0.00    +0.000 S 
ATOM     27  C   UNL     1      52.284   5.713  17.521  0.00  0.00    +0.000 A 
ATOM     28  N   UNL     1      53.579   5.493  17.881  0.00  0.00    +0.000 NA
ATOM     29  C   UNL     1      54.446   6.094  17.136  0.00  0.00    +0.000 A 
ATOM     30  N   UNL     1      54.136   6.888  16.062  0.00  0.00    +0.000 N 
ATOM     31  C   UNL     1      52.846   7.118  15.649  0.00  0.00    +0.000 A 
ATOM     32  O   UNL     1      52.607   7.805  14.663  0.00  0.00    +0.000 OA
ATOM     33  C   UNL     1      51.830   6.474  16.459  0.00  0.00    +0.000 A 
ATOM     34  H   UNL     1      54.866   7.322  15.517  0.00  0.00    +0.000 HD
ENDBRANCH  21  24
ENDBRANCH  19  20
ENDBRANCH   4  19
TORSDOF 8
ENDMDL
MODEL 6
REMARK VINA RESULT:    -7.287      3.310      9.039
REMARK INTER + INTRA:         -11.944
REMARK INTER:                  -9.846
REMARK INTRA:                  -2.098
REMARK UNBOUND:                -1.249
REMARK  Name = 
REMARK  9 active torsions:
REMARK  status: ('A' for Active; 'I' for Inactive)
REMARK    1  A    between atoms: C_1  and  C_2
REMARK    2  A    between atoms: C_2  and  C_3
REMARK    3  A    between atoms: C_3  and  N_4
REMARK    4  A    between atoms: C_3  and  C_12
REMARK    5  A    between atoms: N_4  and  C_5
REMARK    6  A    between atoms: C_5  and  C_6
REMARK    7  A    between atoms: C_15  and  C_16
REMARK    8  A    between atoms: C_16  and  N_17
REMARK    9  A    between atoms: C_18  and  C_20
REMARK                            x       y       z     vdW  Elec       q    Type
REMARK                         _______ _______ _______ _____ _____    ______ ____
ROOT
ATOM      1  C   UNL     1      48.871   8.122  16.217  0.00  0.00    +0.000 A 
ATOM      2  C   UNL     1      48.097   9.112  15.582  0.00  0.00    +0.000 A 
ATOM      3  C   UNL     1      47.773   9.019  14.225  0.00  0.00    +0.000 A 
ATOM      4  C   UNL     1      48.160   7.900  13.480  0.00  0.00    +0.000 A 
ATOM      5  C   UNL     1      48.923   6.909  14.103  0.00  0.00    +0.000 A 
ATOM      6  C   UNL     1      49.286   7.026  15.449  0.00  0.00    +0.000 A 
ENDROOT
BRANCH   1   7
ATOM      7  C   UNL     1      49.296   8.305  17.682  0.00  0.00    +0.000 C 
BRANCH   7   9
ATOM      8  C   UNL     1      48.016   9.876  19.321  0.00  0.00    +0.000 C 
ATOM      9  C   UNL     1      48.059   8.540  18.592  0.00  0.00    +0.000 C 
ENDBRANCH   7   9
BRANCH   7  10
ATOM     10  N   UNL     1      50.117   7.176  18.173  0.00  0.00    +0.000 NA
ATOM     11  H   UNL     1      50.877   7.542  18.744  0.00  0.00    +0.000 HD
BRANCH  10  12
ATOM     12  C   UNL     1      49.329   6.243  18.992  0.00  0.00    +0.000 C 
BRANCH  12  13
ATOM     13  C   UNL     1      48.916   4.963  18.300  0.00  0.00    +0.000 A 
ATOM     14  C   UNL     1      47.572   4.804  17.911  0.00  0.00    +0.000 A 
ATOM     15  C   UNL     1      47.165   3.693  17.172  0.00  0.00    +0.000 A 
ATOM     16  C   UNL     1      48.100   2.729  16.805  0.00  0.00    +0.000 A 
ATOM     17  C   UNL     1      49.436   2.874  17.184  0.00  0.00    +0.000 A 
ATOM     18  C   UNL     1      49.843   3.989  17.923  0.00  0.00    +0.000 A 
ENDBRANCH  12  13
ENDBRANCH  10  12
ENDBRANCH   7  10
ENDBRANCH   1   7
BRANCH   4  19
ATOM     19  C   UNL     1      47.802   7.772  12.022  0.00  0.00    +0.000 C 
BRANCH  19  20
ATOM     20  N   UNL     1      47.068   6.561  11.766  0.00  0.00    +0.000 N 
ATOM     21  C   UNL     1      45.705   6.523  11.911  0.00  0.00    +0.000 C 
ATOM     22  O   UNL     1      45.060   7.527  12.202  0.00  0.00    +0.000 OA
ATOM     23  H   UNL     1      47.596   5.692  11.750  0.00  0.00    +0.000 HD
BRANCH  21  24
ATOM     24  C   UNL     1      45.047   5.239  11.646  0.00  0.00    +0.000 A 
ATOM     25  C   UNL     1      44.361   4.601  12.671  0.00  0.00    +0.000 A 
ATOM     26  S   UNL     1      43.618   3.142  12.196  0.00  0.00    +0.000 S 
ATOM     27  C   UNL     1      44.240   3.279  10.617  0.00  0.00    +0.000 A 
ATOM     28  N   UNL     1      43.997   2.316   9.685  0.00  0.00    +0.000 NA
ATOM     29  C   UNL     1      44.549   2.535   8.538  0.00  0.00    +0.000 A 
ATOM     30  N   UNL     1      45.316   3.630   8.238  0.00  0.00    +0.000 N 
ATOM     31  C   UNL     1      45.569   4.637   9.139  0.00  0.00    +0.000 A 
ATOM     32  O   UNL     1      46.231   5.620   8.825  0.00  0.00    +0.000 OA
ATOM     33  C   UNL     1      44.980   4.435  10.448  0.00  0.00    +0.000 A 
ATOM     34  H   UNL     1      45.712   3.743   7.316  0.00  0.00    +0.000 HD
ENDBRANCH  21  24
ENDBRANCH  19  20
ENDBRANCH   4  19
TORSDOF 8
ENDMDL
MODEL 7
REMARK VINA RESULT:    -7.165      3.804      9.900
REMARK INTER + INTRA:         -11.766
REMARK INTER:                  -9.409
REMARK INTRA:                  -2.357
REMARK UNBOUND:                -1.249
REMARK  Name = 
REMARK  9 active torsions:
REMARK  status: ('A' for Active; 'I' for Inactive)
REMARK    1  A    between atoms: C_1  and  C_2
REMARK    2  A    between atoms: C_2  and  C_3
REMARK    3  A    between atoms: C_3  and  N_4
REMARK    4  A    between atoms: C_3  and  C_12
REMARK    5  A    between atoms: N_4  and  C_5
REMARK    6  A    between atoms: C_5  and  C_6
REMARK    7  A    between atoms: C_15  and  C_16
REMARK    8  A    between atoms: C_16  and  N_17
REMARK    9  A    between atoms: C_18  and  C_20
REMARK                            x       y       z     vdW  Elec       q    Type
REMARK                         _______ _______ _______ _____ _____    ______ ____
ROOT
ATOM      1  C   UNL     1      51.126   5.181  17.975  0.00  0.00    +0.000 A 
ATOM      2  C   UNL     1      50.756   3.849  18.240  0.00  0.00    +0.000 A 
ATOM      3  C   UNL     1      49.535   3.332  17.792  0.00  0.00    +0.000 A 
ATOM      4  C   UNL     1      48.680   4.116  17.011  0.00  0.00    +0.000 A 
ATOM      5  C   UNL     1      49.041   5.438  16.737  0.00  0.00    +0.000 A 
ATOM      6  C   UNL     1      50.241   5.967  17.225  0.00  0.00    +0.000 A 
ENDROOT
BRANCH   1   7
ATOM      7  C   UNL     1      52.425   5.746  18.568  0.00  0.00    +0.000 C 
BRANCH   7   9
ATOM      8  C   UNL     1      54.047   7.618  17.756  0.00  0.00    +0.000 C 
ATOM      9  C   UNL     1      52.628   7.227  18.146  0.00  0.00    +0.000 C 
ENDBRANCH   7   9
BRANCH   7  10
ATOM     10  N   UNL     1      52.483   5.595  20.040  0.00  0.00    +0.000 NA
ATOM     11  H   UNL     1      53.454   5.648  20.340  0.00  0.00    +0.000 HD
BRANCH  10  12
ATOM     12  C   UNL     1      51.725   6.651  20.727  0.00  0.00    +0.000 C 
BRANCH  12  13
ATOM     13  C   UNL     1      50.254   6.365  20.931  0.00  0.00    +0.000 A 
ATOM     14  C   UNL     1      49.309   7.289  20.444  0.00  0.00    +0.000 A 
ATOM     15  C   UNL     1      47.942   7.018  20.507  0.00  0.00    +0.000 A 
ATOM     16  C   UNL     1      47.502   5.814  21.051  0.00  0.00    +0.000 A 
ATOM     17  C   UNL     1      48.428   4.890  21.537  0.00  0.00    +0.000 A 
ATOM     18  C   UNL     1      49.798   5.162  21.472  0.00  0.00    +0.000 A 
ENDBRANCH  12  13
ENDBRANCH  10  12
ENDBRANCH   7  10
ENDBRANCH   1   7
BRANCH   4  19
ATOM     19  C   UNL     1      47.371   3.571  16.501  0.00  0.00    +0.000 C 
BRANCH  19  20
ATOM     20  N   UNL     1      46.725   4.500  15.612  0.00  0.00    +0.000 N 
ATOM     21  C   UNL     1      46.803   4.339  14.252  0.00  0.00    +0.000 C 
ATOM     22  O   UNL     1      47.368   3.371  13.749  0.00  0.00    +0.000 OA
ATOM     23  H   UNL     1      46.460   5.403  15.996  0.00  0.00    +0.000 HD
BRANCH  21  24
ATOM     24  C   UNL     1      46.130   5.347  13.427  0.00  0.00    +0.000 A 
ATOM     25  C   UNL     1      46.750   6.569  13.204  0.00  0.00    +0.000 A 
ATOM     26  S   UNL     1      45.861   7.616  12.193  0.00  0.00    +0.000 S 
ATOM     27  C   UNL     1      44.584   6.496  12.069  0.00  0.00    +0.000 A 
ATOM     28  N   UNL     1      43.466   6.791  11.351  0.00  0.00    +0.000 NA
ATOM     29  C   UNL     1      42.568   5.862  11.361  0.00  0.00    +0.000 A 
ATOM     30  N   UNL     1      42.691   4.666  12.018  0.00  0.00    +0.000 N 
ATOM     31  C   UNL     1      43.810   4.316  12.735  0.00  0.00    +0.000 A 
ATOM     32  O   UNL     1      43.900   3.223  13.281  0.00  0.00    +0.000 OA
ATOM     33  C   UNL     1      44.847   5.330  12.765  0.00  0.00    +0.000 A 
ATOM     34  H   UNL     1      41.952   3.979  11.977  0.00  0.00    +0.000 HD
ENDBRANCH  21  24
ENDBRANCH  19  20
ENDBRANCH   4  19
TORSDOF 8
ENDMDL
MODEL 8
REMARK VINA RESULT:    -6.938      3.403      9.731
REMARK INTER + INTRA:         -11.432
REMARK INTER:                  -9.559
REMARK INTRA:                  -1.872
REMARK UNBOUND:                -1.249
REMARK  Name = 
REMARK  9 active torsions:
REMARK  status: ('A' for Active; 'I' for Inactive)
REMARK    1  A    between atoms: C_1  and  C_2
REMARK    2  A    between atoms: C_2  and  C_3
REMARK    3  A    between atoms: C_3  and  N_4
REMARK    4  A    between atoms: C_3  and  C_12
REMARK    5  A    between atoms: N_4  and  C_5
REMARK    6  A    between atoms: C_5  and  C_6
REMARK    7  A    between atoms: C_15  and  C_16
REMARK    8  A    between atoms: C_16  and  N_17
REMARK    9  A    between atoms: C_18  and  C_20
REMARK                            x       y       z     vdW  Elec       q    Type
REMARK                         _______ _______ _______ _____ _____    ______ ____
ROOT
ATOM      1  C   UNL     1      49.567   5.152  17.380  0.00  0.00    +0.000 A 
ATOM      2  C   UNL     1      48.405   4.691  16.732  0.00  0.00    +0.000 A 
ATOM      3  C   UNL     1      47.907   5.332  15.593  0.00  0.00    +0.000 A 
ATOM      4  C   UNL     1      48.595   6.413  15.032  0.00  0.00    +0.000 A 
ATOM      5  C   UNL     1      49.753   6.874  15.664  0.00  0.00    +0.000 A 
ATOM      6  C   UNL     1      50.224   6.261  16.830  0.00  0.00    +0.000 A 
ENDROOT
BRANCH   1   7
ATOM      7  C   UNL     1      50.029   4.489  18.686  0.00  0.00    +0.000 C 
BRANCH   7   9
ATOM      8  C   UNL     1      51.826   2.816  17.812  0.00  0.00    +0.000 C 
ATOM      9  C   UNL     1      51.525   4.083  18.602  0.00  0.00    +0.000 C 
ENDBRANCH   7   9
BRANCH   7  10
ATOM     10  N   UNL     1      49.770   5.340  19.869  0.00  0.00    +0.000 NA
ATOM     11  H   UNL     1      50.121   6.278  19.686  0.00  0.00    +0.000 HD
BRANCH  10  12
ATOM     12  C   UNL     1      48.334   5.433  20.171  0.00  0.00    +0.000 C 
BRANCH  12  13
ATOM     13  C   UNL     1      47.779   6.838  20.254  0.00  0.00    +0.000 A 
ATOM     14  C   UNL     1      47.565   7.410  21.523  0.00  0.00    +0.000 A 
ATOM     15  C   UNL     1      47.161   8.739  21.652  0.00  0.00    +0.000 A 
ATOM     16  C   UNL     1      46.973   9.516  20.513  0.00  0.00    +0.000 A 
ATOM     17  C   UNL     1      47.182   8.962  19.249  0.00  0.00    +0.000 A 
ATOM     18  C   UNL     1      47.588   7.630  19.120  0.00  0.00    +0.000 A 
ENDBRANCH  12  13
ENDBRANCH  10  12
ENDBRANCH   7  10
ENDBRANCH   1   7
BRANCH   4  19
ATOM     19  C   UNL     1      48.086   7.103  13.793  0.00  0.00    +0.000 C 
BRANCH  19  20
ATOM     20  N   UNL     1      47.378   6.189  12.936  0.00  0.00    +0.000 N 
ATOM     21  C   UNL     1      46.518   6.653  11.973  0.00  0.00    +0.000 C 
ATOM     22  O   UNL     1      46.369   7.855  11.768  0.00  0.00    +0.000 OA
ATOM     23  H   UNL     1      47.317   5.220  13.238  0.00  0.00    +0.000 HD
BRANCH  21  24
ATOM     24  C   UNL     1      45.828   5.645  11.161  0.00  0.00    +0.000 A 
ATOM     25  C   UNL     1      45.932   5.696   9.778  0.00  0.00    +0.000 A 
ATOM     26  S   UNL     1      45.109   4.434   8.979  0.00  0.00    +0.000 S 
ATOM     27  C   UNL     1      44.531   3.809  10.454  0.00  0.00    +0.000 A 
ATOM     28  N   UNL     1      43.718   2.717  10.477  0.00  0.00    +0.000 NA
ATOM     29  C   UNL     1      43.335   2.366  11.660  0.00  0.00    +0.000 A 
ATOM     30  N   UNL     1      43.695   3.003  12.818  0.00  0.00    +0.000 N 
ATOM     31  C   UNL     1      44.531   4.093  12.845  0.00  0.00    +0.000 A 
ATOM     32  O   UNL     1      44.861   4.616  13.902  0.00  0.00    +0.000 OA
ATOM     33  C   UNL     1      44.983   4.536  11.540  0.00  0.00    +0.000 A 
ATOM     34  H   UNL     1      43.365   2.669  13.712  0.00  0.00    +0.000 HD
ENDBRANCH  21  24
ENDBRANCH  19  20
ENDBRANCH   4  19
TORSDOF 8
ENDMDL
MODEL 9
REMARK VINA RESULT:    -6.862      3.792      9.268
REMARK INTER + INTRA:         -11.321
REMARK INTER:                  -8.844
REMARK INTRA:                  -2.477
REMARK UNBOUND:                -1.249
REMARK  Name = 
REMARK  9 active torsions:
REMARK  status: ('A' for Active; 'I' for Inactive)
REMARK    1  A    between atoms: C_1  and  C_2
REMARK    2  A    between atoms: C_2  and  C_3
REMARK    3  A    between atoms: C_3  and  N_4
REMARK    4  A    between atoms: C_3  and  C_12
REMARK    5  A    between atoms: N_4  and  C_5
REMARK    6  A    between atoms: C_5  and  C_6
REMARK    7  A    between atoms: C_15  and  C_16
REMARK    8  A    between atoms: C_16  and  N_17
REMARK    9  A    between atoms: C_18  and  C_20
REMARK                            x       y       z     vdW  Elec       q    Type
REMARK                         _______ _______ _______ _____ _____    ______ ____
ROOT
ATOM      1  C   UNL     1      50.621   4.865  19.123  0.00  0.00    +0.000 A 
ATOM      2  C   UNL     1      49.310   5.292  19.403  0.00  0.00    +0.000 A 
ATOM      3  C   UNL     1      48.223   4.840  18.646  0.00  0.00    +0.000 A 
ATOM      4  C   UNL     1      48.412   3.897  17.631  0.00  0.00    +0.000 A 
ATOM      5  C   UNL     1      49.710   3.462  17.350  0.00  0.00    +0.000 A 
ATOM      6  C   UNL     1      50.801   3.951  18.077  0.00  0.00    +0.000 A 
ENDROOT
BRANCH   1   7
ATOM      7  C   UNL     1      51.803   5.459  19.905  0.00  0.00    +0.000 C 
BRANCH   7   9
ATOM      8  C   UNL     1      54.265   4.696  20.285  0.00  0.00    +0.000 C 
ATOM      9  C   UNL     1      53.156   5.010  19.290  0.00  0.00    +0.000 C 
ENDBRANCH   7   9
BRANCH   7  10
ATOM     10  N   UNL     1      51.723   6.933  20.008  0.00  0.00    +0.000 NA
ATOM     11  H   UNL     1      52.309   7.244  20.780  0.00  0.00    +0.000 HD
BRANCH  10  12
ATOM     12  C   UNL     1      52.186   7.593  18.779  0.00  0.00    +0.000 C 
BRANCH  12  13
ATOM     13  C   UNL     1      51.126   7.814  17.723  0.00  0.00    +0.000 A 
ATOM     14  C   UNL     1      51.245   7.146  16.489  0.00  0.00    +0.000 A 
ATOM     15  C   UNL     1      50.238   7.230  15.528  0.00  0.00    +0.000 A 
ATOM     16  C   UNL     1      49.093   7.976  15.791  0.00  0.00    +0.000 A 
ATOM     17  C   UNL     1      48.961   8.643  17.010  0.00  0.00    +0.000 A 
ATOM     18  C   UNL     1      49.970   8.558  17.974  0.00  0.00    +0.000 A 
ENDBRANCH  12  13
ENDBRANCH  10  12
ENDBRANCH   7  10
ENDBRANCH   1   7
BRANCH   4  19
ATOM     19  C   UNL     1      47.251   3.382  16.820  0.00  0.00    +0.000 C 
BRANCH  19  20
ATOM     20  N   UNL     1      46.789   4.368  15.879  0.00  0.00    +0.000 N 
ATOM     21  C   UNL     1      46.842   4.129  14.529  0.00  0.00    +0.000 C 
ATOM     22  O   UNL     1      47.224   3.052  14.080  0.00  0.00    +0.000 OA
ATOM     23  H   UNL     1      46.690   5.322  16.216  0.00  0.00    +0.000 HD
BRANCH  21  24
ATOM     24  C   UNL     1      46.366   5.202  13.648  0.00  0.00    +0.000 A 
ATOM     25  C   UNL     1      47.182   6.299  13.410  0.00  0.00    +0.000 A 
ATOM     26  S   UNL     1      46.507   7.437  12.335  0.00  0.00    +0.000 S 
ATOM     27  C   UNL     1      45.070   6.533  12.199  0.00  0.00    +0.000 A 
ATOM     28  N   UNL     1      44.036   6.976  11.432  0.00  0.00    +0.000 NA
ATOM     29  C   UNL     1      43.000   6.204  11.439  0.00  0.00    +0.000 A 
ATOM     30  N   UNL     1      42.908   5.029  12.137  0.00  0.00    +0.000 N 
ATOM     31  C   UNL     1      43.933   4.532  12.905  0.00  0.00    +0.000 A 
ATOM     32  O   UNL     1      43.828   3.459  13.489  0.00  0.00    +0.000 OA
ATOM     33  C   UNL     1      45.119   5.366  12.941  0.00  0.00    +0.000 A 
ATOM     34  H   UNL     1      42.069   4.469  12.092  0.00  0.00    +0.000 HD
ENDBRANCH  21  24
ENDBRANCH  19  20
ENDBRANCH   4  19
TORSDOF 8
ENDMDL
