MODEL 1
REMARK VINA RESULT:    -7.779      0.000      0.000
REMARK INTER + INTRA:         -12.086
REMARK INTER:                 -10.962
REMARK INTRA:                  -1.124
REMARK UNBOUND:                -1.124
REMARK  Name = 
REMARK  7 active torsions:
REMARK  status: ('A' for Active; 'I' for Inactive)
REMARK    1  A    between atoms: C_2  and  C_20
REMARK    2  A    between atoms: N_3  and  C_4
REMARK    3  A    between atoms: C_4  and  C_5
REMARK    4  A    between atoms: C_8  and  C_9
REMARK    5  A    between atoms: C_9  and  N_10
REMARK    6  A    between atoms: N_10  and  C_11
REMARK    7  A    between atoms: C_11  and  C_12
REMARK                            x       y       z     vdW  Elec       q    Type
REMARK                         _______ _______ _______ _____ _____    ______ ____
ROOT
ATOM      1  C   UNL     1      46.672   6.430  12.367  0.00  0.00    +0.000 A 
ATOM      2  C   UNL     1      46.013   5.548  13.234  0.00  0.00    +0.000 A 
ATOM      3  C   UNL     1      45.008   4.689  12.761  0.00  0.00    +0.000 A 
ATOM      4  C   UNL     1      44.634   4.685  11.408  0.00  0.00    +0.000 A 
ATOM      5  C   UNL     1      45.307   5.556  10.541  0.00  0.00    +0.000 A 
ATOM      6  C   UNL     1      46.317   6.409  11.011  0.00  0.00    +0.000 A 
ENDROOT
BRANCH   1   7
ATOM      7  C   UNL     1      47.759   7.350  12.873  0.00  0.00    +0.000 C 
BRANCH   7  10
ATOM      8  O   UNL     1      48.330   8.425  15.470  0.00  0.00    +0.000 OA
ATOM      9  C   UNL     1      48.741   7.308  15.155  0.00  0.00    +0.000 C 
ATOM     10  N   UNL     1      48.513   6.725  13.930  0.00  0.00    +0.000 N 
ATOM     11  H   UNL     1      48.648   5.725  13.855  0.00  0.00    +0.000 HD
BRANCH   9  12
ATOM     12  C   UNL     1      49.447   6.422  16.081  0.00  0.00    +0.000 A 
ATOM     13  C   UNL     1      50.731   6.669  16.537  0.00  0.00    +0.000 A 
ATOM     14  S   UNL     1      51.159   5.655  17.850  0.00  0.00    +0.000 S 
ATOM     15  C   UNL     1      49.681   4.815  17.762  0.00  0.00    +0.000 A 
ATOM     16  N   UNL     1      49.359   3.865  18.665  0.00  0.00    +0.000 NA
ATOM     17  C   UNL     1      48.175   3.261  18.429  0.00  0.00    +0.000 A 
ATOM     18  C   UNL     1      47.360   3.490  17.335  0.00  0.00    +0.000 A 
ATOM     19  C   UNL     1      47.736   4.472  16.428  0.00  0.00    +0.000 A 
ATOM     20  C   UNL     1      48.907   5.222  16.682  0.00  0.00    +0.000 A 
ENDBRANCH   9  12
ENDBRANCH   7  10
ENDBRANCH   1   7
BRANCH   4  21
ATOM     21  C   UNL     1      43.565   3.748  10.863  0.00  0.00    +0.000 C 
BRANCH  21  22
ATOM     22  N   UNL     1      43.881   3.305   9.504  0.00  0.00    +0.000 NA
ATOM     23  H   UNL     1      44.407   4.046   9.039  0.00  0.00    +0.000 HD
BRANCH  22  24
ATOM     24  C   UNL     1      44.701   2.085   9.461  0.00  0.00    +0.000 C 
BRANCH  24  25
ATOM     25  C   UNL     1      45.736   2.138   8.342  0.00  0.00    +0.000 A 
ATOM     26  C   UNL     1      45.940   3.314   7.615  0.00  0.00    +0.000 A 
ATOM     27  C   UNL     1      46.909   3.340   6.615  0.00  0.00    +0.000 A 
ATOM     28  C   UNL     1      47.636   2.188   6.347  0.00  0.00    +0.000 A 
ATOM     29  C   UNL     1      47.362   1.056   7.096  0.00  0.00    +0.000 A 
ATOM     30  N   UNL     1      46.441   1.007   8.087  0.00  0.00    +0.000 NA
ENDBRANCH  24  25
ENDBRANCH  22  24
ENDBRANCH  21  22
ENDBRANCH   4  21
TORSDOF 7
ENDMDL
MODEL 2
REMARK VINA RESULT:    -7.666      2.009      2.311
REMARK INTER + INTRA:         -11.928
REMARK INTER:                 -11.075
REMARK INTRA:                  -0.853
REMARK UNBOUND:                -1.124
REMARK  Name = 
REMARK  7 active torsions:
REMARK  status: ('A' for Active; 'I' for Inactive)
REMARK    1  A    between atoms: C_2  and  C_20
REMARK    2  A    between atoms: N_3  and  C_4
REMARK    3  A    between atoms: C_4  and  C_5
REMARK    4  A    between atoms: C_8  and  C_9
REMARK    5  A    between atoms: C_9  and  N_10
REMARK    6  A    between atoms: N_10  and  C_11
REMARK    7  A    between atoms: C_11  and  C_12
REMARK                            x       y       z     vdW  Elec       q    Type
REMARK                         _______ _______ _______ _____ _____    ______ ____
ROOT
ATOM      1  C   UNL     1      46.968   6.135  12.990  0.00  0.00    +0.000 A 
ATOM      2  C   UNL     1      46.071   5.194  13.513  0.00  0.00    +0.000 A 
ATOM      3  C   UNL     1      44.953   4.776  12.774  0.00  0.00    +0.000 A 
ATOM      4  C   UNL     1      44.699   5.285  11.490  0.00  0.00    +0.000 A 
ATOM      5  C   UNL     1      45.608   6.212  10.963  0.00  0.00    +0.000 A 
ATOM      6  C   UNL     1      46.730   6.625  11.698  0.00  0.00    +0.000 A 
ENDROOT
BRANCH   1   7
ATOM      7  C   UNL     1      48.177   6.580  13.781  0.00  0.00    +0.000 C 
BRANCH   7  10
ATOM      8  O   UNL     1      50.260   6.555  15.752  0.00  0.00    +0.000 OA
ATOM      9  C   UNL     1      49.122   6.191  16.046  0.00  0.00    +0.000 C 
ATOM     10  N   UNL     1      48.070   6.171  15.159  0.00  0.00    +0.000 N 
ATOM     11  H   UNL     1      47.135   6.121  15.541  0.00  0.00    +0.000 HD
BRANCH   9  12
ATOM     12  C   UNL     1      48.723   5.823  17.404  0.00  0.00    +0.000 A 
ATOM     13  C   UNL     1      48.836   4.537  17.905  0.00  0.00    +0.000 A 
ATOM     14  S   UNL     1      48.612   4.480  19.604  0.00  0.00    +0.000 S 
ATOM     15  C   UNL     1      48.268   6.146  19.675  0.00  0.00    +0.000 A 
ATOM     16  N   UNL     1      48.069   6.772  20.854  0.00  0.00    +0.000 NA
ATOM     17  C   UNL     1      47.760   8.081  20.737  0.00  0.00    +0.000 A 
ATOM     18  C   UNL     1      47.568   8.757  19.545  0.00  0.00    +0.000 A 
ATOM     19  C   UNL     1      47.777   8.070  18.357  0.00  0.00    +0.000 A 
ATOM     20  C   UNL     1      48.216   6.728  18.414  0.00  0.00    +0.000 A 
ENDBRANCH   9  12
ENDBRANCH   7  10
ENDBRANCH   1   7
BRANCH   4  21
ATOM     21  C   UNL     1      43.509   4.832  10.657  0.00  0.00    +0.000 C 
BRANCH  21  22
ATOM     22  N   UNL     1      43.933   4.274   9.372  0.00  0.00    +0.000 NA
ATOM     23  H   UNL     1      44.716   4.830   9.024  0.00  0.00    +0.000 HD
BRANCH  22  24
ATOM     24  C   UNL     1      44.385   2.877   9.460  0.00  0.00    +0.000 C 
BRANCH  24  25
ATOM     25  C   UNL     1      45.475   2.570   8.439  0.00  0.00    +0.000 A 
ATOM     26  C   UNL     1      45.898   3.545   7.531  0.00  0.00    +0.000 A 
ATOM     27  C   UNL     1      46.912   3.244   6.626  0.00  0.00    +0.000 A 
ATOM     28  C   UNL     1      47.466   1.971   6.629  0.00  0.00    +0.000 A 
ATOM     29  C   UNL     1      46.980   1.052   7.545  0.00  0.00    +0.000 A 
ATOM     30  N   UNL     1      46.010   1.323   8.450  0.00  0.00    +0.000 NA
ENDBRANCH  24  25
ENDBRANCH  22  24
ENDBRANCH  21  22
ENDBRANCH   4  21
TORSDOF 7
ENDMDL
MODEL 3
REMARK VINA RESULT:    -7.408      3.191      5.339
REMARK INTER + INTRA:         -11.564
REMARK INTER:                 -10.442
REMARK INTRA:                  -1.121
REMARK UNBOUND:                -1.124
REMARK  Name = 
REMARK  7 active torsions:
REMARK  status: ('A' for Active; 'I' for Inactive)
REMARK    1  A    between atoms: C_2  and  C_20
REMARK    2  A    between atoms: N_3  and  C_4
REMARK    3  A    between atoms: C_4  and  C_5
REMARK    4  A    between atoms: C_8  and  C_9
REMARK    5  A    between atoms: C_9  and  N_10
REMARK    6  A    between atoms: N_10  and  C_11
REMARK    7  A    between atoms: C_11  and  C_12
REMARK                            x       y       z     vdW  Elec       q    Type
REMARK                         _______ _______ _______ _____ _____    ______ ____
ROOT
ATOM      1  C   UNL     1      46.608   5.380  13.490  0.00  0.00    +0.000 A 
ATOM      2  C   UNL     1      46.781   3.993  13.391  0.00  0.00    +0.000 A 
ATOM      3  C   UNL     1      45.779   3.179  12.841  0.00  0.00    +0.000 A 
ATOM      4  C   UNL     1      44.573   3.728  12.373  0.00  0.00    +0.000 A 
ATOM      5  C   UNL     1      44.411   5.117  12.458  0.00  0.00    +0.000 A 
ATOM      6  C   UNL     1      45.416   5.932  13.000  0.00  0.00    +0.000 A 
ENDROOT
BRANCH   1   7
ATOM      7  C   UNL     1      47.690   6.258  14.075  0.00  0.00    +0.000 C 
BRANCH   7  10
ATOM      8  O   UNL     1      48.762   7.740  11.865  0.00  0.00    +0.000 OA
ATOM      9  C   UNL     1      48.009   8.284  12.673  0.00  0.00    +0.000 C 
ATOM     10  N   UNL     1      47.457   7.645  13.759  0.00  0.00    +0.000 N 
ATOM     11  H   UNL     1      46.657   8.078  14.201  0.00  0.00    +0.000 HD
BRANCH   9  12
ATOM     12  C   UNL     1      47.533   9.659  12.525  0.00  0.00    +0.000 A 
ATOM     13  C   UNL     1      48.318  10.767  12.792  0.00  0.00    +0.000 A 
ATOM     14  S   UNL     1      47.614  12.219  12.213  0.00  0.00    +0.000 S 
ATOM     15  C   UNL     1      46.217  11.401  11.687  0.00  0.00    +0.000 A 
ATOM     16  N   UNL     1      45.238  12.044  11.016  0.00  0.00    +0.000 NA
ATOM     17  C   UNL     1      44.177  11.266  10.711  0.00  0.00    +0.000 A 
ATOM     18  C   UNL     1      44.011   9.948  11.095  0.00  0.00    +0.000 A 
ATOM     19  C   UNL     1      45.041   9.330  11.791  0.00  0.00    +0.000 A 
ATOM     20  C   UNL     1      46.228  10.057  12.039  0.00  0.00    +0.000 A 
ENDBRANCH   9  12
ENDBRANCH   7  10
ENDBRANCH   1   7
BRANCH   4  21
ATOM     21  C   UNL     1      43.479   2.872  11.749  0.00  0.00    +0.000 C 
BRANCH  21  22
ATOM     22  N   UNL     1      43.883   2.352  10.443  0.00  0.00    +0.000 NA
ATOM     23  H   UNL     1      43.112   1.796  10.067  0.00  0.00    +0.000 HD
BRANCH  22  24
ATOM     24  C   UNL     1      44.190   3.404   9.462  0.00  0.00    +0.000 C 
BRANCH  24  25
ATOM     25  C   UNL     1      45.311   2.985   8.516  0.00  0.00    +0.000 A 
ATOM     26  C   UNL     1      45.831   1.689   8.556  0.00  0.00    +0.000 A 
ATOM     27  C   UNL     1      46.837   1.327   7.663  0.00  0.00    +0.000 A 
ATOM     28  C   UNL     1      47.318   2.272   6.768  0.00  0.00    +0.000 A 
ATOM     29  C   UNL     1      46.767   3.542   6.803  0.00  0.00    +0.000 A 
ATOM     30  N   UNL     1      45.775   3.916   7.644  0.00  0.00    +0.000 NA
ENDBRANCH  24  25
ENDBRANCH  22  24
ENDBRANCH  21  22
ENDBRANCH   4  21
TORSDOF 7
ENDMDL
MODEL 4
REMARK VINA RESULT:    -7.318      1.931      2.285
REMARK INTER + INTRA:         -11.437
REMARK INTER:                 -10.652
REMARK INTRA:                  -0.785
REMARK UNBOUND:                -1.124
REMARK  Name = 
REMARK  7 active torsions:
REMARK  status: ('A' for Active; 'I' for Inactive)
REMARK    1  A    between atoms: C_2  and  C_20
REMARK    2  A    between atoms: N_3  and  C_4
REMARK    3  A    between atoms: C_4  and  C_5
REMARK    4  A    between atoms: C_8  and  C_9
REMARK    5  A    between atoms: C_9  and  N_10
REMARK    6  A    between atoms: N_10  and  C_11
REMARK    7  A    between atoms: C_11  and  C_12
REMARK                            x       y       z     vdW  Elec       q    Type
REMARK                         _______ _______ _______ _____ _____    ______ ____
ROOT
ATOM      1  C   UNL     1      47.368   6.242  13.028  0.00  0.00    +0.000 A 
ATOM      2  C   UNL     1      46.894   6.695  11.790  0.00  0.00    +0.000 A 
ATOM      3  C   UNL     1      45.770   6.107  11.189  0.00  0.00    +0.000 A 
ATOM      4  C   UNL     1      45.086   5.048  11.808  0.00  0.00    +0.000 A 
ATOM      5  C   UNL     1      45.552   4.610  13.055  0.00  0.00    +0.000 A 
ATOM      6  C   UNL     1      46.671   5.202  13.660  0.00  0.00    +0.000 A 
ENDROOT
BRANCH   1   7
ATOM      7  C   UNL     1      48.573   6.880  13.680  0.00  0.00    +0.000 C 
BRANCH   7  10
ATOM      8  O   UNL     1      50.216   6.183  15.925  0.00  0.00    +0.000 OA
ATOM      9  C   UNL     1      49.162   6.796  16.092  0.00  0.00    +0.000 C 
ATOM     10  N   UNL     1      48.318   7.164  15.069  0.00  0.00    +0.000 N 
ATOM     11  H   UNL     1      47.633   7.882  15.263  0.00  0.00    +0.000 HD
BRANCH   9  12
ATOM     12  C   UNL     1      48.720   7.292  17.395  0.00  0.00    +0.000 A 
ATOM     13  C   UNL     1      48.225   8.570  17.593  0.00  0.00    +0.000 A 
ATOM     14  S   UNL     1      47.484   8.750  19.127  0.00  0.00    +0.000 S 
ATOM     15  C   UNL     1      47.898   7.162  19.580  0.00  0.00    +0.000 A 
ATOM     16  N   UNL     1      47.485   6.636  20.753  0.00  0.00    +0.000 NA
ATOM     17  C   UNL     1      47.937   5.385  20.984  0.00  0.00    +0.000 A 
ATOM     18  C   UNL     1      48.811   4.684  20.173  0.00  0.00    +0.000 A 
ATOM     19  C   UNL     1      49.214   5.267  18.980  0.00  0.00    +0.000 A 
ATOM     20  C   UNL     1      48.684   6.529  18.625  0.00  0.00    +0.000 A 
ENDBRANCH   9  12
ENDBRANCH   7  10
ENDBRANCH   1   7
BRANCH   4  21
ATOM     21  C   UNL     1      43.850   4.408  11.192  0.00  0.00    +0.000 C 
BRANCH  21  22
ATOM     22  N   UNL     1      44.072   4.053   9.790  0.00  0.00    +0.000 NA
ATOM     23  H   UNL     1      44.858   4.603   9.440  0.00  0.00    +0.000 HD
BRANCH  22  24
ATOM     24  C   UNL     1      44.401   2.633   9.589  0.00  0.00    +0.000 C 
BRANCH  24  25
ATOM     25  C   UNL     1      45.474   2.446   8.523  0.00  0.00    +0.000 A 
ATOM     26  C   UNL     1      45.852   3.508   7.696  0.00  0.00    +0.000 A 
ATOM     27  C   UNL     1      46.853   3.315   6.748  0.00  0.00    +0.000 A 
ATOM     28  C   UNL     1      47.437   2.062   6.627  0.00  0.00    +0.000 A 
ATOM     29  C   UNL     1      46.996   1.054   7.467  0.00  0.00    +0.000 A 
ATOM     30  N   UNL     1      46.040   1.218   8.412  0.00  0.00    +0.000 NA
ENDBRANCH  24  25
ENDBRANCH  22  24
ENDBRANCH  21  22
ENDBRANCH   4  21
TORSDOF 7
ENDMDL
MODEL 5
REMARK VINA RESULT:    -7.188      3.864      5.752
REMARK INTER + INTRA:         -11.254
REMARK INTER:                 -11.071
REMARK INTRA:                  -0.182
REMARK UNBOUND:                -1.124
REMARK  Name = 
REMARK  7 active torsions:
REMARK  status: ('A' for Active; 'I' for Inactive)
REMARK    1  A    between atoms: C_2  and  C_20
REMARK    2  A    between atoms: N_3  and  C_4
REMARK    3  A    between atoms: C_4  and  C_5
REMARK    4  A    between atoms: C_8  and  C_9
REMARK    5  A    between atoms: C_9  and  N_10
REMARK    6  A    between atoms: N_10  and  C_11
REMARK    7  A    between atoms: C_11  and  C_12
REMARK                            x       y       z     vdW  Elec       q    Type
REMARK                         _______ _______ _______ _____ _____    ______ ____
ROOT
ATOM      1  C   UNL     1      44.568   3.747   9.374  0.00  0.00    +0.000 A 
ATOM      2  C   UNL     1      44.493   2.357   9.540  0.00  0.00    +0.000 A 
ATOM      3  C   UNL     1      45.320   1.498   8.799  0.00  0.00    +0.000 A 
ATOM      4  C   UNL     1      46.247   2.001   7.872  0.00  0.00    +0.000 A 
ATOM      5  C   UNL     1      46.331   3.392   7.722  0.00  0.00    +0.000 A 
ATOM      6  C   UNL     1      45.511   4.252   8.468  0.00  0.00    +0.000 A 
ENDROOT
BRANCH   1   7
ATOM      7  C   UNL     1      43.684   4.673  10.177  0.00  0.00    +0.000 C 
BRANCH   7  10
ATOM      8  O   UNL     1      44.075   5.878  12.751  0.00  0.00    +0.000 OA
ATOM      9  C   UNL     1      44.512   6.422  11.736  0.00  0.00    +0.000 C 
ATOM     10  N   UNL     1      44.363   5.910  10.468  0.00  0.00    +0.000 N 
ATOM     11  H   UNL     1      44.971   6.270   9.744  0.00  0.00    +0.000 HD
BRANCH   9  12
ATOM     12  C   UNL     1      45.326   7.636  11.765  0.00  0.00    +0.000 A 
ATOM     13  C   UNL     1      44.808   8.902  11.547  0.00  0.00    +0.000 A 
ATOM     14  S   UNL     1      45.915  10.139  11.972  0.00  0.00    +0.000 S 
ATOM     15  C   UNL     1      47.125   9.006  12.359  0.00  0.00    +0.000 A 
ATOM     16  N   UNL     1      48.310   9.393  12.877  0.00  0.00    +0.000 NA
ATOM     17  C   UNL     1      49.178   8.380  13.083  0.00  0.00    +0.000 A 
ATOM     18  C   UNL     1      48.965   7.057  12.740  0.00  0.00    +0.000 A 
ATOM     19  C   UNL     1      47.733   6.706  12.203  0.00  0.00    +0.000 A 
ATOM     20  C   UNL     1      46.739   7.702  12.070  0.00  0.00    +0.000 A 
ENDBRANCH   9  12
ENDBRANCH   7  10
ENDBRANCH   1   7
BRANCH   4  21
ATOM     21  C   UNL     1      47.173   1.095   7.073  0.00  0.00    +0.000 C 
BRANCH  21  22
ATOM     22  N   UNL     1      47.928   1.846   6.070  0.00  0.00    +0.000 NA
ATOM     23  H   UNL     1      48.680   1.250   5.721  0.00  0.00    +0.000 HD
BRANCH  22  24
ATOM     24  C   UNL     1      47.118   2.260   4.915  0.00  0.00    +0.000 C 
BRANCH  24  25
ATOM     25  C   UNL     1      46.752   1.076   4.027  0.00  0.00    +0.000 A 
ATOM     26  C   UNL     1      45.728   1.181   3.081  0.00  0.00    +0.000 A 
ATOM     27  C   UNL     1      45.433   0.091   2.267  0.00  0.00    +0.000 A 
ATOM     28  C   UNL     1      46.148  -1.088   2.430  0.00  0.00    +0.000 A 
ATOM     29  C   UNL     1      47.133  -1.123   3.402  0.00  0.00    +0.000 A 
ATOM     30  N   UNL     1      47.456  -0.073   4.194  0.00  0.00    +0.000 NA
ENDBRANCH  24  25
ENDBRANCH  22  24
ENDBRANCH  21  22
ENDBRANCH   4  21
TORSDOF 7
ENDMDL
MODEL 6
REMARK VINA RESULT:    -6.782      3.316      5.123
REMARK INTER + INTRA:         -10.681
REMARK INTER:                  -9.808
REMARK INTRA:                  -0.873
REMARK UNBOUND:                -1.124
REMARK  Name = 
REMARK  7 active torsions:
REMARK  status: ('A' for Active; 'I' for Inactive)
REMARK    1  A    between atoms: C_2  and  C_20
REMARK    2  A    between atoms: N_3  and  C_4
REMARK    3  A    between atoms: C_4  and  C_5
REMARK    4  A    between atoms: C_8  and  C_9
REMARK    5  A    between atoms: C_9  and  N_10
REMARK    6  A    between atoms: N_10  and  C_11
REMARK    7  A    between atoms: C_11  and  C_12
REMARK                            x       y       z     vdW  Elec       q    Type
REMARK                         _______ _______ _______ _____ _____    ______ ____
ROOT
ATOM      1  C   UNL     1      46.936   5.726  13.479  0.00  0.00    +0.000 A 
ATOM      2  C   UNL     1      45.942   6.576  12.975  0.00  0.00    +0.000 A 
ATOM      3  C   UNL     1      44.769   6.054  12.406  0.00  0.00    +0.000 A 
ATOM      4  C   UNL     1      44.555   4.668  12.325  0.00  0.00    +0.000 A 
ATOM      5  C   UNL     1      45.543   3.823  12.847  0.00  0.00    +0.000 A 
ATOM      6  C   UNL     1      46.712   4.344  13.423  0.00  0.00    +0.000 A 
ENDROOT
BRANCH   1   7
ATOM      7  C   UNL     1      48.195   6.287  14.099  0.00  0.00    +0.000 C 
BRANCH   7  10
ATOM      8  O   UNL     1      50.673   7.675  14.498  0.00  0.00    +0.000 OA
ATOM      9  C   UNL     1      49.951   7.954  13.542  0.00  0.00    +0.000 C 
ATOM     10  N   UNL     1      48.748   7.338  13.283  0.00  0.00    +0.000 N 
ATOM     11  H   UNL     1      48.363   7.434  12.353  0.00  0.00    +0.000 HD
BRANCH   9  12
ATOM     12  C   UNL     1      50.328   8.916  12.506  0.00  0.00    +0.000 A 
ATOM     13  C   UNL     1      50.050  10.269  12.590  0.00  0.00    +0.000 A 
ATOM     14  S   UNL     1      50.896  11.181  11.411  0.00  0.00    +0.000 S 
ATOM     15  C   UNL     1      51.564   9.777  10.718  0.00  0.00    +0.000 A 
ATOM     16  N   UNL     1      52.460   9.849   9.712  0.00  0.00    +0.000 NA
ATOM     17  C   UNL     1      52.858   8.647   9.241  0.00  0.00    +0.000 A 
ATOM     18  C   UNL     1      52.368   7.421   9.654  0.00  0.00    +0.000 A 
ATOM     19  C   UNL     1      51.442   7.396  10.688  0.00  0.00    +0.000 A 
ATOM     20  C   UNL     1      51.072   8.615  11.301  0.00  0.00    +0.000 A 
ENDBRANCH   9  12
ENDBRANCH   7  10
ENDBRANCH   1   7
BRANCH   4  21
ATOM     21  C   UNL     1      43.282   4.076  11.736  0.00  0.00    +0.000 C 
BRANCH  21  22
ATOM     22  N   UNL     1      43.557   3.324  10.511  0.00  0.00    +0.000 NA
ATOM     23  H   UNL     1      42.681   2.909  10.187  0.00  0.00    +0.000 HD
BRANCH  22  24
ATOM     24  C   UNL     1      44.083   4.156   9.419  0.00  0.00    +0.000 C 
BRANCH  24  25
ATOM     25  C   UNL     1      45.167   3.432   8.628  0.00  0.00    +0.000 A 
ATOM     26  C   UNL     1      45.387   2.063   8.807  0.00  0.00    +0.000 A 
ATOM     27  C   UNL     1      46.368   1.423   8.053  0.00  0.00    +0.000 A 
ATOM     28  C   UNL     1      47.123   2.166   7.156  0.00  0.00    +0.000 A 
ATOM     29  C   UNL     1      46.861   3.521   7.049  0.00  0.00    +0.000 A 
ATOM     30  N   UNL     1      45.901   4.166   7.753  0.00  0.00    +0.000 NA
ENDBRANCH  24  25
ENDBRANCH  22  24
ENDBRANCH  21  22
ENDBRANCH   4  21
TORSDOF 7
ENDMDL
MODEL 7
REMARK VINA RESULT:    -6.651      1.232      1.826
REMARK INTER + INTRA:         -10.497
REMARK INTER:                  -9.429
REMARK INTRA:                  -1.068
REMARK UNBOUND:                -1.124
REMARK  Name = 
REMARK  7 active torsions:
REMARK  status: ('A' for Active; 'I' for Inactive)
REMARK    1  A    between atoms: C_2  and  C_20
REMARK    2  A    between atoms: N_3  and  C_4
REMARK    3  A    between atoms: C_4  and  C_5
REMARK    4  A    between atoms: C_8  and  C_9
REMARK    5  A    between atoms: C_9  and  N_10
REMARK    6  A    between atoms: N_10  and  C_11
REMARK    7  A    between atoms: C_11  and  C_12
REMARK                            x       y       z     vdW  Elec       q    Type
REMARK                         _______ _______ _______ _____ _____    ______ ____
ROOT
ATOM      1  C   UNL     1      47.724   7.130  12.939  0.00  0.00    +0.000 A 
ATOM      2  C   UNL     1      46.814   7.957  12.266  0.00  0.00    +0.000 A 
ATOM      3  C   UNL     1      45.560   7.472  11.865  0.00  0.00    +0.000 A 
ATOM      4  C   UNL     1      45.176   6.146  12.126  0.00  0.00    +0.000 A 
ATOM      5  C   UNL     1      46.081   5.328  12.814  0.00  0.00    +0.000 A 
ATOM      6  C   UNL     1      47.332   5.814  13.223  0.00  0.00    +0.000 A 
ENDROOT
BRANCH   1   7
ATOM      7  C   UNL     1      49.072   7.654  13.379  0.00  0.00    +0.000 C 
BRANCH   7  10
ATOM      8  O   UNL     1      48.423   8.536  16.029  0.00  0.00    +0.000 OA
ATOM      9  C   UNL     1      49.121   7.537  15.860  0.00  0.00    +0.000 C 
ATOM     10  N   UNL     1      49.478   7.051  14.623  0.00  0.00    +0.000 N 
ATOM     11  H   UNL     1      49.814   6.098  14.573  0.00  0.00    +0.000 HD
BRANCH   9  12
ATOM     12  C   UNL     1      49.581   6.684  16.956  0.00  0.00    +0.000 A 
ATOM     13  C   UNL     1      50.577   7.058  17.841  0.00  0.00    +0.000 A 
ATOM     14  S   UNL     1      50.664   6.017  19.200  0.00  0.00    +0.000 S 
ATOM     15  C   UNL     1      49.444   5.006  18.578  0.00  0.00    +0.000 A 
ATOM     16  N   UNL     1      48.968   3.962  19.289  0.00  0.00    +0.000 NA
ATOM     17  C   UNL     1      48.038   3.231  18.637  0.00  0.00    +0.000 A 
ATOM     18  C   UNL     1      47.630   3.431  17.331  0.00  0.00    +0.000 A 
ATOM     19  C   UNL     1      48.152   4.514  16.636  0.00  0.00    +0.000 A 
ATOM     20  C   UNL     1      49.043   5.386  17.303  0.00  0.00    +0.000 A 
ENDBRANCH   9  12
ENDBRANCH   7  10
ENDBRANCH   1   7
BRANCH   4  21
ATOM     21  C   UNL     1      43.813   5.601  11.724  0.00  0.00    +0.000 C 
BRANCH  21  22
ATOM     22  N   UNL     1      43.936   4.389  10.914  0.00  0.00    +0.000 NA
ATOM     23  H   UNL     1      43.123   3.798  11.094  0.00  0.00    +0.000 HD
BRANCH  22  24
ATOM     24  C   UNL     1      43.981   4.652   9.468  0.00  0.00    +0.000 C 
BRANCH  24  25
ATOM     25  C   UNL     1      44.983   3.747   8.759  0.00  0.00    +0.000 A 
ATOM     26  C   UNL     1      45.059   2.386   9.067  0.00  0.00    +0.000 A 
ATOM     27  C   UNL     1      45.967   1.579   8.386  0.00  0.00    +0.000 A 
ATOM     28  C   UNL     1      46.795   2.151   7.430  0.00  0.00    +0.000 A 
ATOM     29  C   UNL     1      46.675   3.510   7.194  0.00  0.00    +0.000 A 
ATOM     30  N   UNL     1      45.788   4.315   7.825  0.00  0.00    +0.000 NA
ENDBRANCH  24  25
ENDBRANCH  22  24
ENDBRANCH  21  22
ENDBRANCH   4  21
TORSDOF 7
ENDMDL
MODEL 8
REMARK VINA RESULT:    -6.465      1.967      2.548
REMARK INTER + INTRA:         -10.235
REMARK INTER:                  -9.426
REMARK INTRA:                  -0.809
REMARK UNBOUND:                -1.124
REMARK  Name = 
REMARK  7 active torsions:
REMARK  status: ('A' for Active; 'I' for Inactive)
REMARK    1  A    between atoms: C_2  and  C_20
REMARK    2  A    between atoms: N_3  and  C_4
REMARK    3  A    between atoms: C_4  and  C_5
REMARK    4  A    between atoms: C_8  and  C_9
REMARK    5  A    between atoms: C_9  and  N_10
REMARK    6  A    between atoms: N_10  and  C_11
REMARK    7  A    between atoms: C_11  and  C_12
REMARK                            x       y       z     vdW  Elec       q    Type
REMARK                         _______ _______ _______ _____ _____    ______ ____
ROOT
ATOM      1  C   UNL     1      45.861   7.314  12.691  0.00  0.00    +0.000 A 
ATOM      2  C   UNL     1      44.836   7.350  11.735  0.00  0.00    +0.000 A 
ATOM      3  C   UNL     1      44.185   6.174  11.333  0.00  0.00    +0.000 A 
ATOM      4  C   UNL     1      44.536   4.927  11.875  0.00  0.00    +0.000 A 
ATOM      5  C   UNL     1      45.548   4.897  12.844  0.00  0.00    +0.000 A 
ATOM      6  C   UNL     1      46.195   6.074  13.252  0.00  0.00    +0.000 A 
ENDROOT
BRANCH   1   7
ATOM      7  C   UNL     1      46.557   8.582  13.131  0.00  0.00    +0.000 C 
BRANCH   7  10
ATOM      8  O   UNL     1      47.919   9.110  15.599  0.00  0.00    +0.000 OA
ATOM      9  C   UNL     1      48.523   8.610  14.650  0.00  0.00    +0.000 C 
ATOM     10  N   UNL     1      47.943   8.329  13.434  0.00  0.00    +0.000 N 
ATOM     11  H   UNL     1      48.428   7.687  12.822  0.00  0.00    +0.000 HD
BRANCH   9  12
ATOM     12  C   UNL     1      49.914   8.166  14.729  0.00  0.00    +0.000 A 
ATOM     13  C   UNL     1      50.938   8.742  13.995  0.00  0.00    +0.000 A 
ATOM     14  S   UNL     1      52.486   8.247  14.539  0.00  0.00    +0.000 S 
ATOM     15  C   UNL     1      51.810   7.191  15.690  0.00  0.00    +0.000 A 
ATOM     16  N   UNL     1      52.586   6.514  16.562  0.00  0.00    +0.000 NA
ATOM     17  C   UNL     1      51.902   5.683  17.377  0.00  0.00    +0.000 A 
ATOM     18  C   UNL     1      50.541   5.441  17.319  0.00  0.00    +0.000 A 
ATOM     19  C   UNL     1      49.784   6.157  16.402  0.00  0.00    +0.000 A 
ATOM     20  C   UNL     1      50.425   7.127  15.599  0.00  0.00    +0.000 A 
ENDBRANCH   9  12
ENDBRANCH   7  10
ENDBRANCH   1   7
BRANCH   4  21
ATOM     21  C   UNL     1      43.831   3.638  11.476  0.00  0.00    +0.000 C 
BRANCH  21  22
ATOM     22  N   UNL     1      44.758   2.683  10.871  0.00  0.00    +0.000 NA
ATOM     23  H   UNL     1      44.787   1.847  11.458  0.00  0.00    +0.000 HD
BRANCH  22  24
ATOM     24  C   UNL     1      44.365   2.260   9.518  0.00  0.00    +0.000 C 
BRANCH  24  25
ATOM     25  C   UNL     1      45.516   2.395   8.526  0.00  0.00    +0.000 A 
ATOM     26  C   UNL     1      46.257   1.276   8.136  0.00  0.00    +0.000 A 
ATOM     27  C   UNL     1      47.286   1.426   7.210  0.00  0.00    +0.000 A 
ATOM     28  C   UNL     1      47.570   2.690   6.712  0.00  0.00    +0.000 A 
ATOM     29  C   UNL     1      46.805   3.753   7.162  0.00  0.00    +0.000 A 
ATOM     30  N   UNL     1      45.785   3.635   8.045  0.00  0.00    +0.000 NA
ENDBRANCH  24  25
ENDBRANCH  22  24
ENDBRANCH  21  22
ENDBRANCH   4  21
TORSDOF 7
ENDMDL
MODEL 9
REMARK VINA RESULT:    -6.325      2.722      8.597
REMARK INTER + INTRA:         -10.038
REMARK INTER:                  -8.770
REMARK INTRA:                  -1.268
REMARK UNBOUND:                -1.124
REMARK  Name = 
REMARK  7 active torsions:
REMARK  status: ('A' for Active; 'I' for Inactive)
REMARK    1  A    between atoms: C_2  and  C_20
REMARK    2  A    between atoms: N_3  and  C_4
REMARK    3  A    between atoms: C_4  and  C_5
REMARK    4  A    between atoms: C_8  and  C_9
REMARK    5  A    between atoms: C_9  and  N_10
REMARK    6  A    between atoms: N_10  and  C_11
REMARK    7  A    between atoms: C_11  and  C_12
REMARK                            x       y       z     vdW  Elec       q    Type
REMARK                         _______ _______ _______ _____ _____    ______ ____
ROOT
ATOM      1  C   UNL     1      47.973   8.205  14.510  0.00  0.00    +0.000 A 
ATOM      2  C   UNL     1      48.820   7.088  14.485  0.00  0.00    +0.000 A 
ATOM      3  C   UNL     1      49.776   6.886  15.492  0.00  0.00    +0.000 A 
ATOM      4  C   UNL     1      49.914   7.794  16.556  0.00  0.00    +0.000 A 
ATOM      5  C   UNL     1      49.054   8.899  16.587  0.00  0.00    +0.000 A 
ATOM      6  C   UNL     1      48.092   9.097  15.585  0.00  0.00    +0.000 A 
ENDROOT
BRANCH   1   7
ATOM      7  C   UNL     1      46.938   8.419  13.430  0.00  0.00    +0.000 C 
BRANCH   7  10
ATOM      8  O   UNL     1      44.824   8.035  11.530  0.00  0.00    +0.000 OA
ATOM      9  C   UNL     1      45.277   7.079  12.158  0.00  0.00    +0.000 C 
ATOM     10  N   UNL     1      46.287   7.180  13.087  0.00  0.00    +0.000 N 
ATOM     11  H   UNL     1      46.771   6.331  13.347  0.00  0.00    +0.000 HD
BRANCH   9  12
ATOM     12  C   UNL     1      44.860   5.696  11.925  0.00  0.00    +0.000 A 
ATOM     13  C   UNL     1      44.178   4.941  12.863  0.00  0.00    +0.000 A 
ATOM     14  S   UNL     1      43.536   3.499  12.196  0.00  0.00    +0.000 S 
ATOM     15  C   UNL     1      44.238   3.818  10.678  0.00  0.00    +0.000 A 
ATOM     16  N   UNL     1      44.008   3.018   9.616  0.00  0.00    +0.000 NA
ATOM     17  C   UNL     1      44.676   3.380   8.499  0.00  0.00    +0.000 A 
ATOM     18  C   UNL     1      45.590   4.415   8.410  0.00  0.00    +0.000 A 
ATOM     19  C   UNL     1      45.799   5.207   9.530  0.00  0.00    +0.000 A 
ATOM     20  C   UNL     1      45.043   4.951  10.697  0.00  0.00    +0.000 A 
ENDBRANCH   9  12
ENDBRANCH   7  10
ENDBRANCH   1   7
BRANCH   4  21
ATOM     21  C   UNL     1      50.926   7.587  17.675  0.00  0.00    +0.000 C 
BRANCH  21  22
ATOM     22  N   UNL     1      50.280   7.125  18.904  0.00  0.00    +0.000 NA
ATOM     23  H   UNL     1      49.272   7.258  18.807  0.00  0.00    +0.000 HD
BRANCH  22  24
ATOM     24  C   UNL     1      50.514   5.702  19.190  0.00  0.00    +0.000 C 
BRANCH  24  25
ATOM     25  C   UNL     1      49.509   4.808  18.471  0.00  0.00    +0.000 A 
ATOM     26  C   UNL     1      48.160   5.164  18.400  0.00  0.00    +0.000 A 
ATOM     27  C   UNL     1      47.270   4.341  17.716  0.00  0.00    +0.000 A 
ATOM     28  C   UNL     1      47.739   3.169  17.138  0.00  0.00    +0.000 A 
ATOM     29  C   UNL     1      49.086   2.874  17.268  0.00  0.00    +0.000 A 
ATOM     30  N   UNL     1      49.978   3.665  17.909  0.00  0.00    +0.000 NA
ENDBRANCH  24  25
ENDBRANCH  22  24
ENDBRANCH  21  22
ENDBRANCH   4  21
TORSDOF 7
ENDMDL
