MODEL 1
REMARK VINA RESULT:    -7.723      0.000      0.000
REMARK INTER + INTRA:         -10.235
REMARK INTER:                  -9.980
REMARK INTRA:                  -0.255
REMARK UNBOUND:                -0.255
REMARK  Name = 
REMARK  5 active torsions:
REMARK  status: ('A' for Active; 'I' for Inactive)
REMARK    1  A    between atoms: C_2  and  C_4
REMARK    2  A    between atoms: C_6  and  O_7
REMARK    3  A    between atoms: O_7  and  C_8
REMARK    4  A    between atoms: C_8  and  C_9
REMARK    5  A    between atoms: C_14  and  C_15
REMARK                            x       y       z     vdW  Elec       q    Type
REMARK                         _______ _______ _______ _____ _____    ______ ____
ROOT
ATOM      1  C   UNL     1      44.969   4.849  11.847  0.00  0.00    +0.000 A 
ATOM      2  C   UNL     1      45.483   3.789  12.593  0.00  0.00    +0.000 A 
ATOM      3  C   UNL     1      46.511   4.029  13.499  0.00  0.00    +0.000 A 
ATOM      4  F   UNL     1      47.000   3.010  14.221  0.00  0.00    +0.000 F 
ATOM      5  C   UNL     1      47.057   5.304  13.662  0.00  0.00    +0.000 A 
ATOM      6  C   UNL     1      46.572   6.385  12.909  0.00  0.00    +0.000 A 
ATOM      7  C   UNL     1      45.490   6.136  12.053  0.00  0.00    +0.000 A 
ENDROOT
BRANCH   6   8
ATOM      8  C   UNL     1      47.181   7.777  13.065  0.00  0.00    +0.000 C 
ATOM      9  C   UNL     1      47.978   8.293  11.849  0.00  0.00    +0.000 C 
ATOM     10  C   UNL     1      49.334   7.593  11.692  0.00  0.00    +0.000 C 
ATOM     11  N   UNL     1      50.154   7.660  12.896  0.00  0.00    +0.000 NA
ATOM     12  C   UNL     1      49.448   7.211  14.094  0.00  0.00    +0.000 C 
ATOM     13  C   UNL     1      48.097   7.902  14.298  0.00  0.00    +0.000 C 
ATOM     14  H   UNL     1      50.473   8.623  13.034  0.00  0.00    +0.000 HD
ENDBRANCH   6   8
BRANCH   1  15
ATOM     15  C   UNL     1      43.875   4.658  10.828  0.00  0.00    +0.000 C 
BRANCH  15  16
ATOM     16  O   UNL     1      44.004   3.358  10.255  0.00  0.00    +0.000 OA
BRANCH  16  19
ATOM     17  C   UNL     1      46.404   2.066   7.782  0.00  0.00    +0.000 A 
ATOM     18  C   UNL     1      45.452   2.016   8.792  0.00  0.00    +0.000 A 
ATOM     19  C   UNL     1      44.934   3.216   9.261  0.00  0.00    +0.000 A 
ATOM     20  C   UNL     1      45.376   4.410   8.697  0.00  0.00    +0.000 A 
ATOM     21  C   UNL     1      46.325   4.360   7.687  0.00  0.00    +0.000 A 
ATOM     22  N   UNL     1      46.860   3.217   7.213  0.00  0.00    +0.000 NA
BRANCH  17  24
ATOM     23  N   UNL     1      47.719   0.868   6.124  0.00  0.00    +0.000 N 
ATOM     24  C   UNL     1      46.995   0.784   7.281  0.00  0.00    +0.000 C 
ATOM     25  O   UNL     1      46.853  -0.279   7.871  0.00  0.00    +0.000 OA
ATOM     26  H   UNL     1      48.194   0.045   5.783  0.00  0.00    +0.000 HD
ATOM     27  H   UNL     1      47.896   1.773   5.705  0.00  0.00    +0.000 HD
ENDBRANCH  17  24
ENDBRANCH  16  19
ENDBRANCH  15  16
ENDBRANCH   1  15
TORSDOF 5
ENDMDL
MODEL 2
REMARK VINA RESULT:    -7.548      1.618      2.215
REMARK INTER + INTRA:         -10.009
REMARK INTER:                  -9.310
REMARK INTRA:                  -0.699
REMARK UNBOUND:                -0.255
REMARK  Name = 
REMARK  5 active torsions:
REMARK  status: ('A' for Active; 'I' for Inactive)
REMARK    1  A    between atoms: C_2  and  C_4
REMARK    2  A    between atoms: C_6  and  O_7
REMARK    3  A    between atoms: O_7  and  C_8
REMARK    4  A    between atoms: C_8  and  C_9
REMARK    5  A    between atoms: C_14  and  C_15
REMARK                            x       y       z     vdW  Elec       q    Type
REMARK                         _______ _______ _______ _____ _____    ______ ____
ROOT
ATOM      1  C   UNL     1      45.663   5.524  11.952  0.00  0.00    +0.000 A 
ATOM      2  C   UNL     1      45.706   4.728  13.096  0.00  0.00    +0.000 A 
ATOM      3  C   UNL     1      46.728   4.917  14.020  0.00  0.00    +0.000 A 
ATOM      4  F   UNL     1      46.764   4.156  15.123  0.00  0.00    +0.000 F 
ATOM      5  C   UNL     1      47.727   5.872  13.818  0.00  0.00    +0.000 A 
ATOM      6  C   UNL     1      47.720   6.673  12.665  0.00  0.00    +0.000 A 
ATOM      7  C   UNL     1      46.644   6.514  11.780  0.00  0.00    +0.000 A 
ENDROOT
BRANCH   6   8
ATOM      8  C   UNL     1      48.823   7.702  12.426  0.00  0.00    +0.000 C 
ATOM      9  C   UNL     1      49.535   8.218  13.695  0.00  0.00    +0.000 C 
ATOM     10  C   UNL     1      48.661   9.177  14.512  0.00  0.00    +0.000 C 
ATOM     11  N   UNL     1      48.155  10.299  13.726  0.00  0.00    +0.000 NA
ATOM     12  C   UNL     1      47.493   9.879  12.493  0.00  0.00    +0.000 C 
ATOM     13  C   UNL     1      48.342   8.935  11.638  0.00  0.00    +0.000 C 
ATOM     14  H   UNL     1      48.931  10.926  13.496  0.00  0.00    +0.000 HD
ENDBRANCH   6   8
BRANCH   1  15
ATOM     15  C   UNL     1      44.603   5.356  10.894  0.00  0.00    +0.000 C 
BRANCH  15  16
ATOM     16  O   UNL     1      45.219   5.437   9.610  0.00  0.00    +0.000 OA
BRANCH  16  19
ATOM     17  C   UNL     1      46.475   2.804   7.367  0.00  0.00    +0.000 A 
ATOM     18  C   UNL     1      46.301   4.089   7.864  0.00  0.00    +0.000 A 
ATOM     19  C   UNL     1      45.510   4.251   8.994  0.00  0.00    +0.000 A 
ATOM     20  C   UNL     1      44.938   3.127   9.585  0.00  0.00    +0.000 A 
ATOM     21  C   UNL     1      45.174   1.883   9.022  0.00  0.00    +0.000 A 
ATOM     22  N   UNL     1      45.926   1.686   7.919  0.00  0.00    +0.000 NA
BRANCH  17  24
ATOM     23  N   UNL     1      48.652   2.503   6.327  0.00  0.00    +0.000 N 
ATOM     24  C   UNL     1      47.302   2.612   6.134  0.00  0.00    +0.000 C 
ATOM     25  O   UNL     1      46.809   2.543   5.015  0.00  0.00    +0.000 OA
ATOM     26  H   UNL     1      49.246   2.303   5.534  0.00  0.00    +0.000 HD
ATOM     27  H   UNL     1      49.025   2.473   7.267  0.00  0.00    +0.000 HD
ENDBRANCH  17  24
ENDBRANCH  16  19
ENDBRANCH  15  16
ENDBRANCH   1  15
TORSDOF 5
ENDMDL
MODEL 3
REMARK VINA RESULT:    -7.252      4.589      8.473
REMARK INTER + INTRA:          -9.627
REMARK INTER:                  -9.278
REMARK INTRA:                  -0.349
REMARK UNBOUND:                -0.255
REMARK  Name = 
REMARK  5 active torsions:
REMARK  status: ('A' for Active; 'I' for Inactive)
REMARK    1  A    between atoms: C_2  and  C_4
REMARK    2  A    between atoms: C_6  and  O_7
REMARK    3  A    between atoms: O_7  and  C_8
REMARK    4  A    between atoms: C_8  and  C_9
REMARK    5  A    between atoms: C_14  and  C_15
REMARK                            x       y       z     vdW  Elec       q    Type
REMARK                         _______ _______ _______ _____ _____    ______ ____
ROOT
ATOM      1  C   UNL     1      46.926   4.695  13.518  0.00  0.00    +0.000 A 
ATOM      2  C   UNL     1      47.664   5.858  13.300  0.00  0.00    +0.000 A 
ATOM      3  C   UNL     1      47.244   6.758  12.326  0.00  0.00    +0.000 A 
ATOM      4  F   UNL     1      47.950   7.879  12.122  0.00  0.00    +0.000 F 
ATOM      5  C   UNL     1      46.113   6.512  11.544  0.00  0.00    +0.000 A 
ATOM      6  C   UNL     1      45.364   5.339  11.729  0.00  0.00    +0.000 A 
ATOM      7  C   UNL     1      45.764   4.479  12.762  0.00  0.00    +0.000 A 
ENDROOT
BRANCH   6   8
ATOM      8  C   UNL     1      44.141   5.053  10.861  0.00  0.00    +0.000 C 
ATOM      9  C   UNL     1      43.012   4.254  11.546  0.00  0.00    +0.000 C 
ATOM     10  C   UNL     1      43.366   2.774  11.733  0.00  0.00    +0.000 C 
ATOM     11  N   UNL     1      43.762   2.120  10.490  0.00  0.00    +0.000 NA
ATOM     12  C   UNL     1      44.811   2.843   9.774  0.00  0.00    +0.000 C 
ATOM     13  C   UNL     1      44.486   4.322   9.549  0.00  0.00    +0.000 C 
ATOM     14  H   UNL     1      42.943   2.026   9.883  0.00  0.00    +0.000 HD
ENDBRANCH   6   8
BRANCH   1  15
ATOM     15  C   UNL     1      47.337   3.662  14.537  0.00  0.00    +0.000 C 
BRANCH  15  16
ATOM     16  O   UNL     1      46.629   3.909  15.751  0.00  0.00    +0.000 OA
BRANCH  16  19
ATOM     17  C   UNL     1      48.062   4.984  18.966  0.00  0.00    +0.000 A 
ATOM     18  C   UNL     1      47.180   4.980  17.893  0.00  0.00    +0.000 A 
ATOM     19  C   UNL     1      47.385   4.048  16.883  0.00  0.00    +0.000 A 
ATOM     20  C   UNL     1      48.450   3.159  16.990  0.00  0.00    +0.000 A 
ATOM     21  C   UNL     1      49.274   3.234  18.103  0.00  0.00    +0.000 A 
ATOM     22  N   UNL     1      49.114   4.130  19.098  0.00  0.00    +0.000 NA
BRANCH  17  24
ATOM     23  N   UNL     1      47.064   5.622  21.089  0.00  0.00    +0.000 N 
ATOM     24  C   UNL     1      47.873   5.998  20.052  0.00  0.00    +0.000 C 
ATOM     25  O   UNL     1      48.415   7.095  20.028  0.00  0.00    +0.000 OA
ATOM     26  H   UNL     1      46.960   6.244  21.879  0.00  0.00    +0.000 HD
ATOM     27  H   UNL     1      46.701   4.678  21.128  0.00  0.00    +0.000 HD
ENDBRANCH  17  24
ENDBRANCH  16  19
ENDBRANCH  15  16
ENDBRANCH   1  15
TORSDOF 5
ENDMDL
MODEL 4
REMARK VINA RESULT:    -7.145      4.123      7.304
REMARK INTER + INTRA:          -9.488
REMARK INTER:                  -8.661
REMARK INTRA:                  -0.827
REMARK UNBOUND:                -0.255
REMARK  Name = 
REMARK  5 active torsions:
REMARK  status: ('A' for Active; 'I' for Inactive)
REMARK    1  A    between atoms: C_2  and  C_4
REMARK    2  A    between atoms: C_6  and  O_7
REMARK    3  A    between atoms: O_7  and  C_8
REMARK    4  A    between atoms: C_8  and  C_9
REMARK    5  A    between atoms: C_14  and  C_15
REMARK                            x       y       z     vdW  Elec       q    Type
REMARK                         _______ _______ _______ _____ _____    ______ ____
ROOT
ATOM      1  C   UNL     1      47.343   7.498  12.386  0.00  0.00    +0.000 A 
ATOM      2  C   UNL     1      46.769   8.768  12.435  0.00  0.00    +0.000 A 
ATOM      3  C   UNL     1      45.457   8.939  12.006  0.00  0.00    +0.000 A 
ATOM      4  F   UNL     1      44.902  10.158  12.062  0.00  0.00    +0.000 F 
ATOM      5  C   UNL     1      44.708   7.872  11.505  0.00  0.00    +0.000 A 
ATOM      6  C   UNL     1      45.269   6.587  11.425  0.00  0.00    +0.000 A 
ATOM      7  C   UNL     1      46.568   6.422  11.926  0.00  0.00    +0.000 A 
ENDROOT
BRANCH   6   8
ATOM      8  C   UNL     1      44.463   5.421  10.855  0.00  0.00    +0.000 C 
ATOM      9  C   UNL     1      43.011   5.307  11.364  0.00  0.00    +0.000 C 
ATOM     10  C   UNL     1      42.930   4.803  12.810  0.00  0.00    +0.000 C 
ATOM     11  N   UNL     1      43.637   3.543  13.016  0.00  0.00    +0.000 NA
ATOM     12  C   UNL     1      45.014   3.575  12.528  0.00  0.00    +0.000 C 
ATOM     13  C   UNL     1      45.135   4.053  11.079  0.00  0.00    +0.000 C 
ATOM     14  H   UNL     1      43.129   2.791  12.543  0.00  0.00    +0.000 HD
ENDBRANCH   6   8
BRANCH   1  15
ATOM     15  C   UNL     1      48.769   7.244  12.806  0.00  0.00    +0.000 C 
BRANCH  15  16
ATOM     16  O   UNL     1      48.976   7.822  14.094  0.00  0.00    +0.000 OA
BRANCH  16  19
ATOM     17  C   UNL     1      48.076   5.042  16.331  0.00  0.00    +0.000 A 
ATOM     18  C   UNL     1      48.294   5.700  15.128  0.00  0.00    +0.000 A 
ATOM     19  C   UNL     1      48.726   7.020  15.173  0.00  0.00    +0.000 A 
ATOM     20  C   UNL     1      48.930   7.621  16.412  0.00  0.00    +0.000 A 
ATOM     21  C   UNL     1      48.693   6.882  17.561  0.00  0.00    +0.000 A 
ATOM     22  N   UNL     1      48.263   5.604  17.558  0.00  0.00    +0.000 NA
BRANCH  17  24
ATOM     23  N   UNL     1      46.912   3.203  17.416  0.00  0.00    +0.000 N 
ATOM     24  C   UNL     1      47.585   3.628  16.303  0.00  0.00    +0.000 C 
ATOM     25  O   UNL     1      47.761   2.890  15.342  0.00  0.00    +0.000 OA
ATOM     26  H   UNL     1      46.502   2.280  17.418  0.00  0.00    +0.000 HD
ATOM     27  H   UNL     1      46.702   3.859  18.158  0.00  0.00    +0.000 HD
ENDBRANCH  17  24
ENDBRANCH  16  19
ENDBRANCH  15  16
ENDBRANCH   1  15
TORSDOF 5
ENDMDL
MODEL 5
REMARK VINA RESULT:    -7.125      4.687      8.616
REMARK INTER + INTRA:          -9.463
REMARK INTER:                  -8.903
REMARK INTRA:                  -0.560
REMARK UNBOUND:                -0.255
REMARK  Name = 
REMARK  5 active torsions:
REMARK  status: ('A' for Active; 'I' for Inactive)
REMARK    1  A    between atoms: C_2  and  C_4
REMARK    2  A    between atoms: C_6  and  O_7
REMARK    3  A    between atoms: O_7  and  C_8
REMARK    4  A    between atoms: C_8  and  C_9
REMARK    5  A    between atoms: C_14  and  C_15
REMARK                            x       y       z     vdW  Elec       q    Type
REMARK                         _______ _______ _______ _____ _____    ______ ____
ROOT
ATOM      1  C   UNL     1      46.936   5.385  13.785  0.00  0.00    +0.000 A 
ATOM      2  C   UNL     1      47.825   6.197  13.084  0.00  0.00    +0.000 A 
ATOM      3  C   UNL     1      47.446   6.716  11.850  0.00  0.00    +0.000 A 
ATOM      4  F   UNL     1      48.299   7.503  11.179  0.00  0.00    +0.000 F 
ATOM      5  C   UNL     1      46.203   6.422  11.285  0.00  0.00    +0.000 A 
ATOM      6  C   UNL     1      45.296   5.590  11.962  0.00  0.00    +0.000 A 
ATOM      7  C   UNL     1      45.669   5.134  13.234  0.00  0.00    +0.000 A 
ENDROOT
BRANCH   6   8
ATOM      8  C   UNL     1      43.945   5.246  11.339  0.00  0.00    +0.000 C 
ATOM      9  C   UNL     1      43.022   4.361  12.203  0.00  0.00    +0.000 C 
ATOM     10  C   UNL     1      43.492   2.903  12.266  0.00  0.00    +0.000 C 
ATOM     11  N   UNL     1      43.673   2.304  10.948  0.00  0.00    +0.000 NA
ATOM     12  C   UNL     1      44.517   3.108  10.067  0.00  0.00    +0.000 C 
ATOM     13  C   UNL     1      44.068   4.568   9.961  0.00  0.00    +0.000 C 
ATOM     14  H   UNL     1      42.758   2.171  10.509  0.00  0.00    +0.000 HD
ENDBRANCH   6   8
BRANCH   1  15
ATOM     15  C   UNL     1      47.289   4.766  15.113  0.00  0.00    +0.000 C 
BRANCH  15  16
ATOM     16  O   UNL     1      48.565   5.256  15.522  0.00  0.00    +0.000 OA
BRANCH  16  19
ATOM     17  C   UNL     1      48.674   5.677  19.177  0.00  0.00    +0.000 A 
ATOM     18  C   UNL     1      48.580   5.002  17.967  0.00  0.00    +0.000 A 
ATOM     19  C   UNL     1      48.652   5.748  16.796  0.00  0.00    +0.000 A 
ATOM     20  C   UNL     1      48.825   7.126  16.882  0.00  0.00    +0.000 A 
ATOM     21  C   UNL     1      48.916   7.711  18.136  0.00  0.00    +0.000 A 
ATOM     22  N   UNL     1      48.839   7.024  19.294  0.00  0.00    +0.000 NA
BRANCH  17  24
ATOM     23  N   UNL     1      48.532   3.535  20.317  0.00  0.00    +0.000 N 
ATOM     24  C   UNL     1      48.572   4.896  20.450  0.00  0.00    +0.000 C 
ATOM     25  O   UNL     1      48.537   5.432  21.550  0.00  0.00    +0.000 OA
ATOM     26  H   UNL     1      48.533   2.961  21.149  0.00  0.00    +0.000 HD
ATOM     27  H   UNL     1      48.653   3.114  19.404  0.00  0.00    +0.000 HD
ENDBRANCH  17  24
ENDBRANCH  16  19
ENDBRANCH  15  16
ENDBRANCH   1  15
TORSDOF 5
ENDMDL
MODEL 6
REMARK VINA RESULT:    -6.823      3.424      5.008
REMARK INTER + INTRA:          -9.072
REMARK INTER:                  -8.399
REMARK INTRA:                  -0.674
REMARK UNBOUND:                -0.255
REMARK  Name = 
REMARK  5 active torsions:
REMARK  status: ('A' for Active; 'I' for Inactive)
REMARK    1  A    between atoms: C_2  and  C_4
REMARK    2  A    between atoms: C_6  and  O_7
REMARK    3  A    between atoms: O_7  and  C_8
REMARK    4  A    between atoms: C_8  and  C_9
REMARK    5  A    between atoms: C_14  and  C_15
REMARK                            x       y       z     vdW  Elec       q    Type
REMARK                         _______ _______ _______ _____ _____    ______ ____
ROOT
ATOM      1  C   UNL     1      47.827   6.209  13.906  0.00  0.00    +0.000 A 
ATOM      2  C   UNL     1      48.871   7.133  13.923  0.00  0.00    +0.000 A 
ATOM      3  C   UNL     1      49.671   7.236  15.056  0.00  0.00    +0.000 A 
ATOM      4  F   UNL     1      50.680   8.119  15.068  0.00  0.00    +0.000 F 
ATOM      5  C   UNL     1      49.439   6.451  16.187  0.00  0.00    +0.000 A 
ATOM      6  C   UNL     1      48.381   5.527  16.204  0.00  0.00    +0.000 A 
ATOM      7  C   UNL     1      47.630   5.390  15.028  0.00  0.00    +0.000 A 
ENDROOT
BRANCH   6   8
ATOM      8  C   UNL     1      48.107   4.683  17.448  0.00  0.00    +0.000 C 
ATOM      9  C   UNL     1      49.268   4.595  18.459  0.00  0.00    +0.000 C 
ATOM     10  C   UNL     1      50.413   3.702  17.967  0.00  0.00    +0.000 C 
ATOM     11  N   UNL     1      49.971   2.363  17.590  0.00  0.00    +0.000 NA
ATOM     12  C   UNL     1      48.850   2.375  16.653  0.00  0.00    +0.000 C 
ATOM     13  C   UNL     1      47.677   3.241  17.118  0.00  0.00    +0.000 C 
ATOM     14  H   UNL     1      49.701   1.848  18.432  0.00  0.00    +0.000 HD
ENDBRANCH   6   8
BRANCH   1  15
ATOM     15  C   UNL     1      46.902   6.063  12.724  0.00  0.00    +0.000 C 
BRANCH  15  16
ATOM     16  O   UNL     1      45.615   5.667  13.196  0.00  0.00    +0.000 OA
BRANCH  16  19
ATOM     17  C   UNL     1      44.397   3.438  10.532  0.00  0.00    +0.000 A 
ATOM     18  C   UNL     1      45.171   4.432  11.119  0.00  0.00    +0.000 A 
ATOM     19  C   UNL     1      44.959   4.716  12.462  0.00  0.00    +0.000 A 
ATOM     20  C   UNL     1      43.998   3.994  13.163  0.00  0.00    +0.000 A 
ATOM     21  C   UNL     1      43.279   3.015  12.494  0.00  0.00    +0.000 A 
ATOM     22  N   UNL     1      43.447   2.717  11.190  0.00  0.00    +0.000 NA
BRANCH  17  24
ATOM     23  N   UNL     1      44.292   4.146   8.209  0.00  0.00    +0.000 N 
ATOM     24  C   UNL     1      44.591   3.134   9.079  0.00  0.00    +0.000 C 
ATOM     25  O   UNL     1      45.004   2.052   8.684  0.00  0.00    +0.000 OA
ATOM     26  H   UNL     1      44.471   4.014   7.223  0.00  0.00    +0.000 HD
ATOM     27  H   UNL     1      44.039   5.059   8.566  0.00  0.00    +0.000 HD
ENDBRANCH  17  24
ENDBRANCH  16  19
ENDBRANCH  15  16
ENDBRANCH   1  15
TORSDOF 5
ENDMDL
MODEL 7
REMARK VINA RESULT:    -6.735      3.597      5.028
REMARK INTER + INTRA:          -8.959
REMARK INTER:                  -8.364
REMARK INTRA:                  -0.595
REMARK UNBOUND:                -0.255
REMARK  Name = 
REMARK  5 active torsions:
REMARK  status: ('A' for Active; 'I' for Inactive)
REMARK    1  A    between atoms: C_2  and  C_4
REMARK    2  A    between atoms: C_6  and  O_7
REMARK    3  A    between atoms: O_7  and  C_8
REMARK    4  A    between atoms: C_8  and  C_9
REMARK    5  A    between atoms: C_14  and  C_15
REMARK                            x       y       z     vdW  Elec       q    Type
REMARK                         _______ _______ _______ _____ _____    ______ ____
ROOT
ATOM      1  C   UNL     1      47.448   4.940  15.187  0.00  0.00    +0.000 A 
ATOM      2  C   UNL     1      47.030   3.765  15.810  0.00  0.00    +0.000 A 
ATOM      3  C   UNL     1      47.371   3.540  17.139  0.00  0.00    +0.000 A 
ATOM      4  F   UNL     1      46.963   2.412  17.739  0.00  0.00    +0.000 F 
ATOM      5  C   UNL     1      48.142   4.454  17.860  0.00  0.00    +0.000 A 
ATOM      6  C   UNL     1      48.592   5.637  17.251  0.00  0.00    +0.000 A 
ATOM      7  C   UNL     1      48.180   5.877  15.932  0.00  0.00    +0.000 A 
ENDROOT
BRANCH   6   8
ATOM      8  C   UNL     1      49.456   6.630  18.026  0.00  0.00    +0.000 C 
ATOM      9  C   UNL     1      49.511   6.411  19.553  0.00  0.00    +0.000 C 
ATOM     10  C   UNL     1      48.210   6.821  20.255  0.00  0.00    +0.000 C 
ATOM     11  N   UNL     1      47.809   8.191  19.957  0.00  0.00    +0.000 NA
ATOM     12  C   UNL     1      47.764   8.475  18.524  0.00  0.00    +0.000 C 
ATOM     13  C   UNL     1      49.053   8.098  17.789  0.00  0.00    +0.000 C 
ATOM     14  H   UNL     1      48.459   8.840  20.408  0.00  0.00    +0.000 HD
ENDBRANCH   6   8
BRANCH   1  15
ATOM     15  C   UNL     1      47.140   5.237  13.741  0.00  0.00    +0.000 C 
BRANCH  15  16
ATOM     16  O   UNL     1      45.738   5.464  13.609  0.00  0.00    +0.000 OA
BRANCH  16  19
ATOM     17  C   UNL     1      44.702   4.191  10.314  0.00  0.00    +0.000 A 
ATOM     18  C   UNL     1      45.468   4.897  11.233  0.00  0.00    +0.000 A 
ATOM     19  C   UNL     1      45.110   4.826  12.573  0.00  0.00    +0.000 A 
ATOM     20  C   UNL     1      44.015   4.049  12.940  0.00  0.00    +0.000 A 
ATOM     21  C   UNL     1      43.315   3.373  11.953  0.00  0.00    +0.000 A 
ATOM     22  N   UNL     1      43.624   3.425  10.642  0.00  0.00    +0.000 NA
BRANCH  17  24
ATOM     23  N   UNL     1      44.344   3.463   8.022  0.00  0.00    +0.000 N 
ATOM     24  C   UNL     1      45.055   4.275   8.862  0.00  0.00    +0.000 C 
ATOM     25  O   UNL     1      45.920   5.031   8.439  0.00  0.00    +0.000 OA
ATOM     26  H   UNL     1      44.497   3.533   7.026  0.00  0.00    +0.000 HD
ATOM     27  H   UNL     1      43.574   2.914   8.385  0.00  0.00    +0.000 HD
ENDBRANCH  17  24
ENDBRANCH  16  19
ENDBRANCH  15  16
ENDBRANCH   1  15
TORSDOF 5
ENDMDL
MODEL 8
REMARK VINA RESULT:    -6.520      4.647      6.123
REMARK INTER + INTRA:          -8.681
REMARK INTER:                  -8.186
REMARK INTRA:                  -0.495
REMARK UNBOUND:                -0.255
REMARK  Name = 
REMARK  5 active torsions:
REMARK  status: ('A' for Active; 'I' for Inactive)
REMARK    1  A    between atoms: C_2  and  C_4
REMARK    2  A    between atoms: C_6  and  O_7
REMARK    3  A    between atoms: O_7  and  C_8
REMARK    4  A    between atoms: C_8  and  C_9
REMARK    5  A    between atoms: C_14  and  C_15
REMARK                            x       y       z     vdW  Elec       q    Type
REMARK                         _______ _______ _______ _____ _____    ______ ____
ROOT
ATOM      1  C   UNL     1      48.063   3.718  16.444  0.00  0.00    +0.000 A 
ATOM      2  C   UNL     1      48.857   2.572  16.472  0.00  0.00    +0.000 A 
ATOM      3  C   UNL     1      49.881   2.476  17.409  0.00  0.00    +0.000 A 
ATOM      4  F   UNL     1      50.640   1.371  17.440  0.00  0.00    +0.000 F 
ATOM      5  C   UNL     1      50.148   3.512  18.307  0.00  0.00    +0.000 A 
ATOM      6  C   UNL     1      49.376   4.685  18.287  0.00  0.00    +0.000 A 
ATOM      7  C   UNL     1      48.306   4.733  17.383  0.00  0.00    +0.000 A 
ENDROOT
BRANCH   6   8
ATOM      8  C   UNL     1      49.679   5.830  19.251  0.00  0.00    +0.000 C 
ATOM      9  C   UNL     1      50.106   5.407  20.672  0.00  0.00    +0.000 C 
ATOM     10  C   UNL     1      48.936   4.865  21.503  0.00  0.00    +0.000 C 
ATOM     11  N   UNL     1      47.809   5.789  21.571  0.00  0.00    +0.000 NA
ATOM     12  C   UNL     1      47.371   6.253  20.256  0.00  0.00    +0.000 C 
ATOM     13  C   UNL     1      48.507   6.820  19.402  0.00  0.00    +0.000 C 
ATOM     14  H   UNL     1      48.068   6.596  22.144  0.00  0.00    +0.000 HD
ENDBRANCH   6   8
BRANCH   1  15
ATOM     15  C   UNL     1      46.955   3.903  15.439  0.00  0.00    +0.000 C 
BRANCH  15  16
ATOM     16  O   UNL     1      47.479   4.583  14.300  0.00  0.00    +0.000 OA
BRANCH  16  19
ATOM     17  C   UNL     1      45.005   4.102  11.617  0.00  0.00    +0.000 A 
ATOM     18  C   UNL     1      45.787   3.766  12.714  0.00  0.00    +0.000 A 
ATOM     19  C   UNL     1      46.631   4.739  13.237  0.00  0.00    +0.000 A 
ATOM     20  C   UNL     1      46.650   6.002  12.651  0.00  0.00    +0.000 A 
ATOM     21  C   UNL     1      45.828   6.246  11.563  0.00  0.00    +0.000 A 
ATOM     22  N   UNL     1      45.005   5.326  11.020  0.00  0.00    +0.000 NA
BRANCH  17  24
ATOM     23  N   UNL     1      44.663   2.275  10.049  0.00  0.00    +0.000 N 
ATOM     24  C   UNL     1      44.109   3.060  11.023  0.00  0.00    +0.000 C 
ATOM     25  O   UNL     1      42.951   2.904  11.388  0.00  0.00    +0.000 OA
ATOM     26  H   UNL     1      44.121   1.513   9.666  0.00  0.00    +0.000 HD
ATOM     27  H   UNL     1      45.647   2.365   9.829  0.00  0.00    +0.000 HD
ENDBRANCH  17  24
ENDBRANCH  16  19
ENDBRANCH  15  16
ENDBRANCH   1  15
TORSDOF 5
ENDMDL
MODEL 9
REMARK VINA RESULT:    -6.501      4.376      8.068
REMARK INTER + INTRA:          -8.656
REMARK INTER:                  -8.058
REMARK INTRA:                  -0.599
REMARK UNBOUND:                -0.255
REMARK  Name = 
REMARK  5 active torsions:
REMARK  status: ('A' for Active; 'I' for Inactive)
REMARK    1  A    between atoms: C_2  and  C_4
REMARK    2  A    between atoms: C_6  and  O_7
REMARK    3  A    between atoms: O_7  and  C_8
REMARK    4  A    between atoms: C_8  and  C_9
REMARK    5  A    between atoms: C_14  and  C_15
REMARK                            x       y       z     vdW  Elec       q    Type
REMARK                         _______ _______ _______ _____ _____    ______ ____
ROOT
ATOM      1  C   UNL     1      47.020   7.539  13.167  0.00  0.00    +0.000 A 
ATOM      2  C   UNL     1      46.609   8.861  13.001  0.00  0.00    +0.000 A 
ATOM      3  C   UNL     1      45.475   9.132  12.243  0.00  0.00    +0.000 A 
ATOM      4  F   UNL     1      45.076  10.403  12.090  0.00  0.00    +0.000 F 
ATOM      5  C   UNL     1      44.749   8.111  11.625  0.00  0.00    +0.000 A 
ATOM      6  C   UNL     1      45.153   6.773  11.760  0.00  0.00    +0.000 A 
ATOM      7  C   UNL     1      46.258   6.515  12.583  0.00  0.00    +0.000 A 
ENDROOT
BRANCH   6   8
ATOM      8  C   UNL     1      44.378   5.654  11.066  0.00  0.00    +0.000 C 
ATOM      9  C   UNL     1      42.934   5.439  11.566  0.00  0.00    +0.000 C 
ATOM     10  C   UNL     1      42.880   4.773  12.946  0.00  0.00    +0.000 C 
ATOM     11  N   UNL     1      43.626   3.520  13.005  0.00  0.00    +0.000 NA
ATOM     12  C   UNL     1      44.998   3.649  12.518  0.00  0.00    +0.000 C 
ATOM     13  C   UNL     1      45.092   4.291  11.132  0.00  0.00    +0.000 C 
ATOM     14  H   UNL     1      43.137   2.810  12.453  0.00  0.00    +0.000 HD
ENDBRANCH   6   8
BRANCH   1  15
ATOM     15  C   UNL     1      48.255   7.173  13.950  0.00  0.00    +0.000 C 
BRANCH  15  16
ATOM     16  O   UNL     1      48.216   5.777  14.242  0.00  0.00    +0.000 OA
BRANCH  16  19
ATOM     17  C   UNL     1      48.444   5.577  17.910  0.00  0.00    +0.000 A 
ATOM     18  C   UNL     1      48.674   6.082  16.637  0.00  0.00    +0.000 A 
ATOM     19  C   UNL     1      48.087   5.431  15.559  0.00  0.00    +0.000 A 
ATOM     20  C   UNL     1      47.289   4.315  15.797  0.00  0.00    +0.000 A 
ATOM     21  C   UNL     1      47.110   3.888  17.104  0.00  0.00    +0.000 A 
ATOM     22  N   UNL     1      47.672   4.486  18.175  0.00  0.00    +0.000 NA
BRANCH  17  24
ATOM     23  N   UNL     1      49.182   7.612  19.016  0.00  0.00    +0.000 N 
ATOM     24  C   UNL     1      49.089   6.249  19.082  0.00  0.00    +0.000 C 
ATOM     25  O   UNL     1      49.501   5.626  20.052  0.00  0.00    +0.000 OA
ATOM     26  H   UNL     1      49.547   8.117  19.812  0.00  0.00    +0.000 HD
ATOM     27  H   UNL     1      48.754   8.110  18.246  0.00  0.00    +0.000 HD
ENDBRANCH  17  24
ENDBRANCH  16  19
ENDBRANCH  15  16
ENDBRANCH   1  15
TORSDOF 5
ENDMDL
