MODEL 1
REMARK VINA RESULT:    -8.333      0.000      0.000
REMARK INTER + INTRA:         -13.026
REMARK INTER:                 -11.744
REMARK INTRA:                  -1.283
REMARK UNBOUND:                -1.283
REMARK  Name = 
REMARK  7 active torsions:
REMARK  status: ('A' for Active; 'I' for Inactive)
REMARK    1  A    between atoms: C_2  and  C_3
REMARK    2  A    between atoms: C_3  and  N_4
REMARK    3  A    between atoms: C_3  and  C_17
REMARK    4  A    between atoms: C_5  and  C_7
REMARK    5  A    between atoms: C_20  and  C_21
REMARK    6  A    between atoms: C_21  and  N_22
REMARK    7  A    between atoms: C_23  and  C_25
REMARK                            x       y       z     vdW  Elec       q    Type
REMARK                         _______ _______ _______ _____ _____    ______ ____
ROOT
ATOM      1  C   UNL     1      47.587   4.935  14.882  0.00  0.00    +0.000 C 
ENDROOT
BRANCH   1   2
ATOM      2  C   UNL     1      46.679   4.789  13.661  0.00  0.00    +0.000 A 
ATOM      3  C   UNL     1      46.222   3.517  13.276  0.00  0.00    +0.000 A 
ATOM      4  C   UNL     1      45.399   3.357  12.152  0.00  0.00    +0.000 A 
ATOM      5  C   UNL     1      45.031   4.461  11.373  0.00  0.00    +0.000 A 
ATOM      6  C   UNL     1      45.473   5.731  11.761  0.00  0.00    +0.000 A 
ATOM      7  C   UNL     1      46.302   5.891  12.876  0.00  0.00    +0.000 A 
BRANCH   5   8
ATOM      8  C   UNL     1      44.186   4.301  10.136  0.00  0.00    +0.000 C 
BRANCH   8   9
ATOM      9  N   UNL     1      44.801   3.425   9.169  0.00  0.00    +0.000 N 
ATOM     10  C   UNL     1      45.744   3.899   8.283  0.00  0.00    +0.000 C 
ATOM     11  O   UNL     1      46.125   5.067   8.260  0.00  0.00    +0.000 OA
ATOM     12  H   UNL     1      44.681   2.430   9.287  0.00  0.00    +0.000 HD
BRANCH  10  13
ATOM     13  C   UNL     1      46.319   2.899   7.342  0.00  0.00    +0.000 A 
ATOM     14  C   UNL     1      46.585   3.239   6.007  0.00  0.00    +0.000 A 
ATOM     15  C   UNL     1      47.109   2.285   5.133  0.00  0.00    +0.000 A 
ATOM     16  C   UNL     1      47.378   0.997   5.587  0.00  0.00    +0.000 A 
ATOM     17  C   UNL     1      47.139   0.658   6.918  0.00  0.00    +0.000 A 
ATOM     18  C   UNL     1      46.613   1.611   7.801  0.00  0.00    +0.000 A 
ENDBRANCH  10  13
ENDBRANCH   8   9
ENDBRANCH   5   8
ENDBRANCH   1   2
BRANCH   1  19
ATOM     19  N   UNL     1      47.821   6.347  15.152  0.00  0.00    +0.000 N 
ATOM     20  C   UNL     1      48.995   6.780  15.709  0.00  0.00    +0.000 C 
ATOM     21  O   UNL     1      49.911   5.993  15.936  0.00  0.00    +0.000 OA
ATOM     22  H   UNL     1      47.040   6.983  15.019  0.00  0.00    +0.000 HD
BRANCH  20  23
ATOM     23  C   UNL     1      49.129   8.215  16.014  0.00  0.00    +0.000 A 
ATOM     24  C   UNL     1      49.348   8.610  17.328  0.00  0.00    +0.000 A 
ATOM     25  S   UNL     1      49.453  10.299  17.538  0.00  0.00    +0.000 S 
ATOM     26  C   UNL     1      49.190  10.571  15.880  0.00  0.00    +0.000 A 
ATOM     27  N   UNL     1      49.123  11.837  15.387  0.00  0.00    +0.000 NA
ATOM     28  C   UNL     1      48.907  11.906  14.116  0.00  0.00    +0.000 A 
ATOM     29  N   UNL     1      48.773  10.821  13.291  0.00  0.00    +0.000 N 
ATOM     30  C   UNL     1      48.858   9.524  13.739  0.00  0.00    +0.000 A 
ATOM     31  O   UNL     1      48.766   8.576  12.966  0.00  0.00    +0.000 OA
ATOM     32  C   UNL     1      49.059   9.389  15.170  0.00  0.00    +0.000 A 
ATOM     33  H   UNL     1      48.620  10.944  12.301  0.00  0.00    +0.000 HD
ENDBRANCH  20  23
ENDBRANCH   1  19
BRANCH   1  35
ATOM     34  N   UNL     1      46.630   3.649  16.993  0.00  0.00    +0.000 NA
ATOM     35  C   UNL     1      47.049   4.233  16.081  0.00  0.00    +0.000 C 
ENDBRANCH   1  35
TORSDOF 7
ENDMDL
MODEL 2
REMARK VINA RESULT:    -8.333      1.436      2.158
REMARK INTER + INTRA:         -13.026
REMARK INTER:                 -11.779
REMARK INTRA:                  -1.247
REMARK UNBOUND:                -1.283
REMARK  Name = 
REMARK  7 active torsions:
REMARK  status: ('A' for Active; 'I' for Inactive)
REMARK    1  A    between atoms: C_2  and  C_3
REMARK    2  A    between atoms: C_3  and  N_4
REMARK    3  A    between atoms: C_3  and  C_17
REMARK    4  A    between atoms: C_5  and  C_7
REMARK    5  A    between atoms: C_20  and  C_21
REMARK    6  A    between atoms: C_21  and  N_22
REMARK    7  A    between atoms: C_23  and  C_25
REMARK                            x       y       z     vdW  Elec       q    Type
REMARK                         _______ _______ _______ _____ _____    ______ ____
ROOT
ATOM      1  C   UNL     1      47.624   5.037  14.853  0.00  0.00    +0.000 C 
ENDROOT
BRANCH   1   2
ATOM      2  C   UNL     1      46.706   4.873  13.642  0.00  0.00    +0.000 A 
ATOM      3  C   UNL     1      46.209   3.603  13.305  0.00  0.00    +0.000 A 
ATOM      4  C   UNL     1      45.376   3.426  12.191  0.00  0.00    +0.000 A 
ATOM      5  C   UNL     1      45.037   4.513  11.374  0.00  0.00    +0.000 A 
ATOM      6  C   UNL     1      45.519   5.782  11.713  0.00  0.00    +0.000 A 
ATOM      7  C   UNL     1      46.358   5.957  12.818  0.00  0.00    +0.000 A 
BRANCH   5   8
ATOM      8  C   UNL     1      44.181   4.333  10.147  0.00  0.00    +0.000 C 
BRANCH   8   9
ATOM      9  N   UNL     1      44.796   3.455   9.182  0.00  0.00    +0.000 N 
ATOM     10  C   UNL     1      45.738   3.926   8.293  0.00  0.00    +0.000 C 
ATOM     11  O   UNL     1      46.120   5.094   8.268  0.00  0.00    +0.000 OA
ATOM     12  H   UNL     1      44.675   2.459   9.302  0.00  0.00    +0.000 HD
BRANCH  10  13
ATOM     13  C   UNL     1      46.312   2.924   7.355  0.00  0.00    +0.000 A 
ATOM     14  C   UNL     1      46.568   3.258   6.016  0.00  0.00    +0.000 A 
ATOM     15  C   UNL     1      47.090   2.302   5.144  0.00  0.00    +0.000 A 
ATOM     16  C   UNL     1      47.370   1.017   5.603  0.00  0.00    +0.000 A 
ATOM     17  C   UNL     1      47.141   0.685   6.938  0.00  0.00    +0.000 A 
ATOM     18  C   UNL     1      46.616   1.640   7.818  0.00  0.00    +0.000 A 
ENDBRANCH  10  13
ENDBRANCH   8   9
ENDBRANCH   5   8
ENDBRANCH   1   2
BRANCH   1  19
ATOM     19  N   UNL     1      47.696   6.443  15.227  0.00  0.00    +0.000 N 
ATOM     20  C   UNL     1      48.900   7.074  15.393  0.00  0.00    +0.000 C 
ATOM     21  O   UNL     1      49.955   6.486  15.165  0.00  0.00    +0.000 OA
ATOM     22  H   UNL     1      46.825   6.905  15.471  0.00  0.00    +0.000 HD
BRANCH  20  23
ATOM     23  C   UNL     1      48.890   8.478  15.838  0.00  0.00    +0.000 A 
ATOM     24  C   UNL     1      49.345   9.465  14.972  0.00  0.00    +0.000 A 
ATOM     25  S   UNL     1      49.304  11.039  15.630  0.00  0.00    +0.000 S 
ATOM     26  C   UNL     1      48.694  10.459  17.107  0.00  0.00    +0.000 A 
ATOM     27  N   UNL     1      48.465  11.309  18.144  0.00  0.00    +0.000 NA
ATOM     28  C   UNL     1      48.015  10.741  19.212  0.00  0.00    +0.000 A 
ATOM     29  N   UNL     1      47.754   9.401  19.330  0.00  0.00    +0.000 N 
ATOM     30  C   UNL     1      47.945   8.509  18.302  0.00  0.00    +0.000 A 
ATOM     31  O   UNL     1      47.670   7.320  18.430  0.00  0.00    +0.000 OA
ATOM     32  C   UNL     1      48.491   9.089  17.088  0.00  0.00    +0.000 A 
ATOM     33  H   UNL     1      47.387   9.022  20.190  0.00  0.00    +0.000 HD
ENDBRANCH  20  23
ENDBRANCH   1  19
BRANCH   1  35
ATOM     34  N   UNL     1      46.849   3.551  16.906  0.00  0.00    +0.000 NA
ATOM     35  C   UNL     1      47.208   4.188  16.003  0.00  0.00    +0.000 C 
ENDBRANCH   1  35
TORSDOF 7
ENDMDL
MODEL 3
REMARK VINA RESULT:    -8.013      2.661      4.650
REMARK INTER + INTRA:         -12.574
REMARK INTER:                 -11.319
REMARK INTRA:                  -1.255
REMARK UNBOUND:                -1.283
REMARK  Name = 
REMARK  7 active torsions:
REMARK  status: ('A' for Active; 'I' for Inactive)
REMARK    1  A    between atoms: C_2  and  C_3
REMARK    2  A    between atoms: C_3  and  N_4
REMARK    3  A    between atoms: C_3  and  C_17
REMARK    4  A    between atoms: C_5  and  C_7
REMARK    5  A    between atoms: C_20  and  C_21
REMARK    6  A    between atoms: C_21  and  N_22
REMARK    7  A    between atoms: C_23  and  C_25
REMARK                            x       y       z     vdW  Elec       q    Type
REMARK                         _______ _______ _______ _____ _____    ______ ____
ROOT
ATOM      1  C   UNL     1      47.819   6.721  14.664  0.00  0.00    +0.000 C 
ENDROOT
BRANCH   1   2
ATOM      2  C   UNL     1      46.926   5.803  13.829  0.00  0.00    +0.000 A 
ATOM      3  C   UNL     1      47.046   4.408  13.950  0.00  0.00    +0.000 A 
ATOM      4  C   UNL     1      46.247   3.547  13.185  0.00  0.00    +0.000 A 
ATOM      5  C   UNL     1      45.323   4.059  12.265  0.00  0.00    +0.000 A 
ATOM      6  C   UNL     1      45.190   5.447  12.152  0.00  0.00    +0.000 A 
ATOM      7  C   UNL     1      45.994   6.307  12.906  0.00  0.00    +0.000 A 
BRANCH   5   8
ATOM      8  C   UNL     1      44.489   3.147  11.403  0.00  0.00    +0.000 C 
BRANCH   8   9
ATOM      9  N   UNL     1      45.225   2.657  10.263  0.00  0.00    +0.000 N 
ATOM     10  C   UNL     1      45.096   3.253   9.027  0.00  0.00    +0.000 C 
ATOM     11  O   UNL     1      44.374   4.224   8.816  0.00  0.00    +0.000 OA
ATOM     12  H   UNL     1      45.980   2.008  10.429  0.00  0.00    +0.000 HD
BRANCH  10  13
ATOM     13  C   UNL     1      45.916   2.669   7.930  0.00  0.00    +0.000 A 
ATOM     14  C   UNL     1      46.230   3.423   6.789  0.00  0.00    +0.000 A 
ATOM     15  C   UNL     1      46.985   2.856   5.762  0.00  0.00    +0.000 A 
ATOM     16  C   UNL     1      47.439   1.543   5.872  0.00  0.00    +0.000 A 
ATOM     17  C   UNL     1      47.151   0.796   7.014  0.00  0.00    +0.000 A 
ATOM     18  C   UNL     1      46.393   1.360   8.049  0.00  0.00    +0.000 A 
ENDBRANCH  10  13
ENDBRANCH   8   9
ENDBRANCH   5   8
ENDBRANCH   1   2
BRANCH   1  19
ATOM     19  N   UNL     1      48.866   5.937  15.303  0.00  0.00    +0.000 N 
ATOM     20  C   UNL     1      49.144   6.075  16.637  0.00  0.00    +0.000 C 
ATOM     21  O   UNL     1      48.471   6.819  17.346  0.00  0.00    +0.000 OA
ATOM     22  H   UNL     1      49.457   5.370  14.702  0.00  0.00    +0.000 HD
BRANCH  20  23
ATOM     23  C   UNL     1      50.263   5.296  17.196  0.00  0.00    +0.000 A 
ATOM     24  C   UNL     1      51.331   5.968  17.777  0.00  0.00    +0.000 A 
ATOM     25  S   UNL     1      52.566   4.942  18.353  0.00  0.00    +0.000 S 
ATOM     26  C   UNL     1      51.729   3.557  17.830  0.00  0.00    +0.000 A 
ATOM     27  N   UNL     1      52.268   2.319  17.989  0.00  0.00    +0.000 NA
ATOM     28  C   UNL     1      51.538   1.355  17.539  0.00  0.00    +0.000 A 
ATOM     29  N   UNL     1      50.306   1.517  16.961  0.00  0.00    +0.000 N 
ATOM     30  C   UNL     1      49.710   2.746  16.803  0.00  0.00    +0.000 A 
ATOM     31  O   UNL     1      48.591   2.852  16.311  0.00  0.00    +0.000 OA
ATOM     32  C   UNL     1      50.508   3.871  17.255  0.00  0.00    +0.000 A 
ATOM     33  H   UNL     1      49.778   0.718  16.643  0.00  0.00    +0.000 HD
ENDBRANCH  20  23
ENDBRANCH   1  19
BRANCH   1  35
ATOM     34  N   UNL     1      48.794   8.722  13.225  0.00  0.00    +0.000 NA
ATOM     35  C   UNL     1      48.388   7.843  13.866  0.00  0.00    +0.000 C 
ENDBRANCH   1  35
TORSDOF 7
ENDMDL
MODEL 4
REMARK VINA RESULT:    -7.756      2.097      4.252
REMARK INTER + INTRA:         -12.213
REMARK INTER:                 -10.972
REMARK INTRA:                  -1.240
REMARK UNBOUND:                -1.283
REMARK  Name = 
REMARK  7 active torsions:
REMARK  status: ('A' for Active; 'I' for Inactive)
REMARK    1  A    between atoms: C_2  and  C_3
REMARK    2  A    between atoms: C_3  and  N_4
REMARK    3  A    between atoms: C_3  and  C_17
REMARK    4  A    between atoms: C_5  and  C_7
REMARK    5  A    between atoms: C_20  and  C_21
REMARK    6  A    between atoms: C_21  and  N_22
REMARK    7  A    between atoms: C_23  and  C_25
REMARK                            x       y       z     vdW  Elec       q    Type
REMARK                         _______ _______ _______ _____ _____    ______ ____
ROOT
ATOM      1  C   UNL     1      47.369   8.221  13.917  0.00  0.00    +0.000 C 
ENDROOT
BRANCH   1   2
ATOM      2  C   UNL     1      46.459   7.410  12.995  0.00  0.00    +0.000 A 
ATOM      3  C   UNL     1      46.579   6.011  12.943  0.00  0.00    +0.000 A 
ATOM      4  C   UNL     1      45.764   5.248  12.095  0.00  0.00    +0.000 A 
ATOM      5  C   UNL     1      44.824   5.867  11.262  0.00  0.00    +0.000 A 
ATOM      6  C   UNL     1      44.691   7.258  11.320  0.00  0.00    +0.000 A 
ATOM      7  C   UNL     1      45.510   8.021  12.157  0.00  0.00    +0.000 A 
BRANCH   5   8
ATOM      8  C   UNL     1      43.972   5.065  10.311  0.00  0.00    +0.000 C 
BRANCH   8   9
ATOM      9  N   UNL     1      44.750   4.485   9.245  0.00  0.00    +0.000 N 
ATOM     10  C   UNL     1      45.080   3.146   9.255  0.00  0.00    +0.000 C 
ATOM     11  O   UNL     1      44.733   2.371  10.144  0.00  0.00    +0.000 OA
ATOM     12  H   UNL     1      44.875   5.024   8.401  0.00  0.00    +0.000 HD
BRANCH  10  13
ATOM     13  C   UNL     1      45.874   2.659   8.095  0.00  0.00    +0.000 A 
ATOM     14  C   UNL     1      46.152   3.503   7.010  0.00  0.00    +0.000 A 
ATOM     15  C   UNL     1      46.884   3.026   5.922  0.00  0.00    +0.000 A 
ATOM     16  C   UNL     1      47.351   1.714   5.916  0.00  0.00    +0.000 A 
ATOM     17  C   UNL     1      47.099   0.876   7.002  0.00  0.00    +0.000 A 
ATOM     18  C   UNL     1      46.364   1.349   8.097  0.00  0.00    +0.000 A 
ENDBRANCH  10  13
ENDBRANCH   8   9
ENDBRANCH   5   8
ENDBRANCH   1   2
BRANCH   1  19
ATOM     19  N   UNL     1      48.251   7.322  14.648  0.00  0.00    +0.000 N 
ATOM     20  C   UNL     1      48.706   7.634  15.902  0.00  0.00    +0.000 C 
ATOM     21  O   UNL     1      48.326   8.654  16.472  0.00  0.00    +0.000 OA
ATOM     22  H   UNL     1      48.609   6.512  14.150  0.00  0.00    +0.000 HD
BRANCH  20  23
ATOM     23  C   UNL     1      49.649   6.706  16.549  0.00  0.00    +0.000 A 
ATOM     24  C   UNL     1      50.908   7.165  16.913  0.00  0.00    +0.000 A 
ATOM     25  S   UNL     1      51.903   5.976  17.623  0.00  0.00    +0.000 S 
ATOM     26  C   UNL     1      50.695   4.792  17.454  0.00  0.00    +0.000 A 
ATOM     27  N   UNL     1      50.922   3.509  17.841  0.00  0.00    +0.000 NA
ATOM     28  C   UNL     1      49.929   2.707  17.647  0.00  0.00    +0.000 A 
ATOM     29  N   UNL     1      48.721   3.079  17.119  0.00  0.00    +0.000 N 
ATOM     30  C   UNL     1      48.436   4.369  16.738  0.00  0.00    +0.000 A 
ATOM     31  O   UNL     1      47.332   4.675  16.299  0.00  0.00    +0.000 OA
ATOM     32  C   UNL     1      49.535   5.305  16.896  0.00  0.00    +0.000 A 
ATOM     33  H   UNL     1      47.978   2.405  17.008  0.00  0.00    +0.000 HD
ENDBRANCH  20  23
ENDBRANCH   1  19
BRANCH   1  35
ATOM     34  N   UNL     1      48.709  10.107  12.624  0.00  0.00    +0.000 NA
ATOM     35  C   UNL     1      48.140   9.264  13.185  0.00  0.00    +0.000 C 
ENDBRANCH   1  35
TORSDOF 7
ENDMDL
MODEL 5
REMARK VINA RESULT:    -7.600      2.697      4.544
REMARK INTER + INTRA:         -11.992
REMARK INTER:                 -10.769
REMARK INTRA:                  -1.223
REMARK UNBOUND:                -1.283
REMARK  Name = 
REMARK  7 active torsions:
REMARK  status: ('A' for Active; 'I' for Inactive)
REMARK    1  A    between atoms: C_2  and  C_3
REMARK    2  A    between atoms: C_3  and  N_4
REMARK    3  A    between atoms: C_3  and  C_17
REMARK    4  A    between atoms: C_5  and  C_7
REMARK    5  A    between atoms: C_20  and  C_21
REMARK    6  A    between atoms: C_21  and  N_22
REMARK    7  A    between atoms: C_23  and  C_25
REMARK                            x       y       z     vdW  Elec       q    Type
REMARK                         _______ _______ _______ _____ _____    ______ ____
ROOT
ATOM      1  C   UNL     1      44.399   4.023  11.480  0.00  0.00    +0.000 C 
ENDROOT
BRANCH   1   2
ATOM      2  C   UNL     1      45.077   3.963  10.112  0.00  0.00    +0.000 A 
ATOM      3  C   UNL     1      45.179   2.737   9.432  0.00  0.00    +0.000 A 
ATOM      4  C   UNL     1      45.808   2.655   8.182  0.00  0.00    +0.000 A 
ATOM      5  C   UNL     1      46.372   3.793   7.591  0.00  0.00    +0.000 A 
ATOM      6  C   UNL     1      46.261   5.018   8.257  0.00  0.00    +0.000 A 
ATOM      7  C   UNL     1      45.643   5.100   9.509  0.00  0.00    +0.000 A 
BRANCH   5   8
ATOM      8  C   UNL     1      47.092   3.714   6.269  0.00  0.00    +0.000 C 
BRANCH   8   9
ATOM      9  N   UNL     1      46.591   2.644   5.443  0.00  0.00    +0.000 N 
ATOM     10  C   UNL     1      47.422   1.632   5.011  0.00  0.00    +0.000 C 
ATOM     11  O   UNL     1      48.614   1.566   5.302  0.00  0.00    +0.000 OA
ATOM     12  H   UNL     1      45.590   2.540   5.356  0.00  0.00    +0.000 HD
BRANCH  10  13
ATOM     13  C   UNL     1      46.788   0.576   4.176  0.00  0.00    +0.000 A 
ATOM     14  C   UNL     1      47.047  -0.782   4.417  0.00  0.00    +0.000 A 
ATOM     15  C   UNL     1      46.458  -1.759   3.614  0.00  0.00    +0.000 A 
ATOM     16  C   UNL     1      45.603  -1.390   2.578  0.00  0.00    +0.000 A 
ATOM     17  C   UNL     1      45.323  -0.044   2.348  0.00  0.00    +0.000 A 
ATOM     18  C   UNL     1      45.911   0.943   3.150  0.00  0.00    +0.000 A 
ENDBRANCH  10  13
ENDBRANCH   8   9
ENDBRANCH   5   8
ENDBRANCH   1   2
BRANCH   1  19
ATOM     19  N   UNL     1      45.294   4.649  12.443  0.00  0.00    +0.000 N 
ATOM     20  C   UNL     1      46.125   3.900  13.233  0.00  0.00    +0.000 C 
ATOM     21  O   UNL     1      46.185   2.680  13.102  0.00  0.00    +0.000 OA
ATOM     22  H   UNL     1      45.196   5.650  12.589  0.00  0.00    +0.000 HD
BRANCH  20  23
ATOM     23  C   UNL     1      46.951   4.601  14.231  0.00  0.00    +0.000 A 
ATOM     24  C   UNL     1      47.091   4.053  15.500  0.00  0.00    +0.000 A 
ATOM     25  S   UNL     1      48.049   4.986  16.558  0.00  0.00    +0.000 S 
ATOM     26  C   UNL     1      48.299   6.172  15.366  0.00  0.00    +0.000 A 
ATOM     27  N   UNL     1      49.023   7.291  15.641  0.00  0.00    +0.000 NA
ATOM     28  C   UNL     1      49.127   8.117  14.655  0.00  0.00    +0.000 A 
ATOM     29  N   UNL     1      48.590   7.915  13.411  0.00  0.00    +0.000 N 
ATOM     30  C   UNL     1      47.874   6.789  13.079  0.00  0.00    +0.000 A 
ATOM     31  O   UNL     1      47.435   6.625  11.946  0.00  0.00    +0.000 OA
ATOM     32  C   UNL     1      47.690   5.845  14.166  0.00  0.00    +0.000 A 
ATOM     33  H   UNL     1      48.722   8.595  12.677  0.00  0.00    +0.000 HD
ENDBRANCH  20  23
ENDBRANCH   1  19
BRANCH   1  35
ATOM     34  N   UNL     1      42.072   5.290  11.399  0.00  0.00    +0.000 NA
ATOM     35  C   UNL     1      43.080   4.714  11.433  0.00  0.00    +0.000 C 
ENDBRANCH   1  35
TORSDOF 7
ENDMDL
MODEL 6
REMARK VINA RESULT:    -7.548      3.042      4.244
REMARK INTER + INTRA:         -11.920
REMARK INTER:                 -10.765
REMARK INTRA:                  -1.154
REMARK UNBOUND:                -1.283
REMARK  Name = 
REMARK  7 active torsions:
REMARK  status: ('A' for Active; 'I' for Inactive)
REMARK    1  A    between atoms: C_2  and  C_3
REMARK    2  A    between atoms: C_3  and  N_4
REMARK    3  A    between atoms: C_3  and  C_17
REMARK    4  A    between atoms: C_5  and  C_7
REMARK    5  A    between atoms: C_20  and  C_21
REMARK    6  A    between atoms: C_21  and  N_22
REMARK    7  A    between atoms: C_23  and  C_25
REMARK                            x       y       z     vdW  Elec       q    Type
REMARK                         _______ _______ _______ _____ _____    ______ ____
ROOT
ATOM      1  C   UNL     1      45.845   8.906  12.615  0.00  0.00    +0.000 C 
ENDROOT
BRANCH   1   2
ATOM      2  C   UNL     1      45.390   7.481  12.298  0.00  0.00    +0.000 A 
ATOM      3  C   UNL     1      46.259   6.400  12.526  0.00  0.00    +0.000 A 
ATOM      4  C   UNL     1      45.869   5.087  12.230  0.00  0.00    +0.000 A 
ATOM      5  C   UNL     1      44.608   4.824  11.679  0.00  0.00    +0.000 A 
ATOM      6  C   UNL     1      43.734   5.895  11.464  0.00  0.00    +0.000 A 
ATOM      7  C   UNL     1      44.126   7.207  11.748  0.00  0.00    +0.000 A 
BRANCH   5   8
ATOM      8  C   UNL     1      44.190   3.423  11.312  0.00  0.00    +0.000 C 
BRANCH   8   9
ATOM      9  N   UNL     1      45.015   2.867  10.268  0.00  0.00    +0.000 N 
ATOM     10  C   UNL     1      44.900   3.304   8.966  0.00  0.00    +0.000 C 
ATOM     11  O   UNL     1      44.115   4.182   8.614  0.00  0.00    +0.000 OA
ATOM     12  H   UNL     1      45.809   2.306  10.539  0.00  0.00    +0.000 HD
BRANCH  10  13
ATOM     13  C   UNL     1      45.813   2.668   7.978  0.00  0.00    +0.000 A 
ATOM     14  C   UNL     1      46.260   1.350   8.159  0.00  0.00    +0.000 A 
ATOM     15  C   UNL     1      47.129   0.773   7.233  0.00  0.00    +0.000 A 
ATOM     16  C   UNL     1      47.547   1.499   6.121  0.00  0.00    +0.000 A 
ATOM     17  C   UNL     1      47.089   2.801   5.922  0.00  0.00    +0.000 A 
ATOM     18  C   UNL     1      46.216   3.387   6.848  0.00  0.00    +0.000 A 
ENDBRANCH  10  13
ENDBRANCH   8   9
ENDBRANCH   5   8
ENDBRANCH   1   2
BRANCH   1  19
ATOM     19  N   UNL     1      47.145   9.152  12.006  0.00  0.00    +0.000 N 
ATOM     20  C   UNL     1      48.178   9.689  12.727  0.00  0.00    +0.000 C 
ATOM     21  O   UNL     1      48.055   9.916  13.928  0.00  0.00    +0.000 OA
ATOM     22  H   UNL     1      47.221   9.019  11.002  0.00  0.00    +0.000 HD
BRANCH  20  23
ATOM     23  C   UNL     1      49.441   9.971  12.022  0.00  0.00    +0.000 A 
ATOM     24  C   UNL     1      49.819  11.292  11.817  0.00  0.00    +0.000 A 
ATOM     25  S   UNL     1      51.285  11.469  10.963  0.00  0.00    +0.000 S 
ATOM     26  C   UNL     1      51.462   9.785  10.817  0.00  0.00    +0.000 A 
ATOM     27  N   UNL     1      52.517   9.254  10.142  0.00  0.00    +0.000 NA
ATOM     28  C   UNL     1      52.527   7.964  10.094  0.00  0.00    +0.000 A 
ATOM     29  N   UNL     1      51.587   7.156  10.678  0.00  0.00    +0.000 N 
ATOM     30  C   UNL     1      50.518   7.646  11.391  0.00  0.00    +0.000 A 
ATOM     31  O   UNL     1      49.712   6.894  11.929  0.00  0.00    +0.000 OA
ATOM     32  C   UNL     1      50.436   9.095  11.441  0.00  0.00    +0.000 A 
ATOM     33  H   UNL     1      51.661   6.152  10.616  0.00  0.00    +0.000 HD
ENDBRANCH  20  23
ENDBRANCH   1  19
BRANCH   1  35
ATOM     34  N   UNL     1      44.099  10.755  11.868  0.00  0.00    +0.000 NA
ATOM     35  C   UNL     1      44.846   9.929  12.201  0.00  0.00    +0.000 C 
ENDBRANCH   1  35
TORSDOF 7
ENDMDL
MODEL 7
REMARK VINA RESULT:    -7.511      1.992      3.692
REMARK INTER + INTRA:         -11.867
REMARK INTER:                 -10.923
REMARK INTRA:                  -0.944
REMARK UNBOUND:                -1.283
REMARK  Name = 
REMARK  7 active torsions:
REMARK  status: ('A' for Active; 'I' for Inactive)
REMARK    1  A    between atoms: C_2  and  C_3
REMARK    2  A    between atoms: C_3  and  N_4
REMARK    3  A    between atoms: C_3  and  C_17
REMARK    4  A    between atoms: C_5  and  C_7
REMARK    5  A    between atoms: C_20  and  C_21
REMARK    6  A    between atoms: C_21  and  N_22
REMARK    7  A    between atoms: C_23  and  C_25
REMARK                            x       y       z     vdW  Elec       q    Type
REMARK                         _______ _______ _______ _____ _____    ______ ____
ROOT
ATOM      1  C   UNL     1      47.851   7.757  13.626  0.00  0.00    +0.000 C 
ENDROOT
BRANCH   1   2
ATOM      2  C   UNL     1      46.971   6.692  12.972  0.00  0.00    +0.000 A 
ATOM      3  C   UNL     1      46.862   5.417  13.554  0.00  0.00    +0.000 A 
ATOM      4  C   UNL     1      46.071   4.421  12.965  0.00  0.00    +0.000 A 
ATOM      5  C   UNL     1      45.387   4.667  11.767  0.00  0.00    +0.000 A 
ATOM      6  C   UNL     1      45.481   5.938  11.192  0.00  0.00    +0.000 A 
ATOM      7  C   UNL     1      46.278   6.930  11.772  0.00  0.00    +0.000 A 
BRANCH   5   8
ATOM      8  C   UNL     1      44.570   3.593  11.097  0.00  0.00    +0.000 C 
BRANCH   8   9
ATOM      9  N   UNL     1      45.300   2.939  10.038  0.00  0.00    +0.000 N 
ATOM     10  C   UNL     1      45.164   3.345   8.728  0.00  0.00    +0.000 C 
ATOM     11  O   UNL     1      44.439   4.275   8.379  0.00  0.00    +0.000 OA
ATOM     12  H   UNL     1      46.056   2.322  10.294  0.00  0.00    +0.000 HD
BRANCH  10  13
ATOM     13  C   UNL     1      45.978   2.605   7.726  0.00  0.00    +0.000 A 
ATOM     14  C   UNL     1      46.351   3.210   6.516  0.00  0.00    +0.000 A 
ATOM     15  C   UNL     1      47.100   2.497   5.579  0.00  0.00    +0.000 A 
ATOM     16  C   UNL     1      47.488   1.186   5.847  0.00  0.00    +0.000 A 
ATOM     17  C   UNL     1      47.141   0.587   7.057  0.00  0.00    +0.000 A 
ATOM     18  C   UNL     1      46.389   1.297   8.002  0.00  0.00    +0.000 A 
ENDBRANCH  10  13
ENDBRANCH   8   9
ENDBRANCH   5   8
ENDBRANCH   1   2
BRANCH   1  19
ATOM     19  N   UNL     1      47.911   7.528  15.063  0.00  0.00    +0.000 N 
ATOM     20  C   UNL     1      48.434   8.467  15.912  0.00  0.00    +0.000 C 
ATOM     21  O   UNL     1      48.807   9.558  15.489  0.00  0.00    +0.000 OA
ATOM     22  H   UNL     1      47.658   6.603  15.398  0.00  0.00    +0.000 HD
BRANCH  20  23
ATOM     23  C   UNL     1      48.522   8.133  17.344  0.00  0.00    +0.000 A 
ATOM     24  C   UNL     1      48.202   9.102  18.285  0.00  0.00    +0.000 A 
ATOM     25  S   UNL     1      48.377   8.586  19.902  0.00  0.00    +0.000 S 
ATOM     26  C   UNL     1      48.908   7.049  19.406  0.00  0.00    +0.000 A 
ATOM     27  N   UNL     1      49.270   6.111  20.321  0.00  0.00    +0.000 NA
ATOM     28  C   UNL     1      49.666   4.992  19.814  0.00  0.00    +0.000 A 
ATOM     29  N   UNL     1      49.713   4.720  18.472  0.00  0.00    +0.000 N 
ATOM     30  C   UNL     1      49.333   5.627  17.511  0.00  0.00    +0.000 A 
ATOM     31  O   UNL     1      49.356   5.339  16.319  0.00  0.00    +0.000 OA
ATOM     32  C   UNL     1      48.918   6.919  18.027  0.00  0.00    +0.000 A 
ATOM     33  H   UNL     1      50.019   3.817  18.140  0.00  0.00    +0.000 HD
ENDBRANCH  20  23
ENDBRANCH   1  19
BRANCH   1  35
ATOM     34  N   UNL     1      50.256   7.875  12.520  0.00  0.00    +0.000 NA
ATOM     35  C   UNL     1      49.212   7.819  13.026  0.00  0.00    +0.000 C 
ENDBRANCH   1  35
TORSDOF 7
ENDMDL
MODEL 8
REMARK VINA RESULT:    -7.366      4.924      7.640
REMARK INTER + INTRA:         -11.662
REMARK INTER:                 -10.599
REMARK INTRA:                  -1.063
REMARK UNBOUND:                -1.283
REMARK  Name = 
REMARK  7 active torsions:
REMARK  status: ('A' for Active; 'I' for Inactive)
REMARK    1  A    between atoms: C_2  and  C_3
REMARK    2  A    between atoms: C_3  and  N_4
REMARK    3  A    between atoms: C_3  and  C_17
REMARK    4  A    between atoms: C_5  and  C_7
REMARK    5  A    between atoms: C_20  and  C_21
REMARK    6  A    between atoms: C_21  and  N_22
REMARK    7  A    between atoms: C_23  and  C_25
REMARK                            x       y       z     vdW  Elec       q    Type
REMARK                         _______ _______ _______ _____ _____    ______ ____
ROOT
ATOM      1  C   UNL     1      45.805   5.124  12.885  0.00  0.00    +0.000 C 
ENDROOT
BRANCH   1   2
ATOM      2  C   UNL     1      45.380   6.523  12.441  0.00  0.00    +0.000 A 
ATOM      3  C   UNL     1      46.000   7.655  12.998  0.00  0.00    +0.000 A 
ATOM      4  C   UNL     1      45.617   8.948  12.615  0.00  0.00    +0.000 A 
ATOM      5  C   UNL     1      44.590   9.142  11.682  0.00  0.00    +0.000 A 
ATOM      6  C   UNL     1      43.980   8.019  11.115  0.00  0.00    +0.000 A 
ATOM      7  C   UNL     1      44.353   6.728  11.503  0.00  0.00    +0.000 A 
BRANCH   5   8
ATOM      8  C   UNL     1      44.135  10.526  11.294  0.00  0.00    +0.000 C 
BRANCH   8   9
ATOM      9  N   UNL     1      42.898  10.889  11.940  0.00  0.00    +0.000 N 
ATOM     10  C   UNL     1      41.704  10.860  11.252  0.00  0.00    +0.000 C 
ATOM     11  O   UNL     1      41.609  10.520  10.075  0.00  0.00    +0.000 OA
ATOM     12  H   UNL     1      42.893  10.968  12.947  0.00  0.00    +0.000 HD
BRANCH  10  13
ATOM     13  C   UNL     1      40.492  11.243  12.028  0.00  0.00    +0.000 A 
ATOM     14  C   UNL     1      40.580  12.148  13.096  0.00  0.00    +0.000 A 
ATOM     15  C   UNL     1      39.438  12.484  13.824  0.00  0.00    +0.000 A 
ATOM     16  C   UNL     1      38.206  11.930  13.484  0.00  0.00    +0.000 A 
ATOM     17  C   UNL     1      38.107  11.049  12.408  0.00  0.00    +0.000 A 
ATOM     18  C   UNL     1      39.249  10.707  11.674  0.00  0.00    +0.000 A 
ENDBRANCH  10  13
ENDBRANCH   8   9
ENDBRANCH   5   8
ENDBRANCH   1   2
BRANCH   1  19
ATOM     19  N   UNL     1      46.453   5.200  14.187  0.00  0.00    +0.000 N 
ATOM     20  C   UNL     1      47.160   4.141  14.693  0.00  0.00    +0.000 C 
ATOM     21  O   UNL     1      47.321   3.119  14.031  0.00  0.00    +0.000 OA
ATOM     22  H   UNL     1      46.266   6.022  14.754  0.00  0.00    +0.000 HD
BRANCH  20  23
ATOM     23  C   UNL     1      47.728   4.271  16.046  0.00  0.00    +0.000 A 
ATOM     24  C   UNL     1      47.421   3.312  17.003  0.00  0.00    +0.000 A 
ATOM     25  S   UNL     1      48.124   3.605  18.530  0.00  0.00    +0.000 S 
ATOM     26  C   UNL     1      48.852   5.038  17.976  0.00  0.00    +0.000 A 
ATOM     27  N   UNL     1      49.585   5.814  18.818  0.00  0.00    +0.000 NA
ATOM     28  C   UNL     1      50.072   6.880  18.276  0.00  0.00    +0.000 A 
ATOM     29  N   UNL     1      49.907   7.229  16.961  0.00  0.00    +0.000 N 
ATOM     30  C   UNL     1      49.197   6.463  16.067  0.00  0.00    +0.000 A 
ATOM     31  O   UNL     1      49.097   6.788  14.889  0.00  0.00    +0.000 OA
ATOM     32  C   UNL     1      48.592   5.272  16.635  0.00  0.00    +0.000 A 
ATOM     33  H   UNL     1      50.328   8.070  16.595  0.00  0.00    +0.000 HD
ENDBRANCH  20  23
ENDBRANCH   1  19
BRANCH   1  35
ATOM     34  N   UNL     1      43.774   3.422  12.943  0.00  0.00    +0.000 NA
ATOM     35  C   UNL     1      44.671   4.159  12.896  0.00  0.00    +0.000 C 
ENDBRANCH   1  35
TORSDOF 7
ENDMDL
MODEL 9
REMARK VINA RESULT:    -7.033      4.957      7.767
REMARK INTER + INTRA:         -11.193
REMARK INTER:                 -10.157
REMARK INTRA:                  -1.036
REMARK UNBOUND:                -1.283
REMARK  Name = 
REMARK  7 active torsions:
REMARK  status: ('A' for Active; 'I' for Inactive)
REMARK    1  A    between atoms: C_2  and  C_3
REMARK    2  A    between atoms: C_3  and  N_4
REMARK    3  A    between atoms: C_3  and  C_17
REMARK    4  A    between atoms: C_5  and  C_7
REMARK    5  A    between atoms: C_20  and  C_21
REMARK    6  A    between atoms: C_21  and  N_22
REMARK    7  A    between atoms: C_23  and  C_25
REMARK                            x       y       z     vdW  Elec       q    Type
REMARK                         _______ _______ _______ _____ _____    ______ ____
ROOT
ATOM      1  C   UNL     1      46.217   5.581  12.885  0.00  0.00    +0.000 C 
ENDROOT
BRANCH   1   2
ATOM      2  C   UNL     1      45.541   6.862  12.396  0.00  0.00    +0.000 A 
ATOM      3  C   UNL     1      45.955   8.108  12.895  0.00  0.00    +0.000 A 
ATOM      4  C   UNL     1      45.341   9.295  12.471  0.00  0.00    +0.000 A 
ATOM      5  C   UNL     1      44.283   9.263  11.555  0.00  0.00    +0.000 A 
ATOM      6  C   UNL     1      43.876   8.026  11.044  0.00  0.00    +0.000 A 
ATOM      7  C   UNL     1      44.480   6.840  11.474  0.00  0.00    +0.000 A 
BRANCH   5   8
ATOM      8  C   UNL     1      43.581  10.525  11.123  0.00  0.00    +0.000 C 
BRANCH   8   9
ATOM      9  N   UNL     1      42.150  10.429  11.278  0.00  0.00    +0.000 N 
ATOM     10  C   UNL     1      41.438  11.419  11.921  0.00  0.00    +0.000 C 
ATOM     11  O   UNL     1      41.956  12.432  12.385  0.00  0.00    +0.000 OA
ATOM     12  H   UNL     1      41.660   9.732  10.736  0.00  0.00    +0.000 HD
BRANCH  10  13
ATOM     13  C   UNL     1      39.966  11.216  12.007  0.00  0.00    +0.000 A 
ATOM     14  C   UNL     1      39.325  10.261  11.204  0.00  0.00    +0.000 A 
ATOM     15  C   UNL     1      37.942  10.094  11.284  0.00  0.00    +0.000 A 
ATOM     16  C   UNL     1      37.197  10.867  12.171  0.00  0.00    +0.000 A 
ATOM     17  C   UNL     1      37.830  11.801  12.991  0.00  0.00    +0.000 A 
ATOM     18  C   UNL     1      39.218  11.973  12.914  0.00  0.00    +0.000 A 
ENDBRANCH  10  13
ENDBRANCH   8   9
ENDBRANCH   5   8
ENDBRANCH   1   2
BRANCH   1  19
ATOM     19  N   UNL     1      46.759   5.792  14.220  0.00  0.00    +0.000 N 
ATOM     20  C   UNL     1      48.089   6.051  14.416  0.00  0.00    +0.000 C 
ATOM     21  O   UNL     1      48.852   6.178  13.461  0.00  0.00    +0.000 OA
ATOM     22  H   UNL     1      46.137   5.626  15.007  0.00  0.00    +0.000 HD
BRANCH  20  23
ATOM     23  C   UNL     1      48.573   6.185  15.801  0.00  0.00    +0.000 A 
ATOM     24  C   UNL     1      49.352   7.283  16.142  0.00  0.00    +0.000 A 
ATOM     25  S   UNL     1      49.864   7.293  17.769  0.00  0.00    +0.000 S 
ATOM     26  C   UNL     1      49.079   5.817  18.077  0.00  0.00    +0.000 A 
ATOM     27  N   UNL     1      49.158   5.233  19.302  0.00  0.00    +0.000 NA
ATOM     28  C   UNL     1      48.529   4.110  19.401  0.00  0.00    +0.000 A 
ATOM     29  N   UNL     1      47.811   3.529  18.389  0.00  0.00    +0.000 N 
ATOM     30  C   UNL     1      47.682   4.095  17.143  0.00  0.00    +0.000 A 
ATOM     31  O   UNL     1      47.004   3.563  16.269  0.00  0.00    +0.000 OA
ATOM     32  C   UNL     1      48.406   5.340  16.964  0.00  0.00    +0.000 A 
ATOM     33  H   UNL     1      47.328   2.655  18.537  0.00  0.00    +0.000 HD
ENDBRANCH  20  23
ENDBRANCH   1  19
BRANCH   1  35
ATOM     34  N   UNL     1      44.588   3.490  12.858  0.00  0.00    +0.000 NA
ATOM     35  C   UNL     1      45.306   4.404  12.846  0.00  0.00    +0.000 C 
ENDBRANCH   1  35
TORSDOF 7
ENDMDL
