MODEL 1
REMARK VINA RESULT:    -7.973      0.000      0.000
REMARK INTER + INTRA:         -11.297
REMARK INTER:                 -10.304
REMARK INTRA:                  -0.993
REMARK UNBOUND:                -0.993
REMARK  Name = 
REMARK  6 active torsions:
REMARK  status: ('A' for Active; 'I' for Inactive)
REMARK    1  A    between atoms: C_1  and  C_2
REMARK    2  A    between atoms: N_4  and  C_5
REMARK    3  A    between atoms: C_9  and  C_10
REMARK    4  A    between atoms: C_10  and  C_11
REMARK    5  A    between atoms: C_11  and  N_12
REMARK    6  A    between atoms: C_16  and  C_17
REMARK                            x       y       z     vdW  Elec       q    Type
REMARK                         _______ _______ _______ _____ _____    ______ ____
ROOT
ATOM      1  C   UNL     1      43.272   5.334  12.271  0.00  0.00    +0.000 C 
ENDROOT
BRANCH   1   6
ATOM      2  C   UNL     1      46.711   6.667  13.344  0.00  0.00    +0.000 A 
ATOM      3  C   UNL     1      47.327   5.459  13.703  0.00  0.00    +0.000 A 
ATOM      4  C   UNL     1      46.672   4.230  13.576  0.00  0.00    +0.000 A 
ATOM      5  C   UNL     1      45.367   4.178  13.094  0.00  0.00    +0.000 A 
ATOM      6  C   UNL     1      44.716   5.355  12.722  0.00  0.00    +0.000 A 
ATOM      7  C   UNL     1      45.401   6.579  12.842  0.00  0.00    +0.000 A 
BRANCH   2  11
ATOM      8  C   UNL     1      49.919   7.643  11.607  0.00  0.00    +0.000 C 
ATOM      9  C   UNL     1      49.664   8.604  12.772  0.00  0.00    +0.000 C 
ATOM     10  C   UNL     1      48.787   7.960  13.880  0.00  0.00    +0.000 C 
ATOM     11  N   UNL     1      47.376   7.872  13.480  0.00  0.00    +0.000 N 
ATOM     12  C   UNL     1      46.795   9.118  12.953  0.00  0.00    +0.000 C 
ATOM     13  C   UNL     1      47.714   9.747  11.879  0.00  0.00    +0.000 C 
ATOM     14  N   UNL     1      49.126   9.902  12.292  0.00  0.00    +0.000 NA
ATOM     15  H   UNL     1      49.141  10.547  13.082  0.00  0.00    +0.000 HD
ENDBRANCH   2  11
ENDBRANCH   1   6
BRANCH   1  16
ATOM     16  C   UNL     1      43.102   4.475  11.013  0.00  0.00    +0.000 C 
BRANCH  16  17
ATOM     17  N   UNL     1      43.900   4.998   9.895  0.00  0.00    +0.000 N 
ATOM     18  C   UNL     1      44.684   4.002   9.279  0.00  0.00    +0.000 A 
ATOM     19  C   UNL     1      45.499   4.349   8.203  0.00  0.00    +0.000 A 
ATOM     20  C   UNL     1      46.265   3.361   7.574  0.00  0.00    +0.000 A 
ATOM     21  C   UNL     1      46.206   2.043   8.027  0.00  0.00    +0.000 A 
ATOM     22  C   UNL     1      45.365   1.787   9.094  0.00  0.00    +0.000 A 
ATOM     23  N   UNL     1      44.613   2.728   9.714  0.00  0.00    +0.000 NA
ATOM     24  H   UNL     1      44.511   5.760  10.179  0.00  0.00    +0.000 HD
BRANCH  21  25
ATOM     25  C   UNL     1      47.026   0.997   7.368  0.00  0.00    +0.000 C 
ATOM     26  N   UNL     1      47.944   1.369   6.424  0.00  0.00    +0.000 N 
ATOM     27  O   UNL     1      46.889  -0.186   7.655  0.00  0.00    +0.000 OA
ATOM     28  H   UNL     1      48.145   2.309   6.124  0.00  0.00    +0.000 HD
ATOM     29  H   UNL     1      48.486   0.623   6.002  0.00  0.00    +0.000 HD
ENDBRANCH  21  25
ENDBRANCH  16  17
ENDBRANCH   1  16
TORSDOF 5
ENDMDL
MODEL 2
REMARK VINA RESULT:    -6.911      1.143      1.934
REMARK INTER + INTRA:          -9.924
REMARK INTER:                  -9.609
REMARK INTRA:                  -0.315
REMARK UNBOUND:                -0.993
REMARK  Name = 
REMARK  6 active torsions:
REMARK  status: ('A' for Active; 'I' for Inactive)
REMARK    1  A    between atoms: C_1  and  C_2
REMARK    2  A    between atoms: N_4  and  C_5
REMARK    3  A    between atoms: C_9  and  C_10
REMARK    4  A    between atoms: C_10  and  C_11
REMARK    5  A    between atoms: C_11  and  N_12
REMARK    6  A    between atoms: C_16  and  C_17
REMARK                            x       y       z     vdW  Elec       q    Type
REMARK                         _______ _______ _______ _____ _____    ______ ____
ROOT
ATOM      1  C   UNL     1      43.719   4.860  12.387  0.00  0.00    +0.000 C 
ENDROOT
BRANCH   1   6
ATOM      2  C   UNL     1      46.940   6.939  12.628  0.00  0.00    +0.000 A 
ATOM      3  C   UNL     1      46.463   8.165  12.141  0.00  0.00    +0.000 A 
ATOM      4  C   UNL     1      45.126   8.342  11.769  0.00  0.00    +0.000 A 
ATOM      5  C   UNL     1      44.226   7.284  11.865  0.00  0.00    +0.000 A 
ATOM      6  C   UNL     1      44.656   6.047  12.348  0.00  0.00    +0.000 A 
ATOM      7  C   UNL     1      46.003   5.897  12.732  0.00  0.00    +0.000 A 
BRANCH   2  11
ATOM      8  C   UNL     1      49.731   9.387  11.934  0.00  0.00    +0.000 C 
ATOM      9  C   UNL     1      50.333   8.033  12.320  0.00  0.00    +0.000 C 
ATOM     10  C   UNL     1      49.367   6.856  12.016  0.00  0.00    +0.000 C 
ATOM     11  N   UNL     1      48.266   6.785  12.987  0.00  0.00    +0.000 N 
ATOM     12  C   UNL     1      48.674   6.830  14.402  0.00  0.00    +0.000 C 
ATOM     13  C   UNL     1      49.663   7.992  14.656  0.00  0.00    +0.000 C 
ATOM     14  N   UNL     1      50.812   8.038  13.726  0.00  0.00    +0.000 NA
ATOM     15  H   UNL     1      51.349   7.181  13.866  0.00  0.00    +0.000 HD
ENDBRANCH   2  11
ENDBRANCH   1   6
BRANCH   1  16
ATOM     16  C   UNL     1      43.184   4.537  10.988  0.00  0.00    +0.000 C 
BRANCH  16  17
ATOM     17  N   UNL     1      44.081   5.045   9.940  0.00  0.00    +0.000 N 
ATOM     18  C   UNL     1      44.808   4.018   9.307  0.00  0.00    +0.000 A 
ATOM     19  C   UNL     1      45.704   4.348   8.292  0.00  0.00    +0.000 A 
ATOM     20  C   UNL     1      46.416   3.331   7.645  0.00  0.00    +0.000 A 
ATOM     21  C   UNL     1      46.223   2.002   8.020  0.00  0.00    +0.000 A 
ATOM     22  C   UNL     1      45.309   1.765   9.030  0.00  0.00    +0.000 A 
ATOM     23  N   UNL     1      44.607   2.735   9.666  0.00  0.00    +0.000 NA
ATOM     24  H   UNL     1      44.738   5.735  10.295  0.00  0.00    +0.000 HD
BRANCH  21  25
ATOM     25  C   UNL     1      46.984   0.923   7.342  0.00  0.00    +0.000 C 
ATOM     26  N   UNL     1      47.782   1.241   6.277  0.00  0.00    +0.000 N 
ATOM     27  O   UNL     1      46.905  -0.239   7.722  0.00  0.00    +0.000 OA
ATOM     28  H   UNL     1      47.927   2.162   5.894  0.00  0.00    +0.000 HD
ATOM     29  H   UNL     1      48.288   0.476   5.847  0.00  0.00    +0.000 HD
ENDBRANCH  21  25
ENDBRANCH  16  17
ENDBRANCH   1  16
TORSDOF 5
ENDMDL
MODEL 3
REMARK VINA RESULT:    -6.887      3.295      7.451
REMARK INTER + INTRA:          -9.894
REMARK INTER:                  -8.905
REMARK INTRA:                  -0.989
REMARK UNBOUND:                -0.993
REMARK  Name = 
REMARK  6 active torsions:
REMARK  status: ('A' for Active; 'I' for Inactive)
REMARK    1  A    between atoms: C_1  and  C_2
REMARK    2  A    between atoms: N_4  and  C_5
REMARK    3  A    between atoms: C_9  and  C_10
REMARK    4  A    between atoms: C_10  and  C_11
REMARK    5  A    between atoms: C_11  and  N_12
REMARK    6  A    between atoms: C_16  and  C_17
REMARK                            x       y       z     vdW  Elec       q    Type
REMARK                         _______ _______ _______ _____ _____    ______ ____
ROOT
ATOM      1  C   UNL     1      48.114   8.860  12.908  0.00  0.00    +0.000 C 
ENDROOT
BRANCH   1   6
ATOM      2  C   UNL     1      44.874   7.010  11.994  0.00  0.00    +0.000 A 
ATOM      3  C   UNL     1      44.139   8.078  11.460  0.00  0.00    +0.000 A 
ATOM      4  C   UNL     1      44.674   9.367  11.360  0.00  0.00    +0.000 A 
ATOM      5  C   UNL     1      45.967   9.624  11.807  0.00  0.00    +0.000 A 
ATOM      6  C   UNL     1      46.737   8.590  12.342  0.00  0.00    +0.000 A 
ATOM      7  C   UNL     1      46.183   7.298  12.417  0.00  0.00    +0.000 A 
BRANCH   2  11
ATOM      8  C   UNL     1      45.001   4.332   9.334  0.00  0.00    +0.000 C 
ATOM      9  C   UNL     1      43.930   3.967  10.366  0.00  0.00    +0.000 C 
ATOM     10  C   UNL     1      43.372   5.217  11.098  0.00  0.00    +0.000 C 
ATOM     11  N   UNL     1      44.324   5.744  12.086  0.00  0.00    +0.000 N 
ATOM     12  C   UNL     1      44.878   4.747  13.016  0.00  0.00    +0.000 C 
ATOM     13  C   UNL     1      45.389   3.502  12.253  0.00  0.00    +0.000 C 
ATOM     14  N   UNL     1      44.417   2.921  11.301  0.00  0.00    +0.000 NA
ATOM     15  H   UNL     1      43.614   2.602  11.844  0.00  0.00    +0.000 HD
ENDBRANCH   2  11
ENDBRANCH   1   6
BRANCH   1  16
ATOM     16  C   UNL     1      48.896   7.555  13.095  0.00  0.00    +0.000 C 
BRANCH  16  17
ATOM     17  N   UNL     1      49.579   7.522  14.396  0.00  0.00    +0.000 N 
ATOM     18  C   UNL     1      49.074   6.517  15.246  0.00  0.00    +0.000 A 
ATOM     19  C   UNL     1      49.623   6.366  16.518  0.00  0.00    +0.000 A 
ATOM     20  C   UNL     1      49.139   5.357  17.360  0.00  0.00    +0.000 A 
ATOM     21  C   UNL     1      48.118   4.515  16.919  0.00  0.00    +0.000 A 
ATOM     22  C   UNL     1      47.639   4.732  15.640  0.00  0.00    +0.000 A 
ATOM     23  N   UNL     1      48.095   5.700  14.809  0.00  0.00    +0.000 NA
ATOM     24  H   UNL     1      49.527   8.413  14.884  0.00  0.00    +0.000 HD
BRANCH  21  25
ATOM     25  C   UNL     1      47.597   3.453  17.815  0.00  0.00    +0.000 C 
ATOM     26  N   UNL     1      48.249   3.195  18.989  0.00  0.00    +0.000 N 
ATOM     27  O   UNL     1      46.600   2.807  17.514  0.00  0.00    +0.000 OA
ATOM     28  H   UNL     1      49.066   3.672  19.337  0.00  0.00    +0.000 HD
ATOM     29  H   UNL     1      47.857   2.465  19.573  0.00  0.00    +0.000 HD
ENDBRANCH  21  25
ENDBRANCH  16  17
ENDBRANCH   1  16
TORSDOF 5
ENDMDL
MODEL 4
REMARK VINA RESULT:    -6.835      3.219      7.581
REMARK INTER + INTRA:          -9.826
REMARK INTER:                  -8.915
REMARK INTRA:                  -0.910
REMARK UNBOUND:                -0.993
REMARK  Name = 
REMARK  6 active torsions:
REMARK  status: ('A' for Active; 'I' for Inactive)
REMARK    1  A    between atoms: C_1  and  C_2
REMARK    2  A    between atoms: N_4  and  C_5
REMARK    3  A    between atoms: C_9  and  C_10
REMARK    4  A    between atoms: C_10  and  C_11
REMARK    5  A    between atoms: C_11  and  N_12
REMARK    6  A    between atoms: C_16  and  C_17
REMARK                            x       y       z     vdW  Elec       q    Type
REMARK                         _______ _______ _______ _____ _____    ______ ____
ROOT
ATOM      1  C   UNL     1      49.242   8.715  12.117  0.00  0.00    +0.000 C 
ENDROOT
BRANCH   1   6
ATOM      2  C   UNL     1      46.024   6.663  11.682  0.00  0.00    +0.000 A 
ATOM      3  C   UNL     1      45.074   7.659  11.955  0.00  0.00    +0.000 A 
ATOM      4  C   UNL     1      45.447   8.976  12.243  0.00  0.00    +0.000 A 
ATOM      5  C   UNL     1      46.793   9.331  12.277  0.00  0.00    +0.000 A 
ATOM      6  C   UNL     1      47.771   8.374  12.008  0.00  0.00    +0.000 A 
ATOM      7  C   UNL     1      47.372   7.059  11.704  0.00  0.00    +0.000 A 
BRANCH   2  11
ATOM      8  C   UNL     1      42.821   5.012  12.815  0.00  0.00    +0.000 C 
ATOM      9  C   UNL     1      43.801   3.937  12.336  0.00  0.00    +0.000 C 
ATOM     10  C   UNL     1      45.279   4.399  12.450  0.00  0.00    +0.000 C 
ATOM     11  N   UNL     1      45.633   5.367  11.402  0.00  0.00    +0.000 N 
ATOM     12  C   UNL     1      45.270   4.968  10.032  0.00  0.00    +0.000 C 
ATOM     13  C   UNL     1      43.804   4.480   9.966  0.00  0.00    +0.000 C 
ATOM     14  N   UNL     1      43.450   3.457  10.975  0.00  0.00    +0.000 NA
ATOM     15  H   UNL     1      44.024   2.634  10.786  0.00  0.00    +0.000 HD
ENDBRANCH   2  11
ENDBRANCH   1   6
BRANCH   1  16
ATOM     16  C   UNL     1      50.022   7.576  12.783  0.00  0.00    +0.000 C 
BRANCH  16  17
ATOM     17  N   UNL     1      50.260   7.852  14.207  0.00  0.00    +0.000 N 
ATOM     18  C   UNL     1      49.490   7.029  15.053  0.00  0.00    +0.000 A 
ATOM     19  C   UNL     1      49.607   7.177  16.434  0.00  0.00    +0.000 A 
ATOM     20  C   UNL     1      48.858   6.351  17.280  0.00  0.00    +0.000 A 
ATOM     21  C   UNL     1      48.007   5.389  16.737  0.00  0.00    +0.000 A 
ATOM     22  C   UNL     1      47.959   5.306  15.357  0.00  0.00    +0.000 A 
ATOM     23  N   UNL     1      48.678   6.094  14.521  0.00  0.00    +0.000 NA
ATOM     24  H   UNL     1      50.080   8.823  14.449  0.00  0.00    +0.000 HD
BRANCH  21  25
ATOM     25  C   UNL     1      47.205   4.520  17.633  0.00  0.00    +0.000 C 
ATOM     26  N   UNL     1      47.003   4.907  18.929  0.00  0.00    +0.000 N 
ATOM     27  O   UNL     1      46.729   3.466  17.228  0.00  0.00    +0.000 OA
ATOM     28  H   UNL     1      47.338   5.756  19.358  0.00  0.00    +0.000 HD
ATOM     29  H   UNL     1      46.446   4.287  19.505  0.00  0.00    +0.000 HD
ENDBRANCH  21  25
ENDBRANCH  16  17
ENDBRANCH   1  16
TORSDOF 5
ENDMDL
MODEL 5
REMARK VINA RESULT:    -6.584      3.645      6.092
REMARK INTER + INTRA:          -9.501
REMARK INTER:                  -8.580
REMARK INTRA:                  -0.922
REMARK UNBOUND:                -0.993
REMARK  Name = 
REMARK  6 active torsions:
REMARK  status: ('A' for Active; 'I' for Inactive)
REMARK    1  A    between atoms: C_1  and  C_2
REMARK    2  A    between atoms: N_4  and  C_5
REMARK    3  A    between atoms: C_9  and  C_10
REMARK    4  A    between atoms: C_10  and  C_11
REMARK    5  A    between atoms: C_11  and  N_12
REMARK    6  A    between atoms: C_16  and  C_17
REMARK                            x       y       z     vdW  Elec       q    Type
REMARK                         _______ _______ _______ _____ _____    ______ ____
ROOT
ATOM      1  C   UNL     1      49.278   8.309  13.404  0.00  0.00    +0.000 C 
ENDROOT
BRANCH   1   6
ATOM      2  C   UNL     1      49.403   6.131  16.565  0.00  0.00    +0.000 A 
ATOM      3  C   UNL     1      50.773   6.217  16.853  0.00  0.00    +0.000 A 
ATOM      4  C   UNL     1      51.646   6.982  16.072  0.00  0.00    +0.000 A 
ATOM      5  C   UNL     1      51.166   7.680  14.967  0.00  0.00    +0.000 A 
ATOM      6  C   UNL     1      49.809   7.626  14.645  0.00  0.00    +0.000 A 
ATOM      7  C   UNL     1      48.947   6.863  15.456  0.00  0.00    +0.000 A 
BRANCH   2  11
ATOM      8  C   UNL     1      49.783   2.446  17.302  0.00  0.00    +0.000 C 
ATOM      9  C   UNL     1      48.363   2.890  17.667  0.00  0.00    +0.000 C 
ATOM     10  C   UNL     1      47.914   4.139  16.862  0.00  0.00    +0.000 C 
ATOM     11  N   UNL     1      48.559   5.366  17.349  0.00  0.00    +0.000 N 
ATOM     12  C   UNL     1      48.485   5.577  18.805  0.00  0.00    +0.000 C 
ATOM     13  C   UNL     1      48.904   4.300  19.572  0.00  0.00    +0.000 C 
ATOM     14  N   UNL     1      48.215   3.066  19.134  0.00  0.00    +0.000 NA
ATOM     15  H   UNL     1      47.220   3.190  19.326  0.00  0.00    +0.000 HD
ENDBRANCH   2  11
ENDBRANCH   1   6
BRANCH   1  16
ATOM     16  C   UNL     1      47.750   8.215  13.337  0.00  0.00    +0.000 C 
BRANCH  16  17
ATOM     17  N   UNL     1      47.295   7.838  11.991  0.00  0.00    +0.000 N 
ATOM     18  C   UNL     1      46.517   6.663  11.993  0.00  0.00    +0.000 A 
ATOM     19  C   UNL     1      46.017   6.179  10.786  0.00  0.00    +0.000 A 
ATOM     20  C   UNL     1      45.228   5.022  10.783  0.00  0.00    +0.000 A 
ATOM     21  C   UNL     1      44.950   4.368  11.983  0.00  0.00    +0.000 A 
ATOM     22  C   UNL     1      45.481   4.922  13.133  0.00  0.00    +0.000 A 
ATOM     23  N   UNL     1      46.243   6.042  13.158  0.00  0.00    +0.000 NA
ATOM     24  H   UNL     1      48.067   7.713  11.342  0.00  0.00    +0.000 HD
BRANCH  21  25
ATOM     25  C   UNL     1      44.123   3.136  11.980  0.00  0.00    +0.000 C 
ATOM     26  N   UNL     1      43.982   2.433  10.814  0.00  0.00    +0.000 N 
ATOM     27  O   UNL     1      43.568   2.746  13.000  0.00  0.00    +0.000 OA
ATOM     28  H   UNL     1      44.403   2.657   9.927  0.00  0.00    +0.000 HD
ATOM     29  H   UNL     1      43.413   1.595  10.858  0.00  0.00    +0.000 HD
ENDBRANCH  21  25
ENDBRANCH  16  17
ENDBRANCH   1  16
TORSDOF 5
ENDMDL
MODEL 6
REMARK VINA RESULT:    -6.266      4.096      7.056
REMARK INTER + INTRA:          -9.090
REMARK INTER:                  -8.054
REMARK INTRA:                  -1.037
REMARK UNBOUND:                -0.993
REMARK  Name = 
REMARK  6 active torsions:
REMARK  status: ('A' for Active; 'I' for Inactive)
REMARK    1  A    between atoms: C_1  and  C_2
REMARK    2  A    between atoms: N_4  and  C_5
REMARK    3  A    between atoms: C_9  and  C_10
REMARK    4  A    between atoms: C_10  and  C_11
REMARK    5  A    between atoms: C_11  and  N_12
REMARK    6  A    between atoms: C_16  and  C_17
REMARK                            x       y       z     vdW  Elec       q    Type
REMARK                         _______ _______ _______ _____ _____    ______ ____
ROOT
ATOM      1  C   UNL     1      50.303   8.163  15.026  0.00  0.00    +0.000 C 
ENDROOT
BRANCH   1   6
ATOM      2  C   UNL     1      48.183   7.075  18.039  0.00  0.00    +0.000 A 
ATOM      3  C   UNL     1      47.852   8.336  18.558  0.00  0.00    +0.000 A 
ATOM      4  C   UNL     1      48.269   9.521  17.943  0.00  0.00    +0.000 A 
ATOM      5  C   UNL     1      49.045   9.474  16.788  0.00  0.00    +0.000 A 
ATOM      6  C   UNL     1      49.395   8.242  16.234  0.00  0.00    +0.000 A 
ATOM      7  C   UNL     1      48.949   7.063  16.861  0.00  0.00    +0.000 A 
BRANCH   2  11
ATOM      8  C   UNL     1      49.814   3.680  17.766  0.00  0.00    +0.000 C 
ATOM      9  C   UNL     1      48.407   3.518  18.347  0.00  0.00    +0.000 C 
ATOM     10  C   UNL     1      47.464   4.679  17.930  0.00  0.00    +0.000 C 
ATOM     11  N   UNL     1      47.762   5.917  18.665  0.00  0.00    +0.000 N 
ATOM     12  C   UNL     1      47.863   5.769  20.127  0.00  0.00    +0.000 C 
ATOM     13  C   UNL     1      48.781   4.581  20.501  0.00  0.00    +0.000 C 
ATOM     14  N   UNL     1      48.452   3.311  19.817  0.00  0.00    +0.000 NA
ATOM     15  H   UNL     1      47.514   3.041  20.114  0.00  0.00    +0.000 HD
ENDBRANCH   2  11
ENDBRANCH   1   6
BRANCH   1  16
ATOM     16  C   UNL     1      49.670   7.315  13.917  0.00  0.00    +0.000 C 
BRANCH  16  17
ATOM     17  N   UNL     1      48.522   8.001  13.307  0.00  0.00    +0.000 N 
ATOM     18  C   UNL     1      47.377   7.183  13.239  0.00  0.00    +0.000 A 
ATOM     19  C   UNL     1      46.209   7.696  12.680  0.00  0.00    +0.000 A 
ATOM     20  C   UNL     1      45.062   6.895  12.626  0.00  0.00    +0.000 A 
ATOM     21  C   UNL     1      45.099   5.595  13.130  0.00  0.00    +0.000 A 
ATOM     22  C   UNL     1      46.297   5.171  13.674  0.00  0.00    +0.000 A 
ATOM     23  N   UNL     1      47.417   5.932  13.739  0.00  0.00    +0.000 NA
ATOM     24  H   UNL     1      48.729   8.346  12.373  0.00  0.00    +0.000 HD
BRANCH  21  25
ATOM     25  C   UNL     1      43.887   4.741  13.064  0.00  0.00    +0.000 C 
ATOM     26  N   UNL     1      42.655   5.336  13.045  0.00  0.00    +0.000 N 
ATOM     27  O   UNL     1      43.978   3.520  13.030  0.00  0.00    +0.000 OA
ATOM     28  H   UNL     1      42.469   6.326  13.056  0.00  0.00    +0.000 HD
ATOM     29  H   UNL     1      41.855   4.716  12.994  0.00  0.00    +0.000 HD
ENDBRANCH  21  25
ENDBRANCH  16  17
ENDBRANCH   1  16
TORSDOF 5
ENDMDL
MODEL 7
REMARK VINA RESULT:    -6.001      3.725      7.890
REMARK INTER + INTRA:          -8.748
REMARK INTER:                  -8.353
REMARK INTRA:                  -0.396
REMARK UNBOUND:                -0.993
REMARK  Name = 
REMARK  6 active torsions:
REMARK  status: ('A' for Active; 'I' for Inactive)
REMARK    1  A    between atoms: C_1  and  C_2
REMARK    2  A    between atoms: N_4  and  C_5
REMARK    3  A    between atoms: C_9  and  C_10
REMARK    4  A    between atoms: C_10  and  C_11
REMARK    5  A    between atoms: C_11  and  N_12
REMARK    6  A    between atoms: C_16  and  C_17
REMARK                            x       y       z     vdW  Elec       q    Type
REMARK                         _______ _______ _______ _____ _____    ______ ____
ROOT
ATOM      1  C   UNL     1      47.132   6.866  11.799  0.00  0.00    +0.000 C 
ENDROOT
BRANCH   1   6
ATOM      2  C   UNL     1      44.549   4.570  10.122  0.00  0.00    +0.000 A 
ATOM      3  C   UNL     1      43.411   4.921  10.863  0.00  0.00    +0.000 A 
ATOM      4  C   UNL     1      43.452   5.898  11.863  0.00  0.00    +0.000 A 
ATOM      5  C   UNL     1      44.648   6.547  12.159  0.00  0.00    +0.000 A 
ATOM      6  C   UNL     1      45.805   6.233  11.444  0.00  0.00    +0.000 A 
ATOM      7  C   UNL     1      45.735   5.259  10.430  0.00  0.00    +0.000 A 
BRANCH   2  11
ATOM      8  C   UNL     1      47.054   4.052   7.344  0.00  0.00    +0.000 C 
ATOM      9  C   UNL     1      45.765   3.296   7.008  0.00  0.00    +0.000 C 
ATOM     10  C   UNL     1      44.524   3.917   7.705  0.00  0.00    +0.000 C 
ATOM     11  N   UNL     1      44.486   3.600   9.140  0.00  0.00    +0.000 N 
ATOM     12  C   UNL     1      44.666   2.177   9.472  0.00  0.00    +0.000 C 
ATOM     13  C   UNL     1      45.889   1.586   8.731  0.00  0.00    +0.000 C 
ATOM     14  N   UNL     1      45.909   1.842   7.274  0.00  0.00    +0.000 NA
ATOM     15  H   UNL     1      45.092   1.379   6.874  0.00  0.00    +0.000 HD
ENDBRANCH   2  11
ENDBRANCH   1   6
BRANCH   1  16
ATOM     16  C   UNL     1      47.458   6.662  13.283  0.00  0.00    +0.000 C 
BRANCH  16  17
ATOM     17  N   UNL     1      47.061   5.323  13.740  0.00  0.00    +0.000 N 
ATOM     18  C   UNL     1      47.591   5.005  15.006  0.00  0.00    +0.000 A 
ATOM     19  C   UNL     1      47.303   3.764  15.570  0.00  0.00    +0.000 A 
ATOM     20  C   UNL     1      47.811   3.449  16.836  0.00  0.00    +0.000 A 
ATOM     21  C   UNL     1      48.597   4.376  17.520  0.00  0.00    +0.000 A 
ATOM     22  C   UNL     1      48.825   5.585  16.889  0.00  0.00    +0.000 A 
ATOM     23  N   UNL     1      48.340   5.911  15.666  0.00  0.00    +0.000 NA
ATOM     24  H   UNL     1      47.332   4.594  13.084  0.00  0.00    +0.000 HD
BRANCH  21  25
ATOM     25  C   UNL     1      49.144   4.039  18.857  0.00  0.00    +0.000 C 
ATOM     26  N   UNL     1      48.395   3.273  19.708  0.00  0.00    +0.000 N 
ATOM     27  O   UNL     1      50.249   4.439  19.205  0.00  0.00    +0.000 OA
ATOM     28  H   UNL     1      47.485   2.885  19.518  0.00  0.00    +0.000 HD
ATOM     29  H   UNL     1      48.809   3.063  20.609  0.00  0.00    +0.000 HD
ENDBRANCH  21  25
ENDBRANCH  16  17
ENDBRANCH   1  16
TORSDOF 5
ENDMDL
MODEL 8
REMARK VINA RESULT:    -5.914      4.416      7.206
REMARK INTER + INTRA:          -8.636
REMARK INTER:                  -7.643
REMARK INTRA:                  -0.994
REMARK UNBOUND:                -0.993
REMARK  Name = 
REMARK  6 active torsions:
REMARK  status: ('A' for Active; 'I' for Inactive)
REMARK    1  A    between atoms: C_1  and  C_2
REMARK    2  A    between atoms: N_4  and  C_5
REMARK    3  A    between atoms: C_9  and  C_10
REMARK    4  A    between atoms: C_10  and  C_11
REMARK    5  A    between atoms: C_11  and  N_12
REMARK    6  A    between atoms: C_16  and  C_17
REMARK                            x       y       z     vdW  Elec       q    Type
REMARK                         _______ _______ _______ _____ _____    ______ ____
ROOT
ATOM      1  C   UNL     1      46.152   3.362  13.115  0.00  0.00    +0.000 C 
ENDROOT
BRANCH   1   6
ATOM      2  C   UNL     1      45.326   7.059  12.475  0.00  0.00    +0.000 A 
ATOM      3  C   UNL     1      44.404   6.913  11.429  0.00  0.00    +0.000 A 
ATOM      4  C   UNL     1      44.021   5.656  10.950  0.00  0.00    +0.000 A 
ATOM      5  C   UNL     1      44.566   4.501  11.504  0.00  0.00    +0.000 A 
ATOM      6  C   UNL     1      45.485   4.597  12.550  0.00  0.00    +0.000 A 
ATOM      7  C   UNL     1      45.842   5.873  13.027  0.00  0.00    +0.000 A 
BRANCH   2  11
ATOM      8  C   UNL     1      48.593   8.818  11.770  0.00  0.00    +0.000 C 
ATOM      9  C   UNL     1      47.891   9.510  12.942  0.00  0.00    +0.000 C 
ATOM     10  C   UNL     1      46.925   8.553  13.693  0.00  0.00    +0.000 C 
ATOM     11  N   UNL     1      45.691   8.312  12.932  0.00  0.00    +0.000 N 
ATOM     12  C   UNL     1      45.014   9.522  12.436  0.00  0.00    +0.000 C 
ATOM     13  C   UNL     1      46.015  10.465  11.727  0.00  0.00    +0.000 C 
ATOM     14  N   UNL     1      47.234  10.769  12.509  0.00  0.00    +0.000 NA
ATOM     15  H   UNL     1      46.937  11.262  13.352  0.00  0.00    +0.000 HD
ENDBRANCH   2  11
ENDBRANCH   1   6
BRANCH   1  16
ATOM     16  C   UNL     1      47.317   3.739  14.035  0.00  0.00    +0.000 C 
BRANCH  16  17
ATOM     17  N   UNL     1      46.966   3.550  15.450  0.00  0.00    +0.000 N 
ATOM     18  C   UNL     1      47.563   4.512  16.288  0.00  0.00    +0.000 A 
ATOM     19  C   UNL     1      47.324   4.458  17.660  0.00  0.00    +0.000 A 
ATOM     20  C   UNL     1      47.899   5.422  18.497  0.00  0.00    +0.000 A 
ATOM     21  C   UNL     1      48.702   6.424  17.952  0.00  0.00    +0.000 A 
ATOM     22  C   UNL     1      48.879   6.406  16.581  0.00  0.00    +0.000 A 
ATOM     23  N   UNL     1      48.329   5.484  15.754  0.00  0.00    +0.000 NA
ATOM     24  H   UNL     1      47.216   2.625  15.790  0.00  0.00    +0.000 HD
BRANCH  21  25
ATOM     25  C   UNL     1      49.321   7.440  18.839  0.00  0.00    +0.000 C 
ATOM     26  N   UNL     1      49.712   7.074  20.098  0.00  0.00    +0.000 N 
ATOM     27  O   UNL     1      49.481   8.595  18.460  0.00  0.00    +0.000 OA
ATOM     28  H   UNL     1      49.638   6.154  20.502  0.00  0.00    +0.000 HD
ATOM     29  H   UNL     1      50.134   7.798  20.668  0.00  0.00    +0.000 HD
ENDBRANCH  21  25
ENDBRANCH  16  17
ENDBRANCH   1  16
TORSDOF 5
ENDMDL
MODEL 9
REMARK VINA RESULT:    -5.727      4.641      6.126
REMARK INTER + INTRA:          -8.395
REMARK INTER:                  -7.691
REMARK INTRA:                  -0.704
REMARK UNBOUND:                -0.993
REMARK  Name = 
REMARK  6 active torsions:
REMARK  status: ('A' for Active; 'I' for Inactive)
REMARK    1  A    between atoms: C_1  and  C_2
REMARK    2  A    between atoms: N_4  and  C_5
REMARK    3  A    between atoms: C_9  and  C_10
REMARK    4  A    between atoms: C_10  and  C_11
REMARK    5  A    between atoms: C_11  and  N_12
REMARK    6  A    between atoms: C_16  and  C_17
REMARK                            x       y       z     vdW  Elec       q    Type
REMARK                         _______ _______ _______ _____ _____    ______ ____
ROOT
ATOM      1  C   UNL     1      46.946   4.214  17.271  0.00  0.00    +0.000 C 
ENDROOT
BRANCH   1   6
ATOM      2  C   UNL     1      50.100   5.789  18.796  0.00  0.00    +0.000 A 
ATOM      3  C   UNL     1      49.503   6.648  19.730  0.00  0.00    +0.000 A 
ATOM      4  C   UNL     1      48.115   6.707  19.899  0.00  0.00    +0.000 A 
ATOM      5  C   UNL     1      47.281   5.907  19.122  0.00  0.00    +0.000 A 
ATOM      6  C   UNL     1      47.832   5.034  18.183  0.00  0.00    +0.000 A 
ATOM      7  C   UNL     1      49.232   4.980  18.043  0.00  0.00    +0.000 A 
BRANCH   2  11
ATOM      8  C   UNL     1      52.053   7.140  15.859  0.00  0.00    +0.000 C 
ATOM      9  C   UNL     1      52.949   6.200  16.671  0.00  0.00    +0.000 C 
ATOM     10  C   UNL     1      52.128   5.153  17.471  0.00  0.00    +0.000 C 
ATOM     11  N   UNL     1      51.474   5.750  18.644  0.00  0.00    +0.000 N 
ATOM     12  C   UNL     1      52.352   6.557  19.508  0.00  0.00    +0.000 C 
ATOM     13  C   UNL     1      53.179   7.562  18.672  0.00  0.00    +0.000 C 
ATOM     14  N   UNL     1      53.896   6.964  17.524  0.00  0.00    +0.000 NA
ATOM     15  H   UNL     1      54.569   6.297  17.902  0.00  0.00    +0.000 HD
ENDBRANCH   2  11
ENDBRANCH   1   6
BRANCH   1  16
ATOM     16  C   UNL     1      47.526   4.149  15.854  0.00  0.00    +0.000 C 
BRANCH  16  17
ATOM     17  N   UNL     1      47.059   5.274  15.032  0.00  0.00    +0.000 N 
ATOM     18  C   UNL     1      46.411   4.851  13.855  0.00  0.00    +0.000 A 
ATOM     19  C   UNL     1      45.916   5.809  12.971  0.00  0.00    +0.000 A 
ATOM     20  C   UNL     1      45.255   5.396  11.809  0.00  0.00    +0.000 A 
ATOM     21  C   UNL     1      45.097   4.035  11.546  0.00  0.00    +0.000 A 
ATOM     22  C   UNL     1      45.612   3.155  12.480  0.00  0.00    +0.000 A 
ATOM     23  N   UNL     1      46.252   3.535  13.613  0.00  0.00    +0.000 NA
ATOM     24  H   UNL     1      47.814   5.906  14.777  0.00  0.00    +0.000 HD
BRANCH  21  25
ATOM     25  C   UNL     1      44.406   3.596  10.309  0.00  0.00    +0.000 C 
ATOM     26  N   UNL     1      44.374   2.263  10.002  0.00  0.00    +0.000 N 
ATOM     27  O   UNL     1      43.871   4.408   9.563  0.00  0.00    +0.000 OA
ATOM     28  H   UNL     1      44.769   1.515  10.549  0.00  0.00    +0.000 HD
ATOM     29  H   UNL     1      43.887   2.007   9.151  0.00  0.00    +0.000 HD
ENDBRANCH  21  25
ENDBRANCH  16  17
ENDBRANCH   1  16
TORSDOF 5
ENDMDL
