MODEL 1
REMARK VINA RESULT:    -7.790      0.000      0.000
REMARK INTER + INTRA:          -9.361
REMARK INTER:                  -8.701
REMARK INTRA:                  -0.660
REMARK UNBOUND:                -0.660
REMARK  Name = 
REMARK  2 active torsions:
REMARK  status: ('A' for Active; 'I' for Inactive)
REMARK    1  A    between atoms: N_5  and  C_6
REMARK    2  A    between atoms: C_6  and  C_7
REMARK                            x       y       z     vdW  Elec       q    Type
REMARK                         _______ _______ _______ _____ _____    ______ ____
ROOT
ATOM      1  C   UNL     1      45.358   4.480  12.020  0.00  0.00    +0.000 A 
ATOM      2  C   UNL     1      45.844   3.508  12.893  0.00  0.00    +0.000 A 
ATOM      3  C   UNL     1      46.986   3.782  13.627  0.00  0.00    +0.000 A 
ATOM      4  N   UNL     1      47.675   4.944  13.558  0.00  0.00    +0.000 NA
ATOM      5  C   UNL     1      47.180   5.917  12.771  0.00  0.00    +0.000 A 
ATOM      6  N   UNL     1      47.872   7.111  12.592  0.00  0.00    +0.000 N 
ATOM      7  C   UNL     1      49.331   7.076  12.632  0.00  0.00    +0.000 C 
ATOM      8  C   UNL     1      49.897   7.612  13.943  0.00  0.00    +0.000 C 
ATOM      9  C   UNL     1      49.266   8.949  14.318  0.00  0.00    +0.000 C 
ATOM     10  C   UNL     1      47.749   8.817  14.366  0.00  0.00    +0.000 C 
ATOM     11  C   UNL     1      47.202   8.334  13.026  0.00  0.00    +0.000 C 
ATOM     12  C   UNL     1      46.017   5.717  12.028  0.00  0.00    +0.000 A 
ENDROOT
BRANCH   1  13
ATOM     13  C   UNL     1      44.239   4.183  11.026  0.00  0.00    +0.000 C 
ATOM     14  C   UNL     1      42.790   4.274  11.516  0.00  0.00    +0.000 C 
ATOM     15  C   UNL     1      43.355   5.370  10.681  0.00  0.00    +0.000 C 
BRANCH  13  20
ATOM     16  C   UNL     1      46.909   2.368   6.890  0.00  0.00    +0.000 A 
ATOM     17  C   UNL     1      46.506   3.670   7.147  0.00  0.00    +0.000 A 
ATOM     18  C   UNL     1      45.722   3.940   8.272  0.00  0.00    +0.000 A 
ATOM     19  C   UNL     1      45.348   2.897   9.105  0.00  0.00    +0.000 A 
ATOM     20  N   UNL     1      44.474   3.017  10.181  0.00  0.00    +0.000 N 
ATOM     21  N   UNL     1      45.745   1.626   8.861  0.00  0.00    +0.000 NA
ATOM     22  C   UNL     1      46.512   1.387   7.778  0.00  0.00    +0.000 A 
ATOM     23  H   UNL     1      44.437   2.104  10.628  0.00  0.00    +0.000 HD
ENDBRANCH  13  20
ENDBRANCH   1  13
TORSDOF 2
ENDMDL
MODEL 2
REMARK VINA RESULT:    -7.249      2.220      3.254
REMARK INTER + INTRA:          -8.756
REMARK INTER:                  -8.295
REMARK INTRA:                  -0.462
REMARK UNBOUND:                -0.660
REMARK  Name = 
REMARK  2 active torsions:
REMARK  status: ('A' for Active; 'I' for Inactive)
REMARK    1  A    between atoms: N_5  and  C_6
REMARK    2  A    between atoms: C_6  and  C_7
REMARK                            x       y       z     vdW  Elec       q    Type
REMARK                         _______ _______ _______ _____ _____    ______ ____
ROOT
ATOM      1  C   UNL     1      45.937   5.271  12.759  0.00  0.00    +0.000 A 
ATOM      2  C   UNL     1      46.935   6.082  12.224  0.00  0.00    +0.000 A 
ATOM      3  C   UNL     1      48.067   6.335  12.981  0.00  0.00    +0.000 A 
ATOM      4  N   UNL     1      48.277   5.842  14.224  0.00  0.00    +0.000 NA
ATOM      5  C   UNL     1      47.353   5.002  14.726  0.00  0.00    +0.000 A 
ATOM      6  N   UNL     1      47.464   4.513  16.024  0.00  0.00    +0.000 N 
ATOM      7  C   UNL     1      48.090   5.365  17.031  0.00  0.00    +0.000 C 
ATOM      8  C   UNL     1      49.516   4.935  17.362  0.00  0.00    +0.000 C 
ATOM      9  C   UNL     1      49.599   3.437  17.633  0.00  0.00    +0.000 C 
ATOM     10  C   UNL     1      49.031   2.660  16.452  0.00  0.00    +0.000 C 
ATOM     11  C   UNL     1      47.586   3.066  16.177  0.00  0.00    +0.000 C 
ATOM     12  C   UNL     1      46.205   4.682  14.002  0.00  0.00    +0.000 A 
ENDROOT
BRANCH   1  13
ATOM     13  C   UNL     1      44.577   5.116  12.084  0.00  0.00    +0.000 C 
ATOM     14  C   UNL     1      43.319   5.414  12.906  0.00  0.00    +0.000 C 
ATOM     15  C   UNL     1      43.798   6.407  11.905  0.00  0.00    +0.000 C 
BRANCH  13  20
ATOM     16  C   UNL     1      46.020   2.810   7.598  0.00  0.00    +0.000 A 
ATOM     17  C   UNL     1      45.898   4.165   7.865  0.00  0.00    +0.000 A 
ATOM     18  C   UNL     1      45.412   4.582   9.108  0.00  0.00    +0.000 A 
ATOM     19  C   UNL     1      45.048   3.631  10.048  0.00  0.00    +0.000 A 
ATOM     20  N   UNL     1      44.441   3.914  11.267  0.00  0.00    +0.000 N 
ATOM     21  N   UNL     1      45.173   2.307   9.792  0.00  0.00    +0.000 NA
ATOM     22  C   UNL     1      45.655   1.924   8.592  0.00  0.00    +0.000 A 
ATOM     23  H   UNL     1      44.346   3.028  11.756  0.00  0.00    +0.000 HD
ENDBRANCH  13  20
ENDBRANCH   1  13
TORSDOF 2
ENDMDL
MODEL 3
REMARK VINA RESULT:    -6.431      1.269      1.469
REMARK INTER + INTRA:          -7.843
REMARK INTER:                  -7.368
REMARK INTRA:                  -0.475
REMARK UNBOUND:                -0.660
REMARK  Name = 
REMARK  2 active torsions:
REMARK  status: ('A' for Active; 'I' for Inactive)
REMARK    1  A    between atoms: N_5  and  C_6
REMARK    2  A    between atoms: C_6  and  C_7
REMARK                            x       y       z     vdW  Elec       q    Type
REMARK                         _______ _______ _______ _____ _____    ______ ____
ROOT
ATOM      1  C   UNL     1      45.672   5.566  12.781  0.00  0.00    +0.000 A 
ATOM      2  C   UNL     1      45.895   4.426  13.551  0.00  0.00    +0.000 A 
ATOM      3  C   UNL     1      46.974   4.409  14.420  0.00  0.00    +0.000 A 
ATOM      4  N   UNL     1      47.840   5.437  14.578  0.00  0.00    +0.000 NA
ATOM      5  C   UNL     1      47.597   6.569  13.892  0.00  0.00    +0.000 A 
ATOM      6  N   UNL     1      48.483   7.640  13.948  0.00  0.00    +0.000 N 
ATOM      7  C   UNL     1      49.904   7.353  14.119  0.00  0.00    +0.000 C 
ATOM      8  C   UNL     1      50.392   7.621  15.539  0.00  0.00    +0.000 C 
ATOM      9  C   UNL     1      49.939   8.989  16.037  0.00  0.00    +0.000 C 
ATOM     10  C   UNL     1      48.425   9.112  15.924  0.00  0.00    +0.000 C 
ATOM     11  C   UNL     1      47.967   8.897  14.484  0.00  0.00    +0.000 C 
ATOM     12  C   UNL     1      46.510   6.662  13.023  0.00  0.00    +0.000 A 
ENDROOT
BRANCH   1  13
ATOM     13  C   UNL     1      44.642   5.588  11.655  0.00  0.00    +0.000 C 
ATOM     14  C   UNL     1      43.319   6.322  11.895  0.00  0.00    +0.000 C 
ATOM     15  C   UNL     1      44.373   6.958  11.057  0.00  0.00    +0.000 C 
BRANCH  13  20
ATOM     16  C   UNL     1      46.196   2.630   7.610  0.00  0.00    +0.000 A 
ATOM     17  C   UNL     1      46.177   4.014   7.704  0.00  0.00    +0.000 A 
ATOM     18  C   UNL     1      45.641   4.620   8.843  0.00  0.00    +0.000 A 
ATOM     19  C   UNL     1      45.125   3.826   9.856  0.00  0.00    +0.000 A 
ATOM     20  N   UNL     1      44.459   4.308  10.978  0.00  0.00    +0.000 N 
ATOM     21  N   UNL     1      45.149   2.476   9.771  0.00  0.00    +0.000 NA
ATOM     22  C   UNL     1      45.681   1.908   8.669  0.00  0.00    +0.000 A 
ATOM     23  H   UNL     1      44.249   3.501  11.559  0.00  0.00    +0.000 HD
ENDBRANCH  13  20
ENDBRANCH   1  13
TORSDOF 2
ENDMDL
MODEL 4
REMARK VINA RESULT:    -6.060      2.414      7.421
REMARK INTER + INTRA:          -7.429
REMARK INTER:                  -6.816
REMARK INTRA:                  -0.613
REMARK UNBOUND:                -0.660
REMARK  Name = 
REMARK  2 active torsions:
REMARK  status: ('A' for Active; 'I' for Inactive)
REMARK    1  A    between atoms: N_5  and  C_6
REMARK    2  A    between atoms: C_6  and  C_7
REMARK                            x       y       z     vdW  Elec       q    Type
REMARK                         _______ _______ _______ _____ _____    ______ ____
ROOT
ATOM      1  C   UNL     1      47.866   7.782  12.511  0.00  0.00    +0.000 A 
ATOM      2  C   UNL     1      46.962   8.841  12.431  0.00  0.00    +0.000 A 
ATOM      3  C   UNL     1      45.665   8.581  12.019  0.00  0.00    +0.000 A 
ATOM      4  N   UNL     1      45.205   7.354  11.684  0.00  0.00    +0.000 NA
ATOM      5  C   UNL     1      46.046   6.312  11.823  0.00  0.00    +0.000 A 
ATOM      6  N   UNL     1      45.667   5.032  11.429  0.00  0.00    +0.000 N 
ATOM      7  C   UNL     1      44.753   4.899  10.299  0.00  0.00    +0.000 C 
ATOM      8  C   UNL     1      43.328   4.565  10.731  0.00  0.00    +0.000 C 
ATOM      9  C   UNL     1      43.303   3.412  11.729  0.00  0.00    +0.000 C 
ATOM     10  C   UNL     1      44.197   3.732  12.920  0.00  0.00    +0.000 C 
ATOM     11  C   UNL     1      45.629   4.006  12.468  0.00  0.00    +0.000 C 
ATOM     12  C   UNL     1      47.356   6.501  12.262  0.00  0.00    +0.000 A 
ENDROOT
BRANCH   1  13
ATOM     13  C   UNL     1      49.355   8.011  12.750  0.00  0.00    +0.000 C 
ATOM     14  C   UNL     1      50.291   8.028  11.538  0.00  0.00    +0.000 C 
ATOM     15  C   UNL     1      49.904   9.311  12.187  0.00  0.00    +0.000 C 
BRANCH  13  20
ATOM     16  C   UNL     1      48.949   7.126  17.905  0.00  0.00    +0.000 A 
ATOM     17  C   UNL     1      48.618   8.275  17.203  0.00  0.00    +0.000 A 
ATOM     18  C   UNL     1      48.883   8.346  15.833  0.00  0.00    +0.000 A 
ATOM     19  C   UNL     1      49.486   7.270  15.201  0.00  0.00    +0.000 A 
ATOM     20  N   UNL     1      49.909   7.266  13.876  0.00  0.00    +0.000 N 
ATOM     21  N   UNL     1      49.804   6.144  15.882  0.00  0.00    +0.000 NA
ATOM     22  C   UNL     1      49.530   6.089  17.201  0.00  0.00    +0.000 A 
ATOM     23  H   UNL     1      50.259   6.330  13.687  0.00  0.00    +0.000 HD
ENDBRANCH  13  20
ENDBRANCH   1  13
TORSDOF 2
ENDMDL
MODEL 5
REMARK VINA RESULT:    -5.604      3.375      6.862
REMARK INTER + INTRA:          -6.920
REMARK INTER:                  -6.693
REMARK INTRA:                  -0.226
REMARK UNBOUND:                -0.660
REMARK  Name = 
REMARK  2 active torsions:
REMARK  status: ('A' for Active; 'I' for Inactive)
REMARK    1  A    between atoms: N_5  and  C_6
REMARK    2  A    between atoms: C_6  and  C_7
REMARK                            x       y       z     vdW  Elec       q    Type
REMARK                         _______ _______ _______ _____ _____    ______ ____
ROOT
ATOM      1  C   UNL     1      47.326   9.300  11.945  0.00  0.00    +0.000 A 
ATOM      2  C   UNL     1      48.650   8.868  11.877  0.00  0.00    +0.000 A 
ATOM      3  C   UNL     1      48.927   7.530  12.107  0.00  0.00    +0.000 A 
ATOM      4  N   UNL     1      47.990   6.598  12.396  0.00  0.00    +0.000 NA
ATOM      5  C   UNL     1      46.702   6.987  12.397  0.00  0.00    +0.000 A 
ATOM      6  N   UNL     1      45.690   6.102  12.757  0.00  0.00    +0.000 N 
ATOM      7  C   UNL     1      45.992   5.074  13.749  0.00  0.00    +0.000 C 
ATOM      8  C   UNL     1      46.189   3.695  13.127  0.00  0.00    +0.000 C 
ATOM      9  C   UNL     1      45.062   3.354  12.157  0.00  0.00    +0.000 C 
ATOM     10  C   UNL     1      44.936   4.442  11.099  0.00  0.00    +0.000 C 
ATOM     11  C   UNL     1      44.683   5.802  11.743  0.00  0.00    +0.000 C 
ATOM     12  C   UNL     1      46.352   8.313  12.143  0.00  0.00    +0.000 A 
ENDROOT
BRANCH   1  13
ATOM     13  C   UNL     1      46.960  10.781  11.914  0.00  0.00    +0.000 C 
ATOM     14  C   UNL     1      47.904  11.777  12.594  0.00  0.00    +0.000 C 
ATOM     15  C   UNL     1      47.903  11.660  11.109  0.00  0.00    +0.000 C 
BRANCH  13  20
ATOM     16  C   UNL     1      42.134  10.869   9.859  0.00  0.00    +0.000 A 
ATOM     17  C   UNL     1      43.346  11.053   9.211  0.00  0.00    +0.000 A 
ATOM     18  C   UNL     1      44.528  11.079   9.954  0.00  0.00    +0.000 A 
ATOM     19  C   UNL     1      44.468  10.934  11.332  0.00  0.00    +0.000 A 
ATOM     20  N   UNL     1      45.554  11.062  12.190  0.00  0.00    +0.000 N 
ATOM     21  N   UNL     1      43.287  10.747  11.967  0.00  0.00    +0.000 NA
ATOM     22  C   UNL     1      42.157  10.712  11.231  0.00  0.00    +0.000 A 
ATOM     23  H   UNL     1      45.213  10.850  13.124  0.00  0.00    +0.000 HD
ENDBRANCH  13  20
ENDBRANCH   1  13
TORSDOF 2
ENDMDL
MODEL 6
REMARK VINA RESULT:    -5.501      2.876      5.377
REMARK INTER + INTRA:          -6.805
REMARK INTER:                  -6.640
REMARK INTRA:                  -0.165
REMARK UNBOUND:                -0.660
REMARK  Name = 
REMARK  2 active torsions:
REMARK  status: ('A' for Active; 'I' for Inactive)
REMARK    1  A    between atoms: N_5  and  C_6
REMARK    2  A    between atoms: C_6  and  C_7
REMARK                            x       y       z     vdW  Elec       q    Type
REMARK                         _______ _______ _______ _____ _____    ______ ____
ROOT
ATOM      1  C   UNL     1      48.170   7.072  13.836  0.00  0.00    +0.000 A 
ATOM      2  C   UNL     1      49.478   7.535  13.964  0.00  0.00    +0.000 A 
ATOM      3  C   UNL     1      50.221   7.139  15.064  0.00  0.00    +0.000 A 
ATOM      4  N   UNL     1      49.760   6.323  16.040  0.00  0.00    +0.000 NA
ATOM      5  C   UNL     1      48.523   5.813  15.894  0.00  0.00    +0.000 A 
ATOM      6  N   UNL     1      47.955   5.026  16.891  0.00  0.00    +0.000 N 
ATOM      7  C   UNL     1      48.315   5.301  18.278  0.00  0.00    +0.000 C 
ATOM      8  C   UNL     1      49.306   4.286  18.842  0.00  0.00    +0.000 C 
ATOM      9  C   UNL     1      48.864   2.855  18.555  0.00  0.00    +0.000 C 
ATOM     10  C   UNL     1      48.645   2.666  17.059  0.00  0.00    +0.000 C 
ATOM     11  C   UNL     1      47.608   3.653  16.531  0.00  0.00    +0.000 C 
ATOM     12  C   UNL     1      47.734   6.146  14.794  0.00  0.00    +0.000 A 
ENDROOT
BRANCH   1  13
ATOM     13  C   UNL     1      47.221   7.622  12.775  0.00  0.00    +0.000 C 
ATOM     14  C   UNL     1      47.403   9.073  12.319  0.00  0.00    +0.000 C 
ATOM     15  C   UNL     1      47.871   7.962  11.445  0.00  0.00    +0.000 C 
BRANCH  13  20
ATOM     16  C   UNL     1      43.467   4.162  11.564  0.00  0.00    +0.000 A 
ATOM     17  C   UNL     1      44.572   4.527  10.811  0.00  0.00    +0.000 A 
ATOM     18  C   UNL     1      45.418   5.539  11.273  0.00  0.00    +0.000 A 
ATOM     19  C   UNL     1      45.128   6.172  12.472  0.00  0.00    +0.000 A 
ATOM     20  N   UNL     1      45.819   7.268  12.976  0.00  0.00    +0.000 N 
ATOM     21  N   UNL     1      44.053   5.813  13.213  0.00  0.00    +0.000 NA
ATOM     22  C   UNL     1      43.256   4.826  12.757  0.00  0.00    +0.000 A 
ATOM     23  H   UNL     1      45.414   7.472  13.886  0.00  0.00    +0.000 HD
ENDBRANCH  13  20
ENDBRANCH   1  13
TORSDOF 2
ENDMDL
MODEL 7
REMARK VINA RESULT:    -5.364      3.056      8.092
REMARK INTER + INTRA:          -6.651
REMARK INTER:                  -6.189
REMARK INTRA:                  -0.462
REMARK UNBOUND:                -0.660
REMARK  Name = 
REMARK  2 active torsions:
REMARK  status: ('A' for Active; 'I' for Inactive)
REMARK    1  A    between atoms: N_5  and  C_6
REMARK    2  A    between atoms: C_6  and  C_7
REMARK                            x       y       z     vdW  Elec       q    Type
REMARK                         _______ _______ _______ _____ _____    ______ ____
ROOT
ATOM      1  C   UNL     1      47.994   6.134  14.664  0.00  0.00    +0.000 A 
ATOM      2  C   UNL     1      47.891   4.886  15.278  0.00  0.00    +0.000 A 
ATOM      3  C   UNL     1      46.871   4.034  14.889  0.00  0.00    +0.000 A 
ATOM      4  N   UNL     1      45.952   4.329  13.941  0.00  0.00    +0.000 NA
ATOM      5  C   UNL     1      46.080   5.501  13.292  0.00  0.00    +0.000 A 
ATOM      6  N   UNL     1      45.133   5.905  12.357  0.00  0.00    +0.000 N 
ATOM      7  C   UNL     1      43.746   5.495  12.557  0.00  0.00    +0.000 C 
ATOM      8  C   UNL     1      43.329   4.355  11.634  0.00  0.00    +0.000 C 
ATOM      9  C   UNL     1      43.723   4.635  10.188  0.00  0.00    +0.000 C 
ATOM     10  C   UNL     1      45.216   4.921  10.098  0.00  0.00    +0.000 C 
ATOM     11  C   UNL     1      45.599   6.103  10.987  0.00  0.00    +0.000 C 
ATOM     12  C   UNL     1      47.104   6.392  13.613  0.00  0.00    +0.000 A 
ENDROOT
BRANCH   1  13
ATOM     13  C   UNL     1      48.950   7.207  15.176  0.00  0.00    +0.000 C 
ATOM     14  C   UNL     1      50.081   7.673  14.254  0.00  0.00    +0.000 C 
ATOM     15  C   UNL     1      48.880   8.534  14.440  0.00  0.00    +0.000 C 
BRANCH  13  20
ATOM     16  C   UNL     1      47.763   8.086  20.211  0.00  0.00    +0.000 A 
ATOM     17  C   UNL     1      47.406   8.837  19.101  0.00  0.00    +0.000 A 
ATOM     18  C   UNL     1      47.897   8.484  17.842  0.00  0.00    +0.000 A 
ATOM     19  C   UNL     1      48.745   7.393  17.725  0.00  0.00    +0.000 A 
ATOM     20  N   UNL     1      49.392   7.015  16.554  0.00  0.00    +0.000 N 
ATOM     21  N   UNL     1      49.090   6.653  18.805  0.00  0.00    +0.000 NA
ATOM     22  C   UNL     1      48.596   7.003  20.011  0.00  0.00    +0.000 A 
ATOM     23  H   UNL     1      49.896   6.157  16.765  0.00  0.00    +0.000 HD
ENDBRANCH  13  20
ENDBRANCH   1  13
TORSDOF 2
ENDMDL
MODEL 8
REMARK VINA RESULT:    -5.357      2.480      7.024
REMARK INTER + INTRA:          -6.644
REMARK INTER:                  -6.028
REMARK INTRA:                  -0.615
REMARK UNBOUND:                -0.660
REMARK  Name = 
REMARK  2 active torsions:
REMARK  status: ('A' for Active; 'I' for Inactive)
REMARK    1  A    between atoms: N_5  and  C_6
REMARK    2  A    between atoms: C_6  and  C_7
REMARK                            x       y       z     vdW  Elec       q    Type
REMARK                         _______ _______ _______ _____ _____    ______ ____
ROOT
ATOM      1  C   UNL     1      47.408   8.091  13.280  0.00  0.00    +0.000 A 
ATOM      2  C   UNL     1      46.603   9.128  12.811  0.00  0.00    +0.000 A 
ATOM      3  C   UNL     1      45.502   8.816  12.029  0.00  0.00    +0.000 A 
ATOM      4  N   UNL     1      45.147   7.558  11.682  0.00  0.00    +0.000 NA
ATOM      5  C   UNL     1      45.876   6.543  12.184  0.00  0.00    +0.000 A 
ATOM      6  N   UNL     1      45.615   5.228  11.813  0.00  0.00    +0.000 N 
ATOM      7  C   UNL     1      45.112   4.976  10.466  0.00  0.00    +0.000 C 
ATOM      8  C   UNL     1      43.617   4.672  10.444  0.00  0.00    +0.000 C 
ATOM      9  C   UNL     1      43.245   3.621  11.485  0.00  0.00    +0.000 C 
ATOM     10  C   UNL     1      43.715   4.064  12.865  0.00  0.00    +0.000 C 
ATOM     11  C   UNL     1      45.222   4.307  12.876  0.00  0.00    +0.000 C 
ATOM     12  C   UNL     1      46.978   6.787  13.003  0.00  0.00    +0.000 A 
ENDROOT
BRANCH   1  13
ATOM     13  C   UNL     1      48.746   8.357  13.964  0.00  0.00    +0.000 C 
ATOM     14  C   UNL     1      48.778   8.429  15.494  0.00  0.00    +0.000 C 
ATOM     15  C   UNL     1      49.278   7.208  14.803  0.00  0.00    +0.000 C 
BRANCH  13  20
ATOM     16  C   UNL     1      52.056   9.425  10.036  0.00  0.00    +0.000 A 
ATOM     17  C   UNL     1      51.856   8.216  10.685  0.00  0.00    +0.000 A 
ATOM     18  C   UNL     1      50.984   8.154  11.775  0.00  0.00    +0.000 A 
ATOM     19  C   UNL     1      50.342   9.308  12.198  0.00  0.00    +0.000 A 
ATOM     20  N   UNL     1      49.549   9.402  13.336  0.00  0.00    +0.000 N 
ATOM     21  N   UNL     1      50.529  10.489  11.561  0.00  0.00    +0.000 NA
ATOM     22  C   UNL     1      51.365  10.527  10.504  0.00  0.00    +0.000 A 
ATOM     23  H   UNL     1      49.177  10.348  13.354  0.00  0.00    +0.000 HD
ENDBRANCH  13  20
ENDBRANCH   1  13
TORSDOF 2
ENDMDL
MODEL 9
REMARK VINA RESULT:    -5.255      1.887      6.851
REMARK INTER + INTRA:          -6.530
REMARK INTER:                  -6.130
REMARK INTRA:                  -0.400
REMARK UNBOUND:                -0.660
REMARK  Name = 
REMARK  2 active torsions:
REMARK  status: ('A' for Active; 'I' for Inactive)
REMARK    1  A    between atoms: N_5  and  C_6
REMARK    2  A    between atoms: C_6  and  C_7
REMARK                            x       y       z     vdW  Elec       q    Type
REMARK                         _______ _______ _______ _____ _____    ______ ____
ROOT
ATOM      1  C   UNL     1      47.221   7.066  12.420  0.00  0.00    +0.000 A 
ATOM      2  C   UNL     1      47.493   6.241  13.510  0.00  0.00    +0.000 A 
ATOM      3  C   UNL     1      46.889   4.995  13.571  0.00  0.00    +0.000 A 
ATOM      4  N   UNL     1      46.042   4.514  12.633  0.00  0.00    +0.000 NA
ATOM      5  C   UNL     1      45.824   5.271  11.541  0.00  0.00    +0.000 A 
ATOM      6  N   UNL     1      44.910   4.874  10.570  0.00  0.00    +0.000 N 
ATOM      7  C   UNL     1      43.742   4.107  10.993  0.00  0.00    +0.000 C 
ATOM      8  C   UNL     1      43.863   2.622  10.664  0.00  0.00    +0.000 C 
ATOM      9  C   UNL     1      44.298   2.404   9.218  0.00  0.00    +0.000 C 
ATOM     10  C   UNL     1      45.595   3.154   8.944  0.00  0.00    +0.000 C 
ATOM     11  C   UNL     1      45.432   4.646   9.226  0.00  0.00    +0.000 C 
ATOM     12  C   UNL     1      46.424   6.522  11.404  0.00  0.00    +0.000 A 
ENDROOT
BRANCH   1  13
ATOM     13  C   UNL     1      47.672   8.523  12.380  0.00  0.00    +0.000 C 
ATOM     14  C   UNL     1      46.613   9.606  12.154  0.00  0.00    +0.000 C 
ATOM     15  C   UNL     1      47.161   9.385  13.522  0.00  0.00    +0.000 C 
BRANCH  13  20
ATOM     16  C   UNL     1      52.916   8.398  12.521  0.00  0.00    +0.000 A 
ATOM     17  C   UNL     1      52.034   8.613  13.570  0.00  0.00    +0.000 A 
ATOM     18  C   UNL     1      50.663   8.696  13.312  0.00  0.00    +0.000 A 
ATOM     19  C   UNL     1      50.208   8.574  12.008  0.00  0.00    +0.000 A 
ATOM     20  N   UNL     1      48.889   8.758  11.609  0.00  0.00    +0.000 N 
ATOM     21  N   UNL     1      51.066   8.356  10.983  0.00  0.00    +0.000 NA
ATOM     22  C   UNL     1      52.384   8.267  11.253  0.00  0.00    +0.000 A 
ATOM     23  H   UNL     1      48.855   8.551  10.614  0.00  0.00    +0.000 HD
ENDBRANCH  13  20
ENDBRANCH   1  13
TORSDOF 2
ENDMDL
