MODEL 1
REMARK VINA RESULT:    -8.355      0.000      0.000
REMARK INTER + INTRA:         -12.441
REMARK INTER:                 -11.530
REMARK INTRA:                  -0.912
REMARK UNBOUND:                -0.912
REMARK  Name = 
REMARK  8 active torsions:
REMARK  status: ('A' for Active; 'I' for Inactive)
REMARK    1  A    between atoms: C_1  and  C_2
REMARK    2  A    between atoms: C_2  and  O_3
REMARK    3  A    between atoms: C_5  and  O_6
REMARK    4  A    between atoms: O_6  and  C_7
REMARK    5  A    between atoms: C_11  and  C_12
REMARK    6  A    between atoms: C_12  and  C_13
REMARK    7  A    between atoms: C_13  and  N_14
REMARK    8  A    between atoms: C_18  and  C_19
REMARK                            x       y       z     vdW  Elec       q    Type
REMARK                         _______ _______ _______ _____ _____    ______ ____
ROOT
ATOM      1  C   UNL     1      43.338   5.382  12.435  0.00  0.00    +0.000 C 
ENDROOT
BRANCH   1   6
ATOM      2  C   UNL     1      46.864   4.857  13.878  0.00  0.00    +0.000 A 
ATOM      3  C   UNL     1      47.455   6.086  13.610  0.00  0.00    +0.000 A 
ATOM      4  C   UNL     1      46.704   7.102  13.016  0.00  0.00    +0.000 A 
ATOM      5  C   UNL     1      45.367   6.882  12.662  0.00  0.00    +0.000 A 
ATOM      6  C   UNL     1      44.768   5.636  12.890  0.00  0.00    +0.000 A 
ATOM      7  C   UNL     1      45.537   4.640  13.515  0.00  0.00    +0.000 A 
BRANCH   2   8
ATOM      8  O   UNL     1      47.644   3.896  14.473  0.00  0.00    +0.000 OA
BRANCH   8  12
ATOM      9  C   UNL     1      49.064   4.021  18.747  0.00  0.00    +0.000 C 
ATOM     10  C   UNL     1      48.763   4.080  17.259  0.00  0.00    +0.000 C 
ATOM     11  C   UNL     1      47.327   4.560  16.919  0.00  0.00    +0.000 C 
ATOM     12  C   UNL     1      47.284   3.473  15.814  0.00  0.00    +0.000 C 
ATOM     13  C   UNL     1      48.387   2.728  16.600  0.00  0.00    +0.000 C 
BRANCH  10  14
ATOM     14  O   UNL     1      49.835   4.785  16.595  0.00  0.00    +0.000 OA
ATOM     15  H   UNL     1      50.357   5.194  17.307  0.00  0.00    +0.000 HD
ENDBRANCH  10  14
ENDBRANCH   8  12
ENDBRANCH   2   8
ENDBRANCH   1   6
BRANCH   1  16
ATOM     16  C   UNL     1      43.246   4.572  11.137  0.00  0.00    +0.000 C 
BRANCH  16  17
ATOM     17  N   UNL     1      44.060   5.113  10.048  0.00  0.00    +0.000 N 
ATOM     18  C   UNL     1      44.773   4.079   9.394  0.00  0.00    +0.000 A 
ATOM     19  C   UNL     1      45.616   4.411   8.340  0.00  0.00    +0.000 A 
ATOM     20  C   UNL     1      46.325   3.400   7.684  0.00  0.00    +0.000 A 
ATOM     21  C   UNL     1      46.183   2.072   8.091  0.00  0.00    +0.000 A 
ATOM     22  C   UNL     1      45.315   1.829   9.139  0.00  0.00    +0.000 A 
ATOM     23  N   UNL     1      44.613   2.794   9.782  0.00  0.00    +0.000 NA
ATOM     24  H   UNL     1      44.733   5.800  10.379  0.00  0.00    +0.000 HD
BRANCH  21  25
ATOM     25  C   UNL     1      46.952   1.008   7.404  0.00  0.00    +0.000 C 
ATOM     26  N   UNL     1      47.824   1.352   6.405  0.00  0.00    +0.000 N 
ATOM     27  O   UNL     1      46.811  -0.169   7.711  0.00  0.00    +0.000 OA
ATOM     28  H   UNL     1      48.011   2.283   6.066  0.00  0.00    +0.000 HD
ATOM     29  H   UNL     1      48.320   0.587   5.962  0.00  0.00    +0.000 HD
ENDBRANCH  21  25
ENDBRANCH  16  17
ENDBRANCH   1  16
TORSDOF 7
ENDMDL
MODEL 2
REMARK VINA RESULT:    -7.383      2.439      4.110
REMARK INTER + INTRA:         -11.101
REMARK INTER:                 -10.238
REMARK INTRA:                  -0.863
REMARK UNBOUND:                -0.912
REMARK  Name = 
REMARK  8 active torsions:
REMARK  status: ('A' for Active; 'I' for Inactive)
REMARK    1  A    between atoms: C_1  and  C_2
REMARK    2  A    between atoms: C_2  and  O_3
REMARK    3  A    between atoms: C_5  and  O_6
REMARK    4  A    between atoms: O_6  and  C_7
REMARK    5  A    between atoms: C_11  and  C_12
REMARK    6  A    between atoms: C_12  and  C_13
REMARK    7  A    between atoms: C_13  and  N_14
REMARK    8  A    between atoms: C_18  and  C_19
REMARK                            x       y       z     vdW  Elec       q    Type
REMARK                         _______ _______ _______ _____ _____    ______ ____
ROOT
ATOM      1  C   UNL     1      43.328   4.484  12.590  0.00  0.00    +0.000 C 
ENDROOT
BRANCH   1   6
ATOM      2  C   UNL     1      46.370   6.782  13.095  0.00  0.00    +0.000 A 
ATOM      3  C   UNL     1      47.338   5.870  13.499  0.00  0.00    +0.000 A 
ATOM      4  C   UNL     1      47.029   4.509  13.555  0.00  0.00    +0.000 A 
ATOM      5  C   UNL     1      45.741   4.061  13.235  0.00  0.00    +0.000 A 
ATOM      6  C   UNL     1      44.743   4.972  12.864  0.00  0.00    +0.000 A 
ATOM      7  C   UNL     1      45.088   6.332  12.788  0.00  0.00    +0.000 A 
BRANCH   2   8
ATOM      8  O   UNL     1      46.730   8.107  13.047  0.00  0.00    +0.000 OA
BRANCH   8  12
ATOM      9  C   UNL     1      49.711  11.108  11.496  0.00  0.00    +0.000 C 
ATOM     10  C   UNL     1      48.561  10.207  11.916  0.00  0.00    +0.000 C 
ATOM     11  C   UNL     1      48.538   9.869  13.430  0.00  0.00    +0.000 C 
ATOM     12  C   UNL     1      48.147   8.419  13.044  0.00  0.00    +0.000 C 
ATOM     13  C   UNL     1      48.771   8.693  11.657  0.00  0.00    +0.000 C 
BRANCH  10  14
ATOM     14  O   UNL     1      47.332  10.737  11.372  0.00  0.00    +0.000 OA
ATOM     15  H   UNL     1      47.536  10.970  10.450  0.00  0.00    +0.000 HD
ENDBRANCH  10  14
ENDBRANCH   8  12
ENDBRANCH   2   8
ENDBRANCH   1   6
BRANCH   1  16
ATOM     16  C   UNL     1      43.121   3.985  11.155  0.00  0.00    +0.000 C 
BRANCH  16  17
ATOM     17  N   UNL     1      43.837   4.772  10.151  0.00  0.00    +0.000 N 
ATOM     18  C   UNL     1      44.691   3.946   9.381  0.00  0.00    +0.000 A 
ATOM     19  C   UNL     1      45.468   4.528   8.386  0.00  0.00    +0.000 A 
ATOM     20  C   UNL     1      46.314   3.724   7.617  0.00  0.00    +0.000 A 
ATOM     21  C   UNL     1      46.375   2.350   7.854  0.00  0.00    +0.000 A 
ATOM     22  C   UNL     1      45.561   1.851   8.853  0.00  0.00    +0.000 A 
ATOM     23  N   UNL     1      44.728   2.614   9.604  0.00  0.00    +0.000 NA
ATOM     24  H   UNL     1      44.404   5.506  10.572  0.00  0.00    +0.000 HD
BRANCH  21  25
ATOM     25  C   UNL     1      47.288   1.505   7.047  0.00  0.00    +0.000 C 
ATOM     26  N   UNL     1      48.433   2.058   6.538  0.00  0.00    +0.000 N 
ATOM     27  O   UNL     1      47.028   0.330   6.826  0.00  0.00    +0.000 OA
ATOM     28  H   UNL     1      48.741   3.012   6.649  0.00  0.00    +0.000 HD
ATOM     29  H   UNL     1      49.021   1.441   5.988  0.00  0.00    +0.000 HD
ENDBRANCH  21  25
ENDBRANCH  16  17
ENDBRANCH   1  16
TORSDOF 7
ENDMDL
MODEL 3
REMARK VINA RESULT:    -7.098      2.856      5.091
REMARK INTER + INTRA:         -10.707
REMARK INTER:                 -10.219
REMARK INTRA:                  -0.488
REMARK UNBOUND:                -0.912
REMARK  Name = 
REMARK  8 active torsions:
REMARK  status: ('A' for Active; 'I' for Inactive)
REMARK    1  A    between atoms: C_1  and  C_2
REMARK    2  A    between atoms: C_2  and  O_3
REMARK    3  A    between atoms: C_5  and  O_6
REMARK    4  A    between atoms: O_6  and  C_7
REMARK    5  A    between atoms: C_11  and  C_12
REMARK    6  A    between atoms: C_12  and  C_13
REMARK    7  A    between atoms: C_13  and  N_14
REMARK    8  A    between atoms: C_18  and  C_19
REMARK                            x       y       z     vdW  Elec       q    Type
REMARK                         _______ _______ _______ _____ _____    ______ ____
ROOT
ATOM      1  C   UNL     1      43.970   3.427  12.619  0.00  0.00    +0.000 C 
ENDROOT
BRANCH   1   6
ATOM      2  C   UNL     1      45.407   6.981  12.925  0.00  0.00    +0.000 A 
ATOM      3  C   UNL     1      46.730   6.714  13.253  0.00  0.00    +0.000 A 
ATOM      4  C   UNL     1      47.175   5.392  13.320  0.00  0.00    +0.000 A 
ATOM      5  C   UNL     1      46.289   4.332  13.088  0.00  0.00    +0.000 A 
ATOM      6  C   UNL     1      44.942   4.584  12.796  0.00  0.00    +0.000 A 
ATOM      7  C   UNL     1      44.526   5.924  12.707  0.00  0.00    +0.000 A 
BRANCH   2   8
ATOM      8  O   UNL     1      45.024   8.299  12.862  0.00  0.00    +0.000 OA
BRANCH   8  12
ATOM      9  C   UNL     1      43.533  11.757  10.390  0.00  0.00    +0.000 C 
ATOM     10  C   UNL     1      43.880  10.637  11.356  0.00  0.00    +0.000 C 
ATOM     11  C   UNL     1      45.385  10.554  11.721  0.00  0.00    +0.000 C 
ATOM     12  C   UNL     1      45.269   9.011  11.622  0.00  0.00    +0.000 C 
ATOM     13  C   UNL     1      44.033   9.232  10.720  0.00  0.00    +0.000 C 
BRANCH  10  14
ATOM     14  O   UNL     1      42.965  10.686  12.473  0.00  0.00    +0.000 OA
ATOM     15  H   UNL     1      42.095  10.891  12.089  0.00  0.00    +0.000 HD
ENDBRANCH  10  14
ENDBRANCH   8  12
ENDBRANCH   2   8
ENDBRANCH   1   6
BRANCH   1  16
ATOM     16  C   UNL     1      43.345   3.363  11.220  0.00  0.00    +0.000 C 
BRANCH  16  17
ATOM     17  N   UNL     1      43.892   4.348  10.287  0.00  0.00    +0.000 N 
ATOM     18  C   UNL     1      44.758   3.727   9.354  0.00  0.00    +0.000 A 
ATOM     19  C   UNL     1      45.387   4.515   8.397  0.00  0.00    +0.000 A 
ATOM     20  C   UNL     1      46.243   3.916   7.469  0.00  0.00    +0.000 A 
ATOM     21  C   UNL     1      46.462   2.538   7.511  0.00  0.00    +0.000 A 
ATOM     22  C   UNL     1      45.788   1.827   8.486  0.00  0.00    +0.000 A 
ATOM     23  N   UNL     1      44.947   2.389   9.389  0.00  0.00    +0.000 NA
ATOM     24  H   UNL     1      44.415   5.078  10.765  0.00  0.00    +0.000 HD
BRANCH  21  25
ATOM     25  C   UNL     1      47.385   1.911   6.536  0.00  0.00    +0.000 C 
ATOM     26  N   UNL     1      46.945   1.667   5.262  0.00  0.00    +0.000 N 
ATOM     27  O   UNL     1      48.526   1.604   6.855  0.00  0.00    +0.000 OA
ATOM     28  H   UNL     1      46.028   1.868   4.893  0.00  0.00    +0.000 HD
ATOM     29  H   UNL     1      47.612   1.230   4.634  0.00  0.00    +0.000 HD
ENDBRANCH  21  25
ENDBRANCH  16  17
ENDBRANCH   1  16
TORSDOF 7
ENDMDL
MODEL 4
REMARK VINA RESULT:    -6.848      1.958      2.524
REMARK INTER + INTRA:         -10.361
REMARK INTER:                  -9.498
REMARK INTRA:                  -0.863
REMARK UNBOUND:                -0.912
REMARK  Name = 
REMARK  8 active torsions:
REMARK  status: ('A' for Active; 'I' for Inactive)
REMARK    1  A    between atoms: C_1  and  C_2
REMARK    2  A    between atoms: C_2  and  O_3
REMARK    3  A    between atoms: C_5  and  O_6
REMARK    4  A    between atoms: O_6  and  C_7
REMARK    5  A    between atoms: C_11  and  C_12
REMARK    6  A    between atoms: C_12  and  C_13
REMARK    7  A    between atoms: C_13  and  N_14
REMARK    8  A    between atoms: C_18  and  C_19
REMARK                            x       y       z     vdW  Elec       q    Type
REMARK                         _______ _______ _______ _____ _____    ______ ____
ROOT
ATOM      1  C   UNL     1      44.535   5.190  12.677  0.00  0.00    +0.000 C 
ENDROOT
BRANCH   1   6
ATOM      2  C   UNL     1      47.964   6.860  13.171  0.00  0.00    +0.000 A 
ATOM      3  C   UNL     1      47.765   8.085  12.546  0.00  0.00    +0.000 A 
ATOM      4  C   UNL     1      46.511   8.397  12.015  0.00  0.00    +0.000 A 
ATOM      5  C   UNL     1      45.462   7.471  12.082  0.00  0.00    +0.000 A 
ATOM      6  C   UNL     1      45.658   6.217  12.675  0.00  0.00    +0.000 A 
ATOM      7  C   UNL     1      46.920   5.939  13.226  0.00  0.00    +0.000 A 
BRANCH   2   8
ATOM      8  O   UNL     1      49.213   6.608  13.685  0.00  0.00    +0.000 OA
BRANCH   8  12
ATOM      9  C   UNL     1      50.003   6.655  18.120  0.00  0.00    +0.000 C 
ATOM     10  C   UNL     1      49.669   6.443  16.653  0.00  0.00    +0.000 C 
ATOM     11  C   UNL     1      50.789   6.883  15.675  0.00  0.00    +0.000 C 
ATOM     12  C   UNL     1      49.684   7.466  14.757  0.00  0.00    +0.000 C 
ATOM     13  C   UNL     1      48.778   7.535  16.007  0.00  0.00    +0.000 C 
BRANCH  10  14
ATOM     14  O   UNL     1      49.176   5.096  16.478  0.00  0.00    +0.000 OA
ATOM     15  H   UNL     1      48.380   5.180  15.925  0.00  0.00    +0.000 HD
ENDBRANCH  10  14
ENDBRANCH   8  12
ENDBRANCH   2   8
ENDBRANCH   1   6
BRANCH   1  16
ATOM     16  C   UNL     1      43.940   4.933  11.287  0.00  0.00    +0.000 C 
BRANCH  16  17
ATOM     17  N   UNL     1      43.958   3.524  10.892  0.00  0.00    +0.000 N 
ATOM     18  C   UNL     1      44.755   3.338   9.737  0.00  0.00    +0.000 A 
ATOM     19  C   UNL     1      44.874   2.059   9.205  0.00  0.00    +0.000 A 
ATOM     20  C   UNL     1      45.659   1.860   8.065  0.00  0.00    +0.000 A 
ATOM     21  C   UNL     1      46.312   2.941   7.471  0.00  0.00    +0.000 A 
ATOM     22  C   UNL     1      46.150   4.176   8.071  0.00  0.00    +0.000 A 
ATOM     23  N   UNL     1      45.400   4.387   9.181  0.00  0.00    +0.000 NA
ATOM     24  H   UNL     1      43.025   3.171  10.693  0.00  0.00    +0.000 HD
BRANCH  21  25
ATOM     25  C   UNL     1      47.127   2.727   6.253  0.00  0.00    +0.000 C 
ATOM     26  N   UNL     1      48.491   2.658   6.365  0.00  0.00    +0.000 N 
ATOM     27  O   UNL     1      46.601   2.618   5.153  0.00  0.00    +0.000 OA
ATOM     28  H   UNL     1      49.029   2.743   7.214  0.00  0.00    +0.000 HD
ATOM     29  H   UNL     1      49.004   2.517   5.502  0.00  0.00    +0.000 HD
ENDBRANCH  21  25
ENDBRANCH  16  17
ENDBRANCH   1  16
TORSDOF 7
ENDMDL
MODEL 5
REMARK VINA RESULT:    -6.819      3.431      8.762
REMARK INTER + INTRA:         -10.321
REMARK INTER:                  -9.607
REMARK INTRA:                  -0.714
REMARK UNBOUND:                -0.912
REMARK  Name = 
REMARK  8 active torsions:
REMARK  status: ('A' for Active; 'I' for Inactive)
REMARK    1  A    between atoms: C_1  and  C_2
REMARK    2  A    between atoms: C_2  and  O_3
REMARK    3  A    between atoms: C_5  and  O_6
REMARK    4  A    between atoms: O_6  and  C_7
REMARK    5  A    between atoms: C_11  and  C_12
REMARK    6  A    between atoms: C_12  and  C_13
REMARK    7  A    between atoms: C_13  and  N_14
REMARK    8  A    between atoms: C_18  and  C_19
REMARK                            x       y       z     vdW  Elec       q    Type
REMARK                         _______ _______ _______ _____ _____    ______ ____
ROOT
ATOM      1  C   UNL     1      46.238   6.358  12.970  0.00  0.00    +0.000 C 
ENDROOT
BRANCH   1   6
ATOM      2  C   UNL     1      45.277   4.866   9.558  0.00  0.00    +0.000 A 
ATOM      3  C   UNL     1      43.959   4.491   9.785  0.00  0.00    +0.000 A 
ATOM      4  C   UNL     1      43.361   4.768  11.016  0.00  0.00    +0.000 A 
ATOM      5  C   UNL     1      44.090   5.395  12.034  0.00  0.00    +0.000 A 
ATOM      6  C   UNL     1      45.432   5.745  11.834  0.00  0.00    +0.000 A 
ATOM      7  C   UNL     1      46.002   5.480  10.577  0.00  0.00    +0.000 A 
BRANCH   2   8
ATOM      8  O   UNL     1      45.813   4.580   8.326  0.00  0.00    +0.000 OA
BRANCH   8  12
ATOM      9  C   UNL     1      47.429   1.119   5.937  0.00  0.00    +0.000 C 
ATOM     10  C   UNL     1      47.079   2.363   6.736  0.00  0.00    +0.000 C 
ATOM     11  C   UNL     1      46.259   2.084   8.022  0.00  0.00    +0.000 C 
ATOM     12  C   UNL     1      45.411   3.339   7.690  0.00  0.00    +0.000 C 
ATOM     13  C   UNL     1      45.856   3.165   6.220  0.00  0.00    +0.000 C 
BRANCH  10  14
ATOM     14  O   UNL     1      48.275   3.154   6.912  0.00  0.00    +0.000 OA
ATOM     15  H   UNL     1      48.929   2.552   7.308  0.00  0.00    +0.000 HD
ENDBRANCH  10  14
ENDBRANCH   8  12
ENDBRANCH   2   8
ENDBRANCH   1   6
BRANCH   1  16
ATOM     16  C   UNL     1      47.218   5.376  13.623  0.00  0.00    +0.000 C 
BRANCH  16  17
ATOM     17  N   UNL     1      46.618   4.566  14.684  0.00  0.00    +0.000 N 
ATOM     18  C   UNL     1      47.388   4.643  15.869  0.00  0.00    +0.000 A 
ATOM     19  C   UNL     1      46.977   3.919  16.983  0.00  0.00    +0.000 A 
ATOM     20  C   UNL     1      47.726   3.988  18.161  0.00  0.00    +0.000 A 
ATOM     21  C   UNL     1      48.877   4.776  18.210  0.00  0.00    +0.000 A 
ATOM     22  C   UNL     1      49.207   5.472  17.063  0.00  0.00    +0.000 A 
ATOM     23  N   UNL     1      48.489   5.425  15.914  0.00  0.00    +0.000 NA
ATOM     24  H   UNL     1      46.542   3.586  14.420  0.00  0.00    +0.000 HD
BRANCH  21  25
ATOM     25  C   UNL     1      49.677   4.830  19.457  0.00  0.00    +0.000 C 
ATOM     26  N   UNL     1      49.163   4.285  20.604  0.00  0.00    +0.000 N 
ATOM     27  O   UNL     1      50.781   5.358  19.474  0.00  0.00    +0.000 OA
ATOM     28  H   UNL     1      48.267   3.836  20.707  0.00  0.00    +0.000 HD
ATOM     29  H   UNL     1      49.747   4.353  21.431  0.00  0.00    +0.000 HD
ENDBRANCH  21  25
ENDBRANCH  16  17
ENDBRANCH   1  16
TORSDOF 7
ENDMDL
MODEL 6
REMARK VINA RESULT:    -6.507      2.933      7.953
REMARK INTER + INTRA:          -9.892
REMARK INTER:                  -9.236
REMARK INTRA:                  -0.655
REMARK UNBOUND:                -0.912
REMARK  Name = 
REMARK  8 active torsions:
REMARK  status: ('A' for Active; 'I' for Inactive)
REMARK    1  A    between atoms: C_1  and  C_2
REMARK    2  A    between atoms: C_2  and  O_3
REMARK    3  A    between atoms: C_5  and  O_6
REMARK    4  A    between atoms: O_6  and  C_7
REMARK    5  A    between atoms: C_11  and  C_12
REMARK    6  A    between atoms: C_12  and  C_13
REMARK    7  A    between atoms: C_13  and  N_14
REMARK    8  A    between atoms: C_18  and  C_19
REMARK                            x       y       z     vdW  Elec       q    Type
REMARK                         _______ _______ _______ _____ _____    ______ ____
ROOT
ATOM      1  C   UNL     1      46.430   7.533  12.319  0.00  0.00    +0.000 C 
ENDROOT
BRANCH   1   6
ATOM      2  C   UNL     1      44.827   4.412  10.743  0.00  0.00    +0.000 A 
ATOM      3  C   UNL     1      43.763   4.184  11.608  0.00  0.00    +0.000 A 
ATOM      4  C   UNL     1      43.528   5.066  12.665  0.00  0.00    +0.000 A 
ATOM      5  C   UNL     1      44.374   6.162  12.877  0.00  0.00    +0.000 A 
ATOM      6  C   UNL     1      45.474   6.383  12.037  0.00  0.00    +0.000 A 
ATOM      7  C   UNL     1      45.672   5.497  10.964  0.00  0.00    +0.000 A 
BRANCH   2   8
ATOM      8  O   UNL     1      45.007   3.521   9.713  0.00  0.00    +0.000 OA
BRANCH   8  12
ATOM      9  C   UNL     1      46.847   2.735   5.677  0.00  0.00    +0.000 C 
ATOM     10  C   UNL     1      46.328   2.829   7.102  0.00  0.00    +0.000 C 
ATOM     11  C   UNL     1      44.799   3.067   7.209  0.00  0.00    +0.000 C 
ATOM     12  C   UNL     1      45.090   4.056   8.367  0.00  0.00    +0.000 C 
ATOM     13  C   UNL     1      46.516   4.205   7.791  0.00  0.00    +0.000 C 
BRANCH  10  14
ATOM     14  O   UNL     1      46.845   1.712   7.859  0.00  0.00    +0.000 OA
ATOM     15  H   UNL     1      47.498   2.092   8.471  0.00  0.00    +0.000 HD
ENDBRANCH  10  14
ENDBRANCH   8  12
ENDBRANCH   2   8
ENDBRANCH   1   6
BRANCH   1  16
ATOM     16  C   UNL     1      47.885   7.085  12.504  0.00  0.00    +0.000 C 
BRANCH  16  17
ATOM     17  N   UNL     1      48.476   7.517  13.771  0.00  0.00    +0.000 N 
ATOM     18  C   UNL     1      48.318   6.519  14.763  0.00  0.00    +0.000 A 
ATOM     19  C   UNL     1      48.805   6.765  16.042  0.00  0.00    +0.000 A 
ATOM     20  C   UNL     1      48.658   5.788  17.031  0.00  0.00    +0.000 A 
ATOM     21  C   UNL     1      48.025   4.581  16.731  0.00  0.00    +0.000 A 
ATOM     22  C   UNL     1      47.582   4.414  15.433  0.00  0.00    +0.000 A 
ATOM     23  N   UNL     1      47.723   5.346  14.458  0.00  0.00    +0.000 NA
ATOM     24  H   UNL     1      48.053   8.376  14.117  0.00  0.00    +0.000 HD
BRANCH  21  25
ATOM     25  C   UNL     1      47.857   3.557  17.789  0.00  0.00    +0.000 C 
ATOM     26  N   UNL     1      46.793   2.697  17.722  0.00  0.00    +0.000 N 
ATOM     27  O   UNL     1      48.647   3.477  18.720  0.00  0.00    +0.000 OA
ATOM     28  H   UNL     1      46.079   2.678  17.010  0.00  0.00    +0.000 HD
ATOM     29  H   UNL     1      46.718   2.019  18.473  0.00  0.00    +0.000 HD
ENDBRANCH  21  25
ENDBRANCH  16  17
ENDBRANCH   1  16
TORSDOF 7
ENDMDL
MODEL 7
REMARK VINA RESULT:    -6.418      3.886      7.498
REMARK INTER + INTRA:          -9.768
REMARK INTER:                  -8.803
REMARK INTRA:                  -0.965
REMARK UNBOUND:                -0.912
REMARK  Name = 
REMARK  8 active torsions:
REMARK  status: ('A' for Active; 'I' for Inactive)
REMARK    1  A    between atoms: C_1  and  C_2
REMARK    2  A    between atoms: C_2  and  O_3
REMARK    3  A    between atoms: C_5  and  O_6
REMARK    4  A    between atoms: O_6  and  C_7
REMARK    5  A    between atoms: C_11  and  C_12
REMARK    6  A    between atoms: C_12  and  C_13
REMARK    7  A    between atoms: C_13  and  N_14
REMARK    8  A    between atoms: C_18  and  C_19
REMARK                            x       y       z     vdW  Elec       q    Type
REMARK                         _______ _______ _______ _____ _____    ______ ____
ROOT
ATOM      1  C   UNL     1      49.270   8.963  12.158  0.00  0.00    +0.000 C 
ENDROOT
BRANCH   1   6
ATOM      2  C   UNL     1      45.526   8.122  12.411  0.00  0.00    +0.000 A 
ATOM      3  C   UNL     1      44.950   9.360  12.155  0.00  0.00    +0.000 A 
ATOM      4  C   UNL     1      45.762  10.453  11.846  0.00  0.00    +0.000 A 
ATOM      5  C   UNL     1      47.156  10.316  11.821  0.00  0.00    +0.000 A 
ATOM      6  C   UNL     1      47.754   9.084  12.115  0.00  0.00    +0.000 A 
ATOM      7  C   UNL     1      46.913   7.994  12.396  0.00  0.00    +0.000 A 
BRANCH   2   8
ATOM      8  O   UNL     1      44.681   7.078  12.700  0.00  0.00    +0.000 OA
BRANCH   8  12
ATOM      9  C   UNL     1      43.438   2.923  11.482  0.00  0.00    +0.000 C 
ATOM     10  C   UNL     1      43.913   4.238  12.076  0.00  0.00    +0.000 C 
ATOM     11  C   UNL     1      42.920   5.416  11.890  0.00  0.00    +0.000 C 
ATOM     12  C   UNL     1      44.139   6.324  11.585  0.00  0.00    +0.000 C 
ATOM     13  C   UNL     1      44.912   5.042  11.203  0.00  0.00    +0.000 C 
BRANCH  10  14
ATOM     14  O   UNL     1      44.363   4.003  13.428  0.00  0.00    +0.000 OA
ATOM     15  H   UNL     1      43.606   4.228  13.997  0.00  0.00    +0.000 HD
ENDBRANCH  10  14
ENDBRANCH   8  12
ENDBRANCH   2   8
ENDBRANCH   1   6
BRANCH   1  16
ATOM     16  C   UNL     1      49.760   7.606  12.678  0.00  0.00    +0.000 C 
BRANCH  16  17
ATOM     17  N   UNL     1      50.281   7.654  14.045  0.00  0.00    +0.000 N 
ATOM     18  C   UNL     1      49.527   6.813  14.899  0.00  0.00    +0.000 A 
ATOM     19  C   UNL     1      49.870   6.746  16.244  0.00  0.00    +0.000 A 
ATOM     20  C   UNL     1      49.136   5.918  17.099  0.00  0.00    +0.000 A 
ATOM     21  C   UNL     1      48.069   5.170  16.598  0.00  0.00    +0.000 A 
ATOM     22  C   UNL     1      47.805   5.285  15.247  0.00  0.00    +0.000 A 
ATOM     23  N   UNL     1      48.510   6.076  14.401  0.00  0.00    +0.000 NA
ATOM     24  H   UNL     1      50.258   8.596  14.429  0.00  0.00    +0.000 HD
BRANCH  21  25
ATOM     25  C   UNL     1      47.284   4.308  17.513  0.00  0.00    +0.000 C 
ATOM     26  N   UNL     1      47.337   4.543  18.861  0.00  0.00    +0.000 N 
ATOM     27  O   UNL     1      46.599   3.390  17.081  0.00  0.00    +0.000 OA
ATOM     28  H   UNL     1      47.871   5.260  19.326  0.00  0.00    +0.000 HD
ATOM     29  H   UNL     1      46.787   3.921  19.445  0.00  0.00    +0.000 HD
ENDBRANCH  21  25
ENDBRANCH  16  17
ENDBRANCH   1  16
TORSDOF 7
ENDMDL
MODEL 8
REMARK VINA RESULT:    -6.179      4.737      7.996
REMARK INTER + INTRA:          -9.439
REMARK INTER:                  -8.381
REMARK INTRA:                  -1.058
REMARK UNBOUND:                -0.912
REMARK  Name = 
REMARK  8 active torsions:
REMARK  status: ('A' for Active; 'I' for Inactive)
REMARK    1  A    between atoms: C_1  and  C_2
REMARK    2  A    between atoms: C_2  and  O_3
REMARK    3  A    between atoms: C_5  and  O_6
REMARK    4  A    between atoms: O_6  and  C_7
REMARK    5  A    between atoms: C_11  and  C_12
REMARK    6  A    between atoms: C_12  and  C_13
REMARK    7  A    between atoms: C_13  and  N_14
REMARK    8  A    between atoms: C_18  and  C_19
REMARK                            x       y       z     vdW  Elec       q    Type
REMARK                         _______ _______ _______ _____ _____    ______ ____
ROOT
ATOM      1  C   UNL     1      48.384   9.464  16.531  0.00  0.00    +0.000 C 
ENDROOT
BRANCH   1   6
ATOM      2  C   UNL     1      47.635   8.007  13.051  0.00  0.00    +0.000 A 
ATOM      3  C   UNL     1      48.918   7.804  12.557  0.00  0.00    +0.000 A 
ATOM      4  C   UNL     1      50.024   8.083  13.363  0.00  0.00    +0.000 A 
ATOM      5  C   UNL     1      49.849   8.594  14.656  0.00  0.00    +0.000 A 
ATOM      6  C   UNL     1      48.563   8.840  15.154  0.00  0.00    +0.000 A 
ATOM      7  C   UNL     1      47.467   8.525  14.333  0.00  0.00    +0.000 A 
BRANCH   2   8
ATOM      8  O   UNL     1      46.583   7.706  12.221  0.00  0.00    +0.000 OA
BRANCH   8  12
ATOM      9  C   UNL     1      42.975   5.210  11.198  0.00  0.00    +0.000 C 
ATOM     10  C   UNL     1      44.076   6.217  11.486  0.00  0.00    +0.000 C 
ATOM     11  C   UNL     1      45.459   5.833  10.898  0.00  0.00    +0.000 C 
ATOM     12  C   UNL     1      46.098   6.338  12.218  0.00  0.00    +0.000 C 
ATOM     13  C   UNL     1      44.725   6.111  12.890  0.00  0.00    +0.000 C 
BRANCH  10  14
ATOM     14  O   UNL     1      43.597   7.539  11.152  0.00  0.00    +0.000 OA
ATOM     15  H   UNL     1      44.172   8.154  11.639  0.00  0.00    +0.000 HD
ENDBRANCH  10  14
ENDBRANCH   8  12
ENDBRANCH   2   8
ENDBRANCH   1   6
BRANCH   1  16
ATOM     16  C   UNL     1      48.824   8.546  17.678  0.00  0.00    +0.000 C 
BRANCH  16  17
ATOM     17  N   UNL     1      47.845   7.510  18.010  0.00  0.00    +0.000 N 
ATOM     18  C   UNL     1      48.381   6.221  17.774  0.00  0.00    +0.000 A 
ATOM     19  C   UNL     1      47.581   5.110  18.018  0.00  0.00    +0.000 A 
ATOM     20  C   UNL     1      48.098   3.830  17.792  0.00  0.00    +0.000 A 
ATOM     21  C   UNL     1      49.404   3.679  17.323  0.00  0.00    +0.000 A 
ATOM     22  C   UNL     1      50.133   4.834  17.120  0.00  0.00    +0.000 A 
ATOM     23  N   UNL     1      49.653   6.083  17.341  0.00  0.00    +0.000 NA
ATOM     24  H   UNL     1      46.991   7.602  17.463  0.00  0.00    +0.000 HD
BRANCH  21  25
ATOM     25  C   UNL     1      49.939   2.320  17.068  0.00  0.00    +0.000 C 
ATOM     26  N   UNL     1      50.946   1.839  17.863  0.00  0.00    +0.000 N 
ATOM     27  O   UNL     1      49.500   1.630  16.157  0.00  0.00    +0.000 OA
ATOM     28  H   UNL     1      51.387   2.320  18.631  0.00  0.00    +0.000 HD
ATOM     29  H   UNL     1      51.282   0.908  17.644  0.00  0.00    +0.000 HD
ENDBRANCH  21  25
ENDBRANCH  16  17
ENDBRANCH   1  16
TORSDOF 7
ENDMDL
MODEL 9
REMARK VINA RESULT:    -6.012      3.820      5.419
REMARK INTER + INTRA:          -9.208
REMARK INTER:                  -8.008
REMARK INTRA:                  -1.200
REMARK UNBOUND:                -0.912
REMARK  Name = 
REMARK  8 active torsions:
REMARK  status: ('A' for Active; 'I' for Inactive)
REMARK    1  A    between atoms: C_1  and  C_2
REMARK    2  A    between atoms: C_2  and  O_3
REMARK    3  A    between atoms: C_5  and  O_6
REMARK    4  A    between atoms: O_6  and  C_7
REMARK    5  A    between atoms: C_11  and  C_12
REMARK    6  A    between atoms: C_12  and  C_13
REMARK    7  A    between atoms: C_13  and  N_14
REMARK    8  A    between atoms: C_18  and  C_19
REMARK                            x       y       z     vdW  Elec       q    Type
REMARK                         _______ _______ _______ _____ _____    ______ ____
ROOT
ATOM      1  C   UNL     1      50.547   8.437  13.008  0.00  0.00    +0.000 C 
ENDROOT
BRANCH   1   6
ATOM      2  C   UNL     1      49.018   7.937  16.501  0.00  0.00    +0.000 A 
ATOM      3  C   UNL     1      48.649   9.237  16.827  0.00  0.00    +0.000 A 
ATOM      4  C   UNL     1      48.841  10.265  15.902  0.00  0.00    +0.000 A 
ATOM      5  C   UNL     1      49.429  10.000  14.658  0.00  0.00    +0.000 A 
ATOM      6  C   UNL     1      49.842   8.702  14.330  0.00  0.00    +0.000 A 
ATOM      7  C   UNL     1      49.612   7.681  15.268  0.00  0.00    +0.000 A 
BRANCH   2   8
ATOM      8  O   UNL     1      48.797   6.962  17.443  0.00  0.00    +0.000 OA
BRANCH   8  12
ATOM      9  C   UNL     1      47.142   2.779  17.694  0.00  0.00    +0.000 C 
ATOM     10  C   UNL     1      47.531   4.248  17.719  0.00  0.00    +0.000 C 
ATOM     11  C   UNL     1      47.960   4.816  16.340  0.00  0.00    +0.000 C 
ATOM     12  C   UNL     1      49.088   5.590  17.071  0.00  0.00    +0.000 C 
ATOM     13  C   UNL     1      48.972   4.548  18.207  0.00  0.00    +0.000 C 
BRANCH  10  14
ATOM     14  O   UNL     1      46.503   4.990  18.412  0.00  0.00    +0.000 OA
ATOM     15  H   UNL     1      45.743   5.011  17.805  0.00  0.00    +0.000 HD
ENDBRANCH  10  14
ENDBRANCH   8  12
ENDBRANCH   2   8
ENDBRANCH   1   6
BRANCH   1  16
ATOM     16  C   UNL     1      49.706   7.616  12.022  0.00  0.00    +0.000 C 
BRANCH  16  17
ATOM     17  N   UNL     1      48.428   8.240  11.679  0.00  0.00    +0.000 N 
ATOM     18  C   UNL     1      47.348   7.392  12.025  0.00  0.00    +0.000 A 
ATOM     19  C   UNL     1      46.051   7.816  11.754  0.00  0.00    +0.000 A 
ATOM     20  C   UNL     1      44.975   6.989  12.092  0.00  0.00    +0.000 A 
ATOM     21  C   UNL     1      45.209   5.751  12.693  0.00  0.00    +0.000 A 
ATOM     22  C   UNL     1      46.526   5.414  12.938  0.00  0.00    +0.000 A 
ATOM     23  N   UNL     1      47.582   6.205  12.625  0.00  0.00    +0.000 NA
ATOM     24  H   UNL     1      48.359   8.450  10.686  0.00  0.00    +0.000 HD
BRANCH  21  25
ATOM     25  C   UNL     1      44.064   4.873  13.031  0.00  0.00    +0.000 C 
ATOM     26  N   UNL     1      42.819   5.424  13.174  0.00  0.00    +0.000 N 
ATOM     27  O   UNL     1      44.220   3.669  13.191  0.00  0.00    +0.000 OA
ATOM     28  H   UNL     1      42.577   6.397  13.075  0.00  0.00    +0.000 HD
ATOM     29  H   UNL     1      42.070   4.782  13.413  0.00  0.00    +0.000 HD
ENDBRANCH  21  25
ENDBRANCH  16  17
ENDBRANCH   1  16
TORSDOF 7
ENDMDL
