MODEL 1
REMARK VINA RESULT:    -7.146      0.000      0.000
REMARK INTER + INTRA:         -10.786
REMARK INTER:                  -9.652
REMARK INTRA:                  -1.134
REMARK UNBOUND:                -1.134
REMARK  Name = 
REMARK  8 active torsions:
REMARK  status: ('A' for Active; 'I' for Inactive)
REMARK    1  A    between atoms: C_1  and  C_2
REMARK    2  A    between atoms: C_2  and  C_3
REMARK    3  A    between atoms: C_2  and  N_15
REMARK    4  A    between atoms: C_3  and  C_5
REMARK    5  A    between atoms: N_15  and  C_16
REMARK    6  A    between atoms: N_15  and  C_17
REMARK    7  A    between atoms: C_20  and  C_21
REMARK    8  A    between atoms: C_21  and  N_22
REMARK                            x       y       z     vdW  Elec       q    Type
REMARK                         _______ _______ _______ _____ _____    ______ ____
ROOT
ATOM      1  C   UNL     1      43.521   3.794  13.658  0.00  0.00    +0.000 C 
ATOM      2  C   UNL     1      44.518   4.865  13.184  0.00  0.00    +0.000 C 
ENDROOT
BRANCH   2   3
ATOM      3  C   UNL     1      45.976   4.339  13.213  0.00  0.00    +0.000 C 
ATOM      4  O   UNL     1      46.205   3.137  13.057  0.00  0.00    +0.000 OA
BRANCH   3   5
ATOM      5  C   UNL     1      47.083   5.234  13.588  0.00  0.00    +0.000 A 
ATOM      6  C   UNL     1      47.718   6.097  12.711  0.00  0.00    +0.000 A 
ATOM      7  S   UNL     1      48.817   7.156  13.500  0.00  0.00    +0.000 S 
ATOM      8  C   UNL     1      48.486   6.466  15.020  0.00  0.00    +0.000 A 
ATOM      9  N   UNL     1      49.064   6.948  16.159  0.00  0.00    +0.000 NA
ATOM     10  C   UNL     1      48.709   6.323  17.235  0.00  0.00    +0.000 A 
ATOM     11  N   UNL     1      47.855   5.248  17.273  0.00  0.00    +0.000 N 
ATOM     12  C   UNL     1      47.334   4.663  16.137  0.00  0.00    +0.000 A 
ATOM     13  O   UNL     1      46.769   3.577  16.197  0.00  0.00    +0.000 OA
ATOM     14  C   UNL     1      47.607   5.405  14.921  0.00  0.00    +0.000 A 
ATOM     15  H   UNL     1      47.681   4.759  18.137  0.00  0.00    +0.000 HD
ENDBRANCH   3   5
ENDBRANCH   2   3
BRANCH   2  16
ATOM     16  N   UNL     1      44.120   5.504  11.887  0.00  0.00    +0.000 N 
ATOM     17  C   UNL     1      42.724   5.973  11.841  0.00  0.00    +0.000 C 
BRANCH  16  18
ATOM     18  C   UNL     1      44.535   4.970  10.653  0.00  0.00    +0.000 A 
ATOM     19  C   UNL     1      45.508   5.564   9.855  0.00  0.00    +0.000 A 
ATOM     20  C   UNL     1      45.947   4.991   8.661  0.00  0.00    +0.000 A 
ATOM     21  C   UNL     1      45.394   3.807   8.179  0.00  0.00    +0.000 A 
ATOM     22  C   UNL     1      44.375   3.212   8.934  0.00  0.00    +0.000 A 
ATOM     23  C   UNL     1      43.964   3.781  10.157  0.00  0.00    +0.000 A 
BRANCH  21  24
ATOM     24  C   UNL     1      45.819   3.309   6.818  0.00  0.00    +0.000 C 
BRANCH  24  25
ATOM     25  N   UNL     1      47.101   2.627   6.669  0.00  0.00    +0.000 NA
ATOM     26  C   UNL     1      47.711   2.656   5.341  0.00  0.00    +0.000 C 
ATOM     27  C   UNL     1      47.397   1.433   4.468  0.00  0.00    +0.000 C 
ATOM     28  O   UNL     1      47.701   0.207   5.145  0.00  0.00    +0.000 OA
ATOM     29  C   UNL     1      46.977   0.111   6.378  0.00  0.00    +0.000 C 
ATOM     30  C   UNL     1      47.256   1.312   7.299  0.00  0.00    +0.000 C 
ENDBRANCH  24  25
ENDBRANCH  21  24
ENDBRANCH  16  18
ENDBRANCH   2  16
TORSDOF 6
ENDMDL
MODEL 2
REMARK VINA RESULT:    -6.405      4.016      6.023
REMARK INTER + INTRA:          -9.785
REMARK INTER:                  -8.774
REMARK INTRA:                  -1.011
REMARK UNBOUND:                -1.134
REMARK  Name = 
REMARK  8 active torsions:
REMARK  status: ('A' for Active; 'I' for Inactive)
REMARK    1  A    between atoms: C_1  and  C_2
REMARK    2  A    between atoms: C_2  and  C_3
REMARK    3  A    between atoms: C_2  and  N_15
REMARK    4  A    between atoms: C_3  and  C_5
REMARK    5  A    between atoms: N_15  and  C_16
REMARK    6  A    between atoms: N_15  and  C_17
REMARK    7  A    between atoms: C_20  and  C_21
REMARK    8  A    between atoms: C_21  and  N_22
REMARK                            x       y       z     vdW  Elec       q    Type
REMARK                         _______ _______ _______ _____ _____    ______ ____
ROOT
ATOM      1  C   UNL     1      51.663   8.132  14.982  0.00  0.00    +0.000 C 
ATOM      2  C   UNL     1      50.221   7.660  14.729  0.00  0.00    +0.000 C 
ENDROOT
BRANCH   2   3
ATOM      3  C   UNL     1      49.437   7.489  16.055  0.00  0.00    +0.000 C 
ATOM      4  O   UNL     1      48.741   8.411  16.488  0.00  0.00    +0.000 OA
BRANCH   3   5
ATOM      5  C   UNL     1      49.641   6.295  16.892  0.00  0.00    +0.000 A 
ATOM      6  C   UNL     1      50.613   6.189  17.872  0.00  0.00    +0.000 A 
ATOM      7  S   UNL     1      50.454   4.761  18.814  0.00  0.00    +0.000 S 
ATOM      8  C   UNL     1      49.102   4.246  17.917  0.00  0.00    +0.000 A 
ATOM      9  N   UNL     1      48.433   3.101  18.236  0.00  0.00    +0.000 NA
ATOM     10  C   UNL     1      47.425   2.847  17.466  0.00  0.00    +0.000 A 
ATOM     11  N   UNL     1      47.043   3.616  16.393  0.00  0.00    +0.000 N 
ATOM     12  C   UNL     1      47.755   4.721  15.971  0.00  0.00    +0.000 A 
ATOM     13  O   UNL     1      47.518   5.239  14.885  0.00  0.00    +0.000 OA
ATOM     14  C   UNL     1      48.818   5.111  16.877  0.00  0.00    +0.000 A 
ATOM     15  H   UNL     1      46.295   3.319  15.787  0.00  0.00    +0.000 HD
ENDBRANCH   3   5
ENDBRANCH   2   3
BRANCH   2  16
ATOM     16  N   UNL     1      49.509   8.478  13.694  0.00  0.00    +0.000 N 
ATOM     17  C   UNL     1      49.529   9.929  13.943  0.00  0.00    +0.000 C 
BRANCH  16  18
ATOM     18  C   UNL     1      48.283   8.056  13.147  0.00  0.00    +0.000 A 
ATOM     19  C   UNL     1      47.056   8.598  13.520  0.00  0.00    +0.000 A 
ATOM     20  C   UNL     1      45.855   8.207  12.927  0.00  0.00    +0.000 A 
ATOM     21  C   UNL     1      45.818   7.211  11.954  0.00  0.00    +0.000 A 
ATOM     22  C   UNL     1      47.031   6.609  11.594  0.00  0.00    +0.000 A 
ATOM     23  C   UNL     1      48.243   7.037  12.174  0.00  0.00    +0.000 A 
BRANCH  21  24
ATOM     24  C   UNL     1      44.475   6.742  11.447  0.00  0.00    +0.000 C 
BRANCH  24  25
ATOM     25  N   UNL     1      43.710   5.772  12.227  0.00  0.00    +0.000 NA
ATOM     26  C   UNL     1      44.420   5.095  13.310  0.00  0.00    +0.000 C 
ATOM     27  C   UNL     1      45.018   3.733  12.927  0.00  0.00    +0.000 C 
ATOM     28  O   UNL     1      44.038   2.872  12.336  0.00  0.00    +0.000 OA
ATOM     29  C   UNL     1      43.453   3.479  11.177  0.00  0.00    +0.000 C 
ATOM     30  C   UNL     1      42.832   4.848  11.503  0.00  0.00    +0.000 C 
ENDBRANCH  24  25
ENDBRANCH  21  24
ENDBRANCH  16  18
ENDBRANCH   2  16
TORSDOF 6
ENDMDL
MODEL 3
REMARK VINA RESULT:    -6.294      3.912      6.985
REMARK INTER + INTRA:          -9.635
REMARK INTER:                  -8.813
REMARK INTRA:                  -0.822
REMARK UNBOUND:                -1.134
REMARK  Name = 
REMARK  8 active torsions:
REMARK  status: ('A' for Active; 'I' for Inactive)
REMARK    1  A    between atoms: C_1  and  C_2
REMARK    2  A    between atoms: C_2  and  C_3
REMARK    3  A    between atoms: C_2  and  N_15
REMARK    4  A    between atoms: C_3  and  C_5
REMARK    5  A    between atoms: N_15  and  C_16
REMARK    6  A    between atoms: N_15  and  C_17
REMARK    7  A    between atoms: C_20  and  C_21
REMARK    8  A    between atoms: C_21  and  N_22
REMARK                            x       y       z     vdW  Elec       q    Type
REMARK                         _______ _______ _______ _____ _____    ______ ____
ROOT
ATOM      1  C   UNL     1      48.168   6.874  18.526  0.00  0.00    +0.000 C 
ATOM      2  C   UNL     1      49.568   6.355  18.156  0.00  0.00    +0.000 C 
ENDROOT
BRANCH   2   3
ATOM      3  C   UNL     1      49.795   4.912  18.677  0.00  0.00    +0.000 C 
ATOM      4  O   UNL     1      48.859   4.272  19.162  0.00  0.00    +0.000 OA
BRANCH   3   5
ATOM      5  C   UNL     1      51.155   4.352  18.748  0.00  0.00    +0.000 A 
ATOM      6  C   UNL     1      52.205   4.944  19.428  0.00  0.00    +0.000 A 
ATOM      7  S   UNL     1      53.598   3.940  19.503  0.00  0.00    +0.000 S 
ATOM      8  C   UNL     1      52.834   2.709  18.610  0.00  0.00    +0.000 A 
ATOM      9  N   UNL     1      53.462   1.525  18.353  0.00  0.00    +0.000 NA
ATOM     10  C   UNL     1      52.751   0.689  17.668  0.00  0.00    +0.000 A 
ATOM     11  N   UNL     1      51.486   0.938  17.194  0.00  0.00    +0.000 N 
ATOM     12  C   UNL     1      50.858   2.159  17.337  0.00  0.00    +0.000 A 
ATOM     13  O   UNL     1      49.838   2.414  16.707  0.00  0.00    +0.000 OA
ATOM     14  C   UNL     1      51.567   3.082  18.203  0.00  0.00    +0.000 A 
ATOM     15  H   UNL     1      51.018   0.272  16.600  0.00  0.00    +0.000 HD
ENDBRANCH   3   5
ENDBRANCH   2   3
BRANCH   2  16
ATOM     16  N   UNL     1      49.900   6.546  16.707  0.00  0.00    +0.000 N 
ATOM     17  C   UNL     1      50.683   7.759  16.416  0.00  0.00    +0.000 C 
BRANCH  16  18
ATOM     18  C   UNL     1      48.956   6.277  15.700  0.00  0.00    +0.000 A 
ATOM     19  C   UNL     1      48.120   5.164  15.716  0.00  0.00    +0.000 A 
ATOM     20  C   UNL     1      47.150   4.944  14.737  0.00  0.00    +0.000 A 
ATOM     21  C   UNL     1      47.000   5.811  13.658  0.00  0.00    +0.000 A 
ATOM     22  C   UNL     1      47.861   6.914  13.585  0.00  0.00    +0.000 A 
ATOM     23  C   UNL     1      48.814   7.146  14.599  0.00  0.00    +0.000 A 
BRANCH  21  24
ATOM     24  C   UNL     1      46.023   5.446  12.565  0.00  0.00    +0.000 C 
BRANCH  24  25
ATOM     25  N   UNL     1      44.963   4.480  12.840  0.00  0.00    +0.000 NA
ATOM     26  C   UNL     1      45.048   3.196  12.148  0.00  0.00    +0.000 C 
ATOM     27  C   UNL     1      44.246   3.122  10.840  0.00  0.00    +0.000 C 
ATOM     28  O   UNL     1      42.881   3.511  11.035  0.00  0.00    +0.000 OA
ATOM     29  C   UNL     1      42.797   4.837  11.570  0.00  0.00    +0.000 C 
ATOM     30  C   UNL     1      43.582   4.971  12.887  0.00  0.00    +0.000 C 
ENDBRANCH  24  25
ENDBRANCH  21  24
ENDBRANCH  16  18
ENDBRANCH   2  16
TORSDOF 6
ENDMDL
MODEL 4
REMARK VINA RESULT:    -6.223      3.805      6.471
REMARK INTER + INTRA:          -9.540
REMARK INTER:                  -7.967
REMARK INTRA:                  -1.573
REMARK UNBOUND:                -1.134
REMARK  Name = 
REMARK  8 active torsions:
REMARK  status: ('A' for Active; 'I' for Inactive)
REMARK    1  A    between atoms: C_1  and  C_2
REMARK    2  A    between atoms: C_2  and  C_3
REMARK    3  A    between atoms: C_2  and  N_15
REMARK    4  A    between atoms: C_3  and  C_5
REMARK    5  A    between atoms: N_15  and  C_16
REMARK    6  A    between atoms: N_15  and  C_17
REMARK    7  A    between atoms: C_20  and  C_21
REMARK    8  A    between atoms: C_21  and  N_22
REMARK                            x       y       z     vdW  Elec       q    Type
REMARK                         _______ _______ _______ _____ _____    ______ ____
ROOT
ATOM      1  C   UNL     1      51.572   8.221  17.483  0.00  0.00    +0.000 C 
ATOM      2  C   UNL     1      50.492   7.557  16.612  0.00  0.00    +0.000 C 
ENDROOT
BRANCH   2   3
ATOM      3  C   UNL     1      49.400   6.878  17.479  0.00  0.00    +0.000 C 
ATOM      4  O   UNL     1      48.998   7.422  18.509  0.00  0.00    +0.000 OA
BRANCH   3   5
ATOM      5  C   UNL     1      48.951   5.509  17.173  0.00  0.00    +0.000 A 
ATOM      6  C   UNL     1      47.745   5.203  16.567  0.00  0.00    +0.000 A 
ATOM      7  S   UNL     1      47.612   3.541  16.152  0.00  0.00    +0.000 S 
ATOM      8  C   UNL     1      49.149   3.195  16.796  0.00  0.00    +0.000 A 
ATOM      9  N   UNL     1      49.683   1.941  16.723  0.00  0.00    +0.000 NA
ATOM     10  C   UNL     1      50.859   1.838  17.251  0.00  0.00    +0.000 A 
ATOM     11  N   UNL     1      51.535   2.861  17.868  0.00  0.00    +0.000 N 
ATOM     12  C   UNL     1      50.988   4.114  18.060  0.00  0.00    +0.000 A 
ATOM     13  O   UNL     1      51.525   4.921  18.811  0.00  0.00    +0.000 OA
ATOM     14  C   UNL     1      49.724   4.309  17.377  0.00  0.00    +0.000 A 
ATOM     15  H   UNL     1      52.416   2.693  18.328  0.00  0.00    +0.000 HD
ENDBRANCH   3   5
ENDBRANCH   2   3
BRANCH   2  16
ATOM     16  N   UNL     1      49.957   8.465  15.548  0.00  0.00    +0.000 N 
ATOM     17  C   UNL     1      49.663   9.835  16.004  0.00  0.00    +0.000 C 
BRANCH  16  18
ATOM     18  C   UNL     1      49.011   8.012  14.609  0.00  0.00    +0.000 A 
ATOM     19  C   UNL     1      49.239   6.936  13.756  0.00  0.00    +0.000 A 
ATOM     20  C   UNL     1      48.268   6.465  12.872  0.00  0.00    +0.000 A 
ATOM     21  C   UNL     1      47.026   7.085  12.762  0.00  0.00    +0.000 A 
ATOM     22  C   UNL     1      46.784   8.204  13.569  0.00  0.00    +0.000 A 
ATOM     23  C   UNL     1      47.760   8.650  14.486  0.00  0.00    +0.000 A 
BRANCH  21  24
ATOM     24  C   UNL     1      46.070   6.610  11.693  0.00  0.00    +0.000 C 
BRANCH  24  25
ATOM     25  N   UNL     1      45.564   5.241  11.737  0.00  0.00    +0.000 NA
ATOM     26  C   UNL     1      44.884   4.753  10.539  0.00  0.00    +0.000 C 
ATOM     27  C   UNL     1      43.356   4.907  10.565  0.00  0.00    +0.000 C 
ATOM     28  O   UNL     1      42.786   4.335  11.748  0.00  0.00    +0.000 OA
ATOM     29  C   UNL     1      43.346   4.930  12.926  0.00  0.00    +0.000 C 
ATOM     30  C   UNL     1      44.879   4.802  12.957  0.00  0.00    +0.000 C 
ENDBRANCH  24  25
ENDBRANCH  21  24
ENDBRANCH  16  18
ENDBRANCH   2  16
TORSDOF 6
ENDMDL
MODEL 5
REMARK VINA RESULT:    -6.026      3.896      6.507
REMARK INTER + INTRA:          -9.273
REMARK INTER:                  -7.869
REMARK INTRA:                  -1.405
REMARK UNBOUND:                -1.134
REMARK  Name = 
REMARK  8 active torsions:
REMARK  status: ('A' for Active; 'I' for Inactive)
REMARK    1  A    between atoms: C_1  and  C_2
REMARK    2  A    between atoms: C_2  and  C_3
REMARK    3  A    between atoms: C_2  and  N_15
REMARK    4  A    between atoms: C_3  and  C_5
REMARK    5  A    between atoms: N_15  and  C_16
REMARK    6  A    between atoms: N_15  and  C_17
REMARK    7  A    between atoms: C_20  and  C_21
REMARK    8  A    between atoms: C_21  and  N_22
REMARK                            x       y       z     vdW  Elec       q    Type
REMARK                         _______ _______ _______ _____ _____    ______ ____
ROOT
ATOM      1  C   UNL     1      48.542   9.383  16.261  0.00  0.00    +0.000 C 
ATOM      2  C   UNL     1      49.945   8.765  16.393  0.00  0.00    +0.000 C 
ENDROOT
BRANCH   2   3
ATOM      3  C   UNL     1      50.185   8.199  17.817  0.00  0.00    +0.000 C 
ATOM      4  O   UNL     1      51.164   8.562  18.472  0.00  0.00    +0.000 OA
BRANCH   3   5
ATOM      5  C   UNL     1      49.344   7.107  18.335  0.00  0.00    +0.000 A 
ATOM      6  C   UNL     1      48.155   7.296  19.019  0.00  0.00    +0.000 A 
ATOM      7  S   UNL     1      47.308   5.828  19.299  0.00  0.00    +0.000 S 
ATOM      8  C   UNL     1      48.523   4.911  18.537  0.00  0.00    +0.000 A 
ATOM      9  N   UNL     1      48.401   3.560  18.384  0.00  0.00    +0.000 NA
ATOM     10  C   UNL     1      49.403   3.006  17.781  0.00  0.00    +0.000 A 
ATOM     11  N   UNL     1      50.522   3.671  17.344  0.00  0.00    +0.000 N 
ATOM     12  C   UNL     1      50.734   5.015  17.575  0.00  0.00    +0.000 A 
ATOM     13  O   UNL     1      51.836   5.516  17.377  0.00  0.00    +0.000 OA
ATOM     14  C   UNL     1      49.585   5.699  18.137  0.00  0.00    +0.000 A 
ATOM     15  H   UNL     1      51.301   3.165  16.952  0.00  0.00    +0.000 HD
ENDBRANCH   3   5
ENDBRANCH   2   3
BRANCH   2  16
ATOM     16  N   UNL     1      50.271   7.807  15.288  0.00  0.00    +0.000 N 
ATOM     17  C   UNL     1      51.482   8.149  14.521  0.00  0.00    +0.000 C 
BRANCH  16  18
ATOM     18  C   UNL     1      49.263   7.273  14.464  0.00  0.00    +0.000 A 
ATOM     19  C   UNL     1      48.372   6.291  14.888  0.00  0.00    +0.000 A 
ATOM     20  C   UNL     1      47.343   5.814  14.076  0.00  0.00    +0.000 A 
ATOM     21  C   UNL     1      47.183   6.267  12.769  0.00  0.00    +0.000 A 
ATOM     22  C   UNL     1      48.096   7.217  12.293  0.00  0.00    +0.000 A 
ATOM     23  C   UNL     1      49.110   7.719  13.135  0.00  0.00    +0.000 A 
BRANCH  21  24
ATOM     24  C   UNL     1      46.134   5.615  11.899  0.00  0.00    +0.000 C 
BRANCH  24  25
ATOM     25  N   UNL     1      45.154   4.717  12.504  0.00  0.00    +0.000 NA
ATOM     26  C   UNL     1      45.137   3.339  12.016  0.00  0.00    +0.000 C 
ATOM     27  C   UNL     1      44.119   3.070  10.898  0.00  0.00    +0.000 C 
ATOM     28  O   UNL     1      42.803   3.501  11.266  0.00  0.00    +0.000 OA
ATOM     29  C   UNL     1      42.794   4.896  11.594  0.00  0.00    +0.000 C 
ATOM     30  C   UNL     1      43.795   5.226  12.715  0.00  0.00    +0.000 C 
ENDBRANCH  24  25
ENDBRANCH  21  24
ENDBRANCH  16  18
ENDBRANCH   2  16
TORSDOF 6
ENDMDL
MODEL 6
REMARK VINA RESULT:    -5.993      3.697      6.323
REMARK INTER + INTRA:          -9.229
REMARK INTER:                  -8.088
REMARK INTRA:                  -1.141
REMARK UNBOUND:                -1.134
REMARK  Name = 
REMARK  8 active torsions:
REMARK  status: ('A' for Active; 'I' for Inactive)
REMARK    1  A    between atoms: C_1  and  C_2
REMARK    2  A    between atoms: C_2  and  C_3
REMARK    3  A    between atoms: C_2  and  N_15
REMARK    4  A    between atoms: C_3  and  C_5
REMARK    5  A    between atoms: N_15  and  C_16
REMARK    6  A    between atoms: N_15  and  C_17
REMARK    7  A    between atoms: C_20  and  C_21
REMARK    8  A    between atoms: C_21  and  N_22
REMARK                            x       y       z     vdW  Elec       q    Type
REMARK                         _______ _______ _______ _____ _____    ______ ____
ROOT
ATOM      1  C   UNL     1      47.957   9.531  17.526  0.00  0.00    +0.000 C 
ATOM      2  C   UNL     1      49.176   8.621  17.303  0.00  0.00    +0.000 C 
ENDROOT
BRANCH   2   3
ATOM      3  C   UNL     1      48.989   7.241  17.986  0.00  0.00    +0.000 C 
ATOM      4  O   UNL     1      48.111   7.084  18.837  0.00  0.00    +0.000 OA
BRANCH   3   5
ATOM      5  C   UNL     1      49.955   6.156  17.749  0.00  0.00    +0.000 A 
ATOM      6  C   UNL     1      51.320   6.272  17.950  0.00  0.00    +0.000 A 
ATOM      7  S   UNL     1      52.145   4.772  17.793  0.00  0.00    +0.000 S 
ATOM      8  C   UNL     1      50.701   3.947  17.429  0.00  0.00    +0.000 A 
ATOM      9  N   UNL     1      50.687   2.597  17.229  0.00  0.00    +0.000 NA
ATOM     10  C   UNL     1      49.515   2.116  16.967  0.00  0.00    +0.000 A 
ATOM     11  N   UNL     1      48.366   2.861  16.860  0.00  0.00    +0.000 N 
ATOM     12  C   UNL     1      48.354   4.238  16.947  0.00  0.00    +0.000 A 
ATOM     13  O   UNL     1      47.360   4.876  16.619  0.00  0.00    +0.000 OA
ATOM     14  C   UNL     1      49.622   4.807  17.361  0.00  0.00    +0.000 A 
ATOM     15  H   UNL     1      47.499   2.432  16.576  0.00  0.00    +0.000 HD
ENDBRANCH   3   5
ENDBRANCH   2   3
BRANCH   2  16
ATOM     16  N   UNL     1      49.596   8.544  15.866  0.00  0.00    +0.000 N 
ATOM     17  C   UNL     1      50.384   9.697  15.397  0.00  0.00    +0.000 C 
BRANCH  16  18
ATOM     18  C   UNL     1      48.718   8.071  14.873  0.00  0.00    +0.000 A 
ATOM     19  C   UNL     1      47.641   8.811  14.393  0.00  0.00    +0.000 A 
ATOM     20  C   UNL     1      46.815   8.349  13.368  0.00  0.00    +0.000 A 
ATOM     21  C   UNL     1      47.000   7.091  12.800  0.00  0.00    +0.000 A 
ATOM     22  C   UNL     1      48.043   6.300  13.298  0.00  0.00    +0.000 A 
ATOM     23  C   UNL     1      48.895   6.791  14.310  0.00  0.00    +0.000 A 
BRANCH  21  24
ATOM     24  C   UNL     1      45.992   6.597  11.789  0.00  0.00    +0.000 C 
BRANCH  24  25
ATOM     25  N   UNL     1      45.506   5.222  11.870  0.00  0.00    +0.000 NA
ATOM     26  C   UNL     1      45.038   4.616  10.625  0.00  0.00    +0.000 C 
ATOM     27  C   UNL     1      43.523   4.728  10.392  0.00  0.00    +0.000 C 
ATOM     28  O   UNL     1      42.778   4.240  11.513  0.00  0.00    +0.000 OA
ATOM     29  C   UNL     1      43.130   4.947  12.710  0.00  0.00    +0.000 C 
ATOM     30  C   UNL     1      44.639   4.866  12.997  0.00  0.00    +0.000 C 
ENDBRANCH  24  25
ENDBRANCH  21  24
ENDBRANCH  16  18
ENDBRANCH   2  16
TORSDOF 6
ENDMDL
MODEL 7
REMARK VINA RESULT:    -5.926      4.516      8.586
REMARK INTER + INTRA:          -9.138
REMARK INTER:                  -8.105
REMARK INTRA:                  -1.033
REMARK UNBOUND:                -1.134
REMARK  Name = 
REMARK  8 active torsions:
REMARK  status: ('A' for Active; 'I' for Inactive)
REMARK    1  A    between atoms: C_1  and  C_2
REMARK    2  A    between atoms: C_2  and  C_3
REMARK    3  A    between atoms: C_2  and  N_15
REMARK    4  A    between atoms: C_3  and  C_5
REMARK    5  A    between atoms: N_15  and  C_16
REMARK    6  A    between atoms: N_15  and  C_17
REMARK    7  A    between atoms: C_20  and  C_21
REMARK    8  A    between atoms: C_21  and  N_22
REMARK                            x       y       z     vdW  Elec       q    Type
REMARK                         _______ _______ _______ _____ _____    ______ ____
ROOT
ATOM      1  C   UNL     1      48.850   7.572  11.514  0.00  0.00    +0.000 C 
ATOM      2  C   UNL     1      48.260   8.679  12.405  0.00  0.00    +0.000 C 
ENDROOT
BRANCH   2   3
ATOM      3  C   UNL     1      46.844   8.304  12.914  0.00  0.00    +0.000 C 
ATOM      4  O   UNL     1      46.157   9.137  13.509  0.00  0.00    +0.000 OA
BRANCH   3   5
ATOM      5  C   UNL     1      46.371   6.911  12.840  0.00  0.00    +0.000 A 
ATOM      6  C   UNL     1      47.034   5.833  13.401  0.00  0.00    +0.000 A 
ATOM      7  S   UNL     1      46.120   4.380  13.329  0.00  0.00    +0.000 S 
ATOM      8  C   UNL     1      44.835   5.156  12.526  0.00  0.00    +0.000 A 
ATOM      9  N   UNL     1      43.690   4.486  12.207  0.00  0.00    +0.000 NA
ATOM     10  C   UNL     1      42.804   5.213  11.605  0.00  0.00    +0.000 A 
ATOM     11  N   UNL     1      42.970   6.534  11.270  0.00  0.00    +0.000 N 
ATOM     12  C   UNL     1      44.150   7.218  11.476  0.00  0.00    +0.000 A 
ATOM     13  O   UNL     1      44.335   8.315  10.959  0.00  0.00    +0.000 OA
ATOM     14  C   UNL     1      45.124   6.480  12.258  0.00  0.00    +0.000 A 
ATOM     15  H   UNL     1      42.270   7.020  10.731  0.00  0.00    +0.000 HD
ENDBRANCH   3   5
ENDBRANCH   2   3
BRANCH   2  16
ATOM     16  N   UNL     1      49.201   9.131  13.480  0.00  0.00    +0.000 N 
ATOM     17  C   UNL     1      50.539   9.517  12.999  0.00  0.00    +0.000 C 
BRANCH  16  18
ATOM     18  C   UNL     1      49.261   8.472  14.722  0.00  0.00    +0.000 A 
ATOM     19  C   UNL     1      48.597   8.925  15.859  0.00  0.00    +0.000 A 
ATOM     20  C   UNL     1      48.623   8.227  17.067  0.00  0.00    +0.000 A 
ATOM     21  C   UNL     1      49.360   7.055  17.211  0.00  0.00    +0.000 A 
ATOM     22  C   UNL     1      50.082   6.600  16.100  0.00  0.00    +0.000 A 
ATOM     23  C   UNL     1      50.020   7.294  14.873  0.00  0.00    +0.000 A 
BRANCH  21  24
ATOM     24  C   UNL     1      49.454   6.420  18.579  0.00  0.00    +0.000 C 
BRANCH  24  25
ATOM     25  N   UNL     1      48.703   5.200  18.858  0.00  0.00    +0.000 NA
ATOM     26  C   UNL     1      49.440   3.940  18.772  0.00  0.00    +0.000 C 
ATOM     27  C   UNL     1      49.336   3.232  17.413  0.00  0.00    +0.000 C 
ATOM     28  O   UNL     1      47.973   3.058  17.010  0.00  0.00    +0.000 OA
ATOM     29  C   UNL     1      47.293   4.318  16.944  0.00  0.00    +0.000 C 
ATOM     30  C   UNL     1      47.360   5.073  18.283  0.00  0.00    +0.000 C 
ENDBRANCH  24  25
ENDBRANCH  21  24
ENDBRANCH  16  18
ENDBRANCH   2  16
TORSDOF 6
ENDMDL
MODEL 8
REMARK VINA RESULT:    -5.829      3.402      5.579
REMARK INTER + INTRA:          -9.007
REMARK INTER:                  -8.620
REMARK INTRA:                  -0.387
REMARK UNBOUND:                -1.134
REMARK  Name = 
REMARK  8 active torsions:
REMARK  status: ('A' for Active; 'I' for Inactive)
REMARK    1  A    between atoms: C_1  and  C_2
REMARK    2  A    between atoms: C_2  and  C_3
REMARK    3  A    between atoms: C_2  and  N_15
REMARK    4  A    between atoms: C_3  and  C_5
REMARK    5  A    between atoms: N_15  and  C_16
REMARK    6  A    between atoms: N_15  and  C_17
REMARK    7  A    between atoms: C_20  and  C_21
REMARK    8  A    between atoms: C_21  and  N_22
REMARK                            x       y       z     vdW  Elec       q    Type
REMARK                         _______ _______ _______ _____ _____    ______ ____
ROOT
ATOM      1  C   UNL     1      48.190   8.837  15.215  0.00  0.00    +0.000 C 
ATOM      2  C   UNL     1      49.197   7.715  14.908  0.00  0.00    +0.000 C 
ENDROOT
BRANCH   2   3
ATOM      3  C   UNL     1      49.519   6.878  16.173  0.00  0.00    +0.000 C 
ATOM      4  O   UNL     1      48.645   6.668  17.017  0.00  0.00    +0.000 OA
BRANCH   3   5
ATOM      5  C   UNL     1      50.902   6.466  16.461  0.00  0.00    +0.000 A 
ATOM      6  C   UNL     1      52.014   7.260  16.237  0.00  0.00    +0.000 A 
ATOM      7  S   UNL     1      53.457   6.580  16.875  0.00  0.00    +0.000 S 
ATOM      8  C   UNL     1      52.630   5.203  17.439  0.00  0.00    +0.000 A 
ATOM      9  N   UNL     1      53.277   4.225  18.138  0.00  0.00    +0.000 NA
ATOM     10  C   UNL     1      52.513   3.246  18.503  0.00  0.00    +0.000 A 
ATOM     11  N   UNL     1      51.175   3.143  18.211  0.00  0.00    +0.000 N 
ATOM     12  C   UNL     1      50.509   4.054  17.417  0.00  0.00    +0.000 A 
ATOM     13  O   UNL     1      49.385   3.808  16.993  0.00  0.00    +0.000 OA
ATOM     14  C   UNL     1      51.294   5.228  17.089  0.00  0.00    +0.000 A 
ATOM     15  H   UNL     1      50.656   2.316  18.459  0.00  0.00    +0.000 HD
ENDBRANCH   3   5
ENDBRANCH   2   3
BRANCH   2  16
ATOM     16  N   UNL     1      48.819   6.899  13.710  0.00  0.00    +0.000 N 
ATOM     17  C   UNL     1      49.447   7.336  12.451  0.00  0.00    +0.000 C 
BRANCH  16  18
ATOM     18  C   UNL     1      47.496   6.463  13.511  0.00  0.00    +0.000 A 
ATOM     19  C   UNL     1      47.046   5.199  13.885  0.00  0.00    +0.000 A 
ATOM     20  C   UNL     1      45.717   4.805  13.732  0.00  0.00    +0.000 A 
ATOM     21  C   UNL     1      44.773   5.646  13.148  0.00  0.00    +0.000 A 
ATOM     22  C   UNL     1      45.206   6.906  12.714  0.00  0.00    +0.000 A 
ATOM     23  C   UNL     1      46.545   7.309  12.906  0.00  0.00    +0.000 A 
BRANCH  21  24
ATOM     24  C   UNL     1      43.384   5.112  12.891  0.00  0.00    +0.000 C 
BRANCH  24  25
ATOM     25  N   UNL     1      43.085   4.470  11.614  0.00  0.00    +0.000 NA
ATOM     26  C   UNL     1      43.304   3.027  11.537  0.00  0.00    +0.000 C 
ATOM     27  C   UNL     1      44.676   2.619  10.980  0.00  0.00    +0.000 C 
ATOM     28  O   UNL     1      44.944   3.248   9.721  0.00  0.00    +0.000 OA
ATOM     29  C   UNL     1      44.882   4.675   9.837  0.00  0.00    +0.000 C 
ATOM     30  C   UNL     1      43.524   5.144  10.388  0.00  0.00    +0.000 C 
ENDBRANCH  24  25
ENDBRANCH  21  24
ENDBRANCH  16  18
ENDBRANCH   2  16
TORSDOF 6
ENDMDL
MODEL 9
REMARK VINA RESULT:    -5.625      3.747      5.891
REMARK INTER + INTRA:          -8.731
REMARK INTER:                  -7.455
REMARK INTRA:                  -1.277
REMARK UNBOUND:                -1.134
REMARK  Name = 
REMARK  8 active torsions:
REMARK  status: ('A' for Active; 'I' for Inactive)
REMARK    1  A    between atoms: C_1  and  C_2
REMARK    2  A    between atoms: C_2  and  C_3
REMARK    3  A    between atoms: C_2  and  N_15
REMARK    4  A    between atoms: C_3  and  C_5
REMARK    5  A    between atoms: N_15  and  C_16
REMARK    6  A    between atoms: N_15  and  C_17
REMARK    7  A    between atoms: C_20  and  C_21
REMARK    8  A    between atoms: C_21  and  N_22
REMARK                            x       y       z     vdW  Elec       q    Type
REMARK                         _______ _______ _______ _____ _____    ______ ____
ROOT
ATOM      1  C   UNL     1      48.543   9.400  16.363  0.00  0.00    +0.000 C 
ATOM      2  C   UNL     1      49.646   9.032  15.356  0.00  0.00    +0.000 C 
ENDROOT
BRANCH   2   3
ATOM      3  C   UNL     1      50.144   7.579  15.563  0.00  0.00    +0.000 C 
ATOM      4  O   UNL     1      51.249   7.234  15.136  0.00  0.00    +0.000 OA
BRANCH   3   5
ATOM      5  C   UNL     1      49.245   6.556  16.122  0.00  0.00    +0.000 A 
ATOM      6  C   UNL     1      48.302   5.861  15.384  0.00  0.00    +0.000 A 
ATOM      7  S   UNL     1      47.565   4.590  16.275  0.00  0.00    +0.000 S 
ATOM      8  C   UNL     1      48.471   4.960  17.669  0.00  0.00    +0.000 A 
ATOM      9  N   UNL     1      48.362   4.211  18.804  0.00  0.00    +0.000 NA
ATOM     10  C   UNL     1      49.117   4.613  19.775  0.00  0.00    +0.000 A 
ATOM     11  N   UNL     1      49.946   5.707  19.723  0.00  0.00    +0.000 N 
ATOM     12  C   UNL     1      50.005   6.553  18.634  0.00  0.00    +0.000 A 
ATOM     13  O   UNL     1      50.576   7.635  18.714  0.00  0.00    +0.000 OA
ATOM     14  C   UNL     1      49.269   6.072  17.481  0.00  0.00    +0.000 A 
ATOM     15  H   UNL     1      50.449   6.011  20.542  0.00  0.00    +0.000 HD
ENDBRANCH   3   5
ENDBRANCH   2   3
BRANCH   2  16
ATOM     16  N   UNL     1      49.280   9.361  13.940  0.00  0.00    +0.000 N 
ATOM     17  C   UNL     1      49.275  10.802  13.630  0.00  0.00    +0.000 C 
BRANCH  16  18
ATOM     18  C   UNL     1      48.245   8.679  13.276  0.00  0.00    +0.000 A 
ATOM     19  C   UNL     1      48.472   7.699  12.313  0.00  0.00    +0.000 A 
ATOM     20  C   UNL     1      47.433   6.993  11.707  0.00  0.00    +0.000 A 
ATOM     21  C   UNL     1      46.100   7.268  12.001  0.00  0.00    +0.000 A 
ATOM     22  C   UNL     1      45.836   8.285  12.928  0.00  0.00    +0.000 A 
ATOM     23  C   UNL     1      46.895   8.969  13.563  0.00  0.00    +0.000 A 
BRANCH  21  24
ATOM     24  C   UNL     1      45.022   6.562  11.214  0.00  0.00    +0.000 C 
BRANCH  24  25
ATOM     25  N   UNL     1      44.133   5.623  11.894  0.00  0.00    +0.000 NA
ATOM     26  C   UNL     1      44.722   4.815  12.959  0.00  0.00    +0.000 C 
ATOM     27  C   UNL     1      45.212   3.429  12.513  0.00  0.00    +0.000 C 
ATOM     28  O   UNL     1      44.187   2.703  11.824  0.00  0.00    +0.000 OA
ATOM     29  C   UNL     1      43.719   3.434  10.683  0.00  0.00    +0.000 C 
ATOM     30  C   UNL     1      43.211   4.833  11.071  0.00  0.00    +0.000 C 
ENDBRANCH  24  25
ENDBRANCH  21  24
ENDBRANCH  16  18
ENDBRANCH   2  16
TORSDOF 6
ENDMDL
