MODEL 1
REMARK VINA RESULT:    -7.971      0.000      0.000
REMARK INTER + INTRA:         -11.555
REMARK INTER:                 -10.767
REMARK INTRA:                  -0.788
REMARK UNBOUND:                -0.788
REMARK  Name = 
REMARK  6 active torsions:
REMARK  status: ('A' for Active; 'I' for Inactive)
REMARK    1  A    between atoms: C_2  and  C_4
REMARK    2  A    between atoms: C_7  and  C_8
REMARK    3  A    between atoms: C_8  and  O_9
REMARK    4  A    between atoms: O_9  and  C_10
REMARK    5  A    between atoms: C_14  and  N_15
REMARK    6  A    between atoms: N_15  and  C_16
REMARK                            x       y       z     vdW  Elec       q    Type
REMARK                         _______ _______ _______ _____ _____    ______ ____
ROOT
ATOM      1  O   UNL     1      44.187   4.955  10.982  0.00  0.00    +0.000 OA
ENDROOT
BRANCH   1   2
ATOM      2  C   UNL     1      45.270   5.296  11.748  0.00  0.00    +0.000 A 
ATOM      3  C   UNL     1      46.179   6.317  11.467  0.00  0.00    +0.000 A 
ATOM      4  C   UNL     1      47.262   6.544  12.317  0.00  0.00    +0.000 A 
ATOM      5  C   UNL     1      47.451   5.748  13.448  0.00  0.00    +0.000 A 
ATOM      6  C   UNL     1      46.542   4.736  13.756  0.00  0.00    +0.000 A 
ATOM      7  C   UNL     1      45.450   4.524  12.899  0.00  0.00    +0.000 A 
BRANCH   6   8
ATOM      8  N   UNL     1      46.692   3.890  14.875  0.00  0.00    +0.000 N 
ATOM      9  H   UNL     1      45.779   3.594  15.216  0.00  0.00    +0.000 HD
BRANCH   8  10
ATOM     10  C   UNL     1      47.677   4.020  15.906  0.00  0.00    +0.000 C 
ATOM     11  C   UNL     1      48.221   2.648  16.364  0.00  0.00    +0.000 C 
ATOM     12  C   UNL     1      47.928   3.049  17.818  0.00  0.00    +0.000 C 
ATOM     13  C   UNL     1      47.020   4.172  17.295  0.00  0.00    +0.000 C 
ENDBRANCH   8  10
ENDBRANCH   6   8
ENDBRANCH   1   2
BRANCH   1  14
ATOM     14  C   UNL     1      44.084   3.579  10.610  0.00  0.00    +0.000 C 
BRANCH  14  18
ATOM     15  C   UNL     1      46.545   2.644   7.179  0.00  0.00    +0.000 A 
ATOM     16  C   UNL     1      46.127   3.963   7.391  0.00  0.00    +0.000 A 
ATOM     17  C   UNL     1      45.314   4.271   8.487  0.00  0.00    +0.000 A 
ATOM     18  C   UNL     1      44.897   3.268   9.372  0.00  0.00    +0.000 A 
ATOM     19  C   UNL     1      45.314   1.946   9.142  0.00  0.00    +0.000 A 
ATOM     20  C   UNL     1      46.124   1.633   8.049  0.00  0.00    +0.000 A 
BRANCH  15  22
ATOM     21  N   UNL     1      48.783   2.391   6.257  0.00  0.00    +0.000 N 
ATOM     22  C   UNL     1      47.433   2.276   6.047  0.00  0.00    +0.000 C 
ATOM     23  O   UNL     1      46.991   1.842   4.993  0.00  0.00    +0.000 OA
ATOM     24  H   UNL     1      49.376   2.021   5.527  0.00  0.00    +0.000 HD
ATOM     25  H   UNL     1      49.175   2.484   7.182  0.00  0.00    +0.000 HD
ENDBRANCH  15  22
ENDBRANCH  14  18
ENDBRANCH   1  14
TORSDOF 6
ENDMDL
MODEL 2
REMARK VINA RESULT:    -7.794      1.859      3.159
REMARK INTER + INTRA:         -11.316
REMARK INTER:                 -10.302
REMARK INTRA:                  -1.014
REMARK UNBOUND:                -0.788
REMARK  Name = 
REMARK  6 active torsions:
REMARK  status: ('A' for Active; 'I' for Inactive)
REMARK    1  A    between atoms: C_2  and  C_4
REMARK    2  A    between atoms: C_7  and  C_8
REMARK    3  A    between atoms: C_8  and  O_9
REMARK    4  A    between atoms: O_9  and  C_10
REMARK    5  A    between atoms: C_14  and  N_15
REMARK    6  A    between atoms: N_15  and  C_16
REMARK                            x       y       z     vdW  Elec       q    Type
REMARK                         _______ _______ _______ _____ _____    ______ ____
ROOT
ATOM      1  O   UNL     1      43.883   3.664  11.533  0.00  0.00    +0.000 OA
ENDROOT
BRANCH   1   2
ATOM      2  C   UNL     1      44.960   4.044  12.290  0.00  0.00    +0.000 A 
ATOM      3  C   UNL     1      45.863   3.182  12.914  0.00  0.00    +0.000 A 
ATOM      4  C   UNL     1      46.904   3.699  13.685  0.00  0.00    +0.000 A 
ATOM      5  C   UNL     1      47.046   5.078  13.848  0.00  0.00    +0.000 A 
ATOM      6  C   UNL     1      46.166   5.955  13.215  0.00  0.00    +0.000 A 
ATOM      7  C   UNL     1      45.128   5.424  12.433  0.00  0.00    +0.000 A 
BRANCH   6   8
ATOM      8  N   UNL     1      46.250   7.357  13.358  0.00  0.00    +0.000 N 
ATOM      9  H   UNL     1      45.324   7.749  13.520  0.00  0.00    +0.000 HD
BRANCH   8  10
ATOM     10  C   UNL     1      47.126   8.227  12.634  0.00  0.00    +0.000 C 
ATOM     11  C   UNL     1      47.971   7.462  11.590  0.00  0.00    +0.000 C 
ATOM     12  C   UNL     1      49.232   8.123  12.168  0.00  0.00    +0.000 C 
ATOM     13  C   UNL     1      48.427   8.496  13.422  0.00  0.00    +0.000 C 
ENDBRANCH   8  10
ENDBRANCH   6   8
ENDBRANCH   1   2
BRANCH   1  14
ATOM     14  C   UNL     1      43.768   4.274  10.246  0.00  0.00    +0.000 C 
BRANCH  14  18
ATOM     15  C   UNL     1      46.568   2.440   7.509  0.00  0.00    +0.000 A 
ATOM     16  C   UNL     1      46.367   3.825   7.468  0.00  0.00    +0.000 A 
ATOM     17  C   UNL     1      45.449   4.424   8.335  0.00  0.00    +0.000 A 
ATOM     18  C   UNL     1      44.711   3.650   9.240  0.00  0.00    +0.000 A 
ATOM     19  C   UNL     1      44.913   2.260   9.265  0.00  0.00    +0.000 A 
ATOM     20  C   UNL     1      45.827   1.656   8.400  0.00  0.00    +0.000 A 
BRANCH  15  22
ATOM     21  N   UNL     1      48.729   2.430   6.390  0.00  0.00    +0.000 N 
ATOM     22  C   UNL     1      47.555   1.764   6.628  0.00  0.00    +0.000 C 
ATOM     23  O   UNL     1      47.358   0.646   6.175  0.00  0.00    +0.000 OA
ATOM     24  H   UNL     1      49.439   1.910   5.894  0.00  0.00    +0.000 HD
ATOM     25  H   UNL     1      49.025   3.212   6.954  0.00  0.00    +0.000 HD
ENDBRANCH  15  22
ENDBRANCH  14  18
ENDBRANCH   1  14
TORSDOF 6
ENDMDL
MODEL 3
REMARK VINA RESULT:    -7.548      2.712      4.906
REMARK INTER + INTRA:         -10.984
REMARK INTER:                 -10.091
REMARK INTRA:                  -0.893
REMARK UNBOUND:                -0.788
REMARK  Name = 
REMARK  6 active torsions:
REMARK  status: ('A' for Active; 'I' for Inactive)
REMARK    1  A    between atoms: C_2  and  C_4
REMARK    2  A    between atoms: C_7  and  C_8
REMARK    3  A    between atoms: C_8  and  O_9
REMARK    4  A    between atoms: O_9  and  C_10
REMARK    5  A    between atoms: C_14  and  N_15
REMARK    6  A    between atoms: N_15  and  C_16
REMARK                            x       y       z     vdW  Elec       q    Type
REMARK                         _______ _______ _______ _____ _____    ______ ____
ROOT
ATOM      1  O   UNL     1      44.269   4.307  11.585  0.00  0.00    +0.000 OA
ENDROOT
BRANCH   1   2
ATOM      2  C   UNL     1      45.042   5.362  11.990  0.00  0.00    +0.000 A 
ATOM      3  C   UNL     1      46.318   5.271  12.548  0.00  0.00    +0.000 A 
ATOM      4  C   UNL     1      46.991   6.426  12.949  0.00  0.00    +0.000 A 
ATOM      5  C   UNL     1      46.391   7.678  12.807  0.00  0.00    +0.000 A 
ATOM      6  C   UNL     1      45.125   7.790  12.234  0.00  0.00    +0.000 A 
ATOM      7  C   UNL     1      44.462   6.623  11.824  0.00  0.00    +0.000 A 
BRANCH   6   8
ATOM      8  N   UNL     1      44.462   9.028  12.082  0.00  0.00    +0.000 N 
ATOM      9  H   UNL     1      43.678   9.087  12.729  0.00  0.00    +0.000 HD
BRANCH   8  10
ATOM     10  C   UNL     1      44.247   9.723  10.849  0.00  0.00    +0.000 C 
ATOM     11  C   UNL     1      44.413  11.251  11.009  0.00  0.00    +0.000 C 
ATOM     12  C   UNL     1      43.047  11.442  10.332  0.00  0.00    +0.000 C 
ATOM     13  C   UNL     1      42.742   9.960  10.594  0.00  0.00    +0.000 C 
ENDBRANCH   8  10
ENDBRANCH   6   8
ENDBRANCH   1   2
BRANCH   1  14
ATOM     14  C   UNL     1      43.855   4.315  10.217  0.00  0.00    +0.000 C 
BRANCH  14  18
ATOM     15  C   UNL     1      46.633   2.403   7.512  0.00  0.00    +0.000 A 
ATOM     16  C   UNL     1      45.890   1.622   8.406  0.00  0.00    +0.000 A 
ATOM     17  C   UNL     1      45.005   2.234   9.298  0.00  0.00    +0.000 A 
ATOM     18  C   UNL     1      44.861   3.628   9.320  0.00  0.00    +0.000 A 
ATOM     19  C   UNL     1      45.620   4.401   8.426  0.00  0.00    +0.000 A 
ATOM     20  C   UNL     1      46.507   3.796   7.534  0.00  0.00    +0.000 A 
BRANCH  15  22
ATOM     21  N   UNL     1      48.720   2.481   6.261  0.00  0.00    +0.000 N 
ATOM     22  C   UNL     1      47.563   1.795   6.526  0.00  0.00    +0.000 C 
ATOM     23  O   UNL     1      47.339   0.710   6.009  0.00  0.00    +0.000 OA
ATOM     24  H   UNL     1      49.398   2.000   5.687  0.00  0.00    +0.000 HD
ATOM     25  H   UNL     1      49.051   3.223   6.859  0.00  0.00    +0.000 HD
ENDBRANCH  15  22
ENDBRANCH  14  18
ENDBRANCH   1  14
TORSDOF 6
ENDMDL
MODEL 4
REMARK VINA RESULT:    -7.077      2.398      3.181
REMARK INTER + INTRA:         -10.348
REMARK INTER:                  -9.454
REMARK INTRA:                  -0.894
REMARK UNBOUND:                -0.788
REMARK  Name = 
REMARK  6 active torsions:
REMARK  status: ('A' for Active; 'I' for Inactive)
REMARK    1  A    between atoms: C_2  and  C_4
REMARK    2  A    between atoms: C_7  and  C_8
REMARK    3  A    between atoms: C_8  and  O_9
REMARK    4  A    between atoms: O_9  and  C_10
REMARK    5  A    between atoms: C_14  and  N_15
REMARK    6  A    between atoms: N_15  and  C_16
REMARK                            x       y       z     vdW  Elec       q    Type
REMARK                         _______ _______ _______ _____ _____    ______ ____
ROOT
ATOM      1  O   UNL     1      44.346   4.465  11.606  0.00  0.00    +0.000 OA
ENDROOT
BRANCH   1   2
ATOM      2  C   UNL     1      44.799   5.722  11.907  0.00  0.00    +0.000 A 
ATOM      3  C   UNL     1      44.349   6.911  11.331  0.00  0.00    +0.000 A 
ATOM      4  C   UNL     1      44.917   8.129  11.707  0.00  0.00    +0.000 A 
ATOM      5  C   UNL     1      45.944   8.168  12.651  0.00  0.00    +0.000 A 
ATOM      6  C   UNL     1      46.393   6.993  13.252  0.00  0.00    +0.000 A 
ATOM      7  C   UNL     1      45.806   5.774  12.875  0.00  0.00    +0.000 A 
BRANCH   6   8
ATOM      8  N   UNL     1      47.439   6.970  14.199  0.00  0.00    +0.000 N 
ATOM      9  H   UNL     1      47.160   7.471  15.041  0.00  0.00    +0.000 HD
BRANCH   8  10
ATOM     10  C   UNL     1      48.839   7.058  13.913  0.00  0.00    +0.000 C 
ATOM     11  C   UNL     1      49.329   8.523  13.862  0.00  0.00    +0.000 C 
ATOM     12  C   UNL     1      49.969   8.231  12.495  0.00  0.00    +0.000 C 
ATOM     13  C   UNL     1      49.108   6.963  12.395  0.00  0.00    +0.000 C 
ENDBRANCH   8  10
ENDBRANCH   6   8
ENDBRANCH   1   2
BRANCH   1  14
ATOM     14  C   UNL     1      43.815   4.283  10.291  0.00  0.00    +0.000 C 
BRANCH  14  18
ATOM     15  C   UNL     1      46.635   2.627   7.461  0.00  0.00    +0.000 A 
ATOM     16  C   UNL     1      45.946   1.773   8.331  0.00  0.00    +0.000 A 
ATOM     17  C   UNL     1      45.048   2.302   9.263  0.00  0.00    +0.000 A 
ATOM     18  C   UNL     1      44.838   3.685   9.349  0.00  0.00    +0.000 A 
ATOM     19  C   UNL     1      45.542   4.532   8.478  0.00  0.00    +0.000 A 
ATOM     20  C   UNL     1      46.442   4.010   7.547  0.00  0.00    +0.000 A 
BRANCH  15  22
ATOM     21  N   UNL     1      47.812   2.913   5.350  0.00  0.00    +0.000 N 
ATOM     22  C   UNL     1      47.575   2.109   6.435  0.00  0.00    +0.000 C 
ATOM     23  O   UNL     1      48.153   1.040   6.568  0.00  0.00    +0.000 OA
ATOM     24  H   UNL     1      48.544   2.606   4.725  0.00  0.00    +0.000 HD
ATOM     25  H   UNL     1      47.567   3.891   5.346  0.00  0.00    +0.000 HD
ENDBRANCH  15  22
ENDBRANCH  14  18
ENDBRANCH   1  14
TORSDOF 6
ENDMDL
MODEL 5
REMARK VINA RESULT:    -6.959      3.176      8.625
REMARK INTER + INTRA:         -10.188
REMARK INTER:                  -9.498
REMARK INTRA:                  -0.690
REMARK UNBOUND:                -0.788
REMARK  Name = 
REMARK  6 active torsions:
REMARK  status: ('A' for Active; 'I' for Inactive)
REMARK    1  A    between atoms: C_2  and  C_4
REMARK    2  A    between atoms: C_7  and  C_8
REMARK    3  A    between atoms: C_8  and  O_9
REMARK    4  A    between atoms: O_9  and  C_10
REMARK    5  A    between atoms: C_14  and  N_15
REMARK    6  A    between atoms: N_15  and  C_16
REMARK                            x       y       z     vdW  Elec       q    Type
REMARK                         _______ _______ _______ _____ _____    ______ ____
ROOT
ATOM      1  O   UNL     1      46.023   5.347  13.905  0.00  0.00    +0.000 OA
ENDROOT
BRANCH   1   2
ATOM      2  C   UNL     1      45.023   4.981  13.044  0.00  0.00    +0.000 A 
ATOM      3  C   UNL     1      43.730   5.509  13.024  0.00  0.00    +0.000 A 
ATOM      4  C   UNL     1      42.792   5.026  12.112  0.00  0.00    +0.000 A 
ATOM      5  C   UNL     1      43.132   4.008  11.220  0.00  0.00    +0.000 A 
ATOM      6  C   UNL     1      44.424   3.483  11.212  0.00  0.00    +0.000 A 
ATOM      7  C   UNL     1      45.363   3.983  12.127  0.00  0.00    +0.000 A 
BRANCH   6   8
ATOM      8  N   UNL     1      44.819   2.441  10.346  0.00  0.00    +0.000 N 
ATOM      9  H   UNL     1      45.631   1.958  10.726  0.00  0.00    +0.000 HD
BRANCH   8  10
ATOM     10  C   UNL     1      44.786   2.475   8.915  0.00  0.00    +0.000 C 
ATOM     11  C   UNL     1      46.014   1.775   8.290  0.00  0.00    +0.000 C 
ATOM     12  C   UNL     1      46.256   3.027   7.432  0.00  0.00    +0.000 C 
ATOM     13  C   UNL     1      45.331   3.815   8.373  0.00  0.00    +0.000 C 
ENDBRANCH   8  10
ENDBRANCH   6   8
ENDBRANCH   1   2
BRANCH   1  14
ATOM     14  C   UNL     1      47.000   4.346  14.201  0.00  0.00    +0.000 C 
BRANCH  14  18
ATOM     15  C   UNL     1      48.530   4.583  18.238  0.00  0.00    +0.000 A 
ATOM     16  C   UNL     1      47.787   3.463  17.845  0.00  0.00    +0.000 A 
ATOM     17  C   UNL     1      47.271   3.388  16.548  0.00  0.00    +0.000 A 
ATOM     18  C   UNL     1      47.476   4.431  15.635  0.00  0.00    +0.000 A 
ATOM     19  C   UNL     1      48.214   5.554  16.045  0.00  0.00    +0.000 A 
ATOM     20  C   UNL     1      48.730   5.635  17.339  0.00  0.00    +0.000 A 
BRANCH  15  22
ATOM     21  N   UNL     1      48.534   3.955  20.589  0.00  0.00    +0.000 N 
ATOM     22  C   UNL     1      49.123   4.692  19.596  0.00  0.00    +0.000 C 
ATOM     23  O   UNL     1      50.119   5.367  19.814  0.00  0.00    +0.000 OA
ATOM     24  H   UNL     1      49.019   3.940  21.476  0.00  0.00    +0.000 HD
ATOM     25  H   UNL     1      47.896   3.199  20.389  0.00  0.00    +0.000 HD
ENDBRANCH  15  22
ENDBRANCH  14  18
ENDBRANCH   1  14
TORSDOF 6
ENDMDL
MODEL 6
REMARK VINA RESULT:    -6.800      2.168      7.800
REMARK INTER + INTRA:          -9.973
REMARK INTER:                  -9.899
REMARK INTRA:                  -0.074
REMARK UNBOUND:                -0.788
REMARK  Name = 
REMARK  6 active torsions:
REMARK  status: ('A' for Active; 'I' for Inactive)
REMARK    1  A    between atoms: C_2  and  C_4
REMARK    2  A    between atoms: C_7  and  C_8
REMARK    3  A    between atoms: C_8  and  O_9
REMARK    4  A    between atoms: O_9  and  C_10
REMARK    5  A    between atoms: C_14  and  N_15
REMARK    6  A    between atoms: N_15  and  C_16
REMARK                            x       y       z     vdW  Elec       q    Type
REMARK                         _______ _______ _______ _____ _____    ______ ____
ROOT
ATOM      1  O   UNL     1      44.137   2.514  10.047  0.00  0.00    +0.000 OA
ENDROOT
BRANCH   1   2
ATOM      2  C   UNL     1      45.043   2.943   9.114  0.00  0.00    +0.000 A 
ATOM      3  C   UNL     1      45.289   4.273   8.768  0.00  0.00    +0.000 A 
ATOM      4  C   UNL     1      46.221   4.576   7.774  0.00  0.00    +0.000 A 
ATOM      5  C   UNL     1      46.905   3.556   7.112  0.00  0.00    +0.000 A 
ATOM      6  C   UNL     1      46.686   2.223   7.458  0.00  0.00    +0.000 A 
ATOM      7  C   UNL     1      45.755   1.930   8.467  0.00  0.00    +0.000 A 
BRANCH   6   8
ATOM      8  N   UNL     1      47.336   1.150   6.811  0.00  0.00    +0.000 N 
ATOM      9  H   UNL     1      48.030   0.736   7.431  0.00  0.00    +0.000 HD
BRANCH   8  10
ATOM     10  C   UNL     1      47.692   1.090   5.425  0.00  0.00    +0.000 C 
ATOM     11  C   UNL     1      46.797   2.004   4.558  0.00  0.00    +0.000 C 
ATOM     12  C   UNL     1      46.527   0.810   3.629  0.00  0.00    +0.000 C 
ATOM     13  C   UNL     1      47.042  -0.127   4.731  0.00  0.00    +0.000 C 
ENDBRANCH   8  10
ENDBRANCH   6   8
ENDBRANCH   1   2
BRANCH   1  14
ATOM     14  C   UNL     1      43.614   3.512  10.926  0.00  0.00    +0.000 C 
BRANCH  14  18
ATOM     15  C   UNL     1      46.593   5.080  13.640  0.00  0.00    +0.000 A 
ATOM     16  C   UNL     1      45.760   5.963  12.942  0.00  0.00    +0.000 A 
ATOM     17  C   UNL     1      44.808   5.466  12.047  0.00  0.00    +0.000 A 
ATOM     18  C   UNL     1      44.685   4.087  11.827  0.00  0.00    +0.000 A 
ATOM     19  C   UNL     1      45.534   3.212  12.524  0.00  0.00    +0.000 A 
ATOM     20  C   UNL     1      46.488   3.703  13.417  0.00  0.00    +0.000 A 
BRANCH  15  22
ATOM     21  N   UNL     1      47.483   5.091  15.904  0.00  0.00    +0.000 N 
ATOM     22  C   UNL     1      47.597   5.561  14.622  0.00  0.00    +0.000 C 
ATOM     23  O   UNL     1      48.515   6.302  14.299  0.00  0.00    +0.000 OA
ATOM     24  H   UNL     1      48.241   5.326  16.530  0.00  0.00    +0.000 HD
ATOM     25  H   UNL     1      46.915   4.289  16.132  0.00  0.00    +0.000 HD
ENDBRANCH  15  22
ENDBRANCH  14  18
ENDBRANCH   1  14
TORSDOF 6
ENDMDL
MODEL 7
REMARK VINA RESULT:    -6.389      2.451      7.949
REMARK INTER + INTRA:          -9.419
REMARK INTER:                  -8.794
REMARK INTRA:                  -0.625
REMARK UNBOUND:                -0.788
REMARK  Name = 
REMARK  6 active torsions:
REMARK  status: ('A' for Active; 'I' for Inactive)
REMARK    1  A    between atoms: C_2  and  C_4
REMARK    2  A    between atoms: C_7  and  C_8
REMARK    3  A    between atoms: C_8  and  O_9
REMARK    4  A    between atoms: O_9  and  C_10
REMARK    5  A    between atoms: C_14  and  N_15
REMARK    6  A    between atoms: N_15  and  C_16
REMARK                            x       y       z     vdW  Elec       q    Type
REMARK                         _______ _______ _______ _____ _____    ______ ____
ROOT
ATOM      1  O   UNL     1      45.700   6.551  11.831  0.00  0.00    +0.000 OA
ENDROOT
BRANCH   1   2
ATOM      2  C   UNL     1      45.067   5.479  11.260  0.00  0.00    +0.000 A 
ATOM      3  C   UNL     1      44.124   4.661  11.885  0.00  0.00    +0.000 A 
ATOM      4  C   UNL     1      43.574   3.578  11.200  0.00  0.00    +0.000 A 
ATOM      5  C   UNL     1      43.967   3.296   9.891  0.00  0.00    +0.000 A 
ATOM      6  C   UNL     1      44.893   4.113   9.244  0.00  0.00    +0.000 A 
ATOM      7  C   UNL     1      45.432   5.207   9.939  0.00  0.00    +0.000 A 
BRANCH   6   8
ATOM      8  N   UNL     1      45.341   3.867   7.928  0.00  0.00    +0.000 N 
ATOM      9  H   UNL     1      44.578   3.503   7.360  0.00  0.00    +0.000 HD
BRANCH   8  10
ATOM     10  C   UNL     1      46.628   3.362   7.555  0.00  0.00    +0.000 C 
ATOM     11  C   UNL     1      46.757   3.175   6.027  0.00  0.00    +0.000 C 
ATOM     12  C   UNL     1      47.244   1.738   6.271  0.00  0.00    +0.000 C 
ATOM     13  C   UNL     1      46.691   1.825   7.702  0.00  0.00    +0.000 C 
ENDBRANCH   8  10
ENDBRANCH   6   8
ENDBRANCH   1   2
BRANCH   1  14
ATOM     14  C   UNL     1      47.116   6.438  11.990  0.00  0.00    +0.000 C 
BRANCH  14  18
ATOM     15  C   UNL     1      48.020   5.248  16.048  0.00  0.00    +0.000 A 
ATOM     16  C   UNL     1      48.586   6.419  15.528  0.00  0.00    +0.000 A 
ATOM     17  C   UNL     1      48.315   6.800  14.211  0.00  0.00    +0.000 A 
ATOM     18  C   UNL     1      47.492   6.014  13.393  0.00  0.00    +0.000 A 
ATOM     19  C   UNL     1      46.939   4.836  13.923  0.00  0.00    +0.000 A 
ATOM     20  C   UNL     1      47.207   4.449  15.237  0.00  0.00    +0.000 A 
BRANCH  15  22
ATOM     21  N   UNL     1      47.145   4.621  18.231  0.00  0.00    +0.000 N 
ATOM     22  C   UNL     1      48.254   4.820  17.450  0.00  0.00    +0.000 C 
ATOM     23  O   UNL     1      49.378   4.604  17.882  0.00  0.00    +0.000 OA
ATOM     24  H   UNL     1      47.311   4.213  19.140  0.00  0.00    +0.000 HD
ATOM     25  H   UNL     1      46.222   4.531  17.835  0.00  0.00    +0.000 HD
ENDBRANCH  15  22
ENDBRANCH  14  18
ENDBRANCH   1  14
TORSDOF 6
ENDMDL
MODEL 8
REMARK VINA RESULT:    -6.338      3.252      7.260
REMARK INTER + INTRA:          -9.349
REMARK INTER:                  -8.424
REMARK INTRA:                  -0.925
REMARK UNBOUND:                -0.788
REMARK  Name = 
REMARK  6 active torsions:
REMARK  status: ('A' for Active; 'I' for Inactive)
REMARK    1  A    between atoms: C_2  and  C_4
REMARK    2  A    between atoms: C_7  and  C_8
REMARK    3  A    between atoms: C_8  and  O_9
REMARK    4  A    between atoms: O_9  and  C_10
REMARK    5  A    between atoms: C_14  and  N_15
REMARK    6  A    between atoms: N_15  and  C_16
REMARK                            x       y       z     vdW  Elec       q    Type
REMARK                         _______ _______ _______ _____ _____    ______ ____
ROOT
ATOM      1  O   UNL     1      44.344   6.218  11.608  0.00  0.00    +0.000 OA
ENDROOT
BRANCH   1   2
ATOM      2  C   UNL     1      44.363   4.997  10.987  0.00  0.00    +0.000 A 
ATOM      3  C   UNL     1      43.747   3.835  11.454  0.00  0.00    +0.000 A 
ATOM      4  C   UNL     1      43.868   2.643  10.739  0.00  0.00    +0.000 A 
ATOM      5  C   UNL     1      44.613   2.599   9.560  0.00  0.00    +0.000 A 
ATOM      6  C   UNL     1      45.219   3.754   9.067  0.00  0.00    +0.000 A 
ATOM      7  C   UNL     1      45.081   4.951   9.789  0.00  0.00    +0.000 A 
BRANCH   6   8
ATOM      8  N   UNL     1      45.998   3.766   7.890  0.00  0.00    +0.000 N 
ATOM      9  H   UNL     1      45.923   4.671   7.429  0.00  0.00    +0.000 HD
BRANCH   8  10
ATOM     10  C   UNL     1      46.175   2.671   6.985  0.00  0.00    +0.000 C 
ATOM     11  C   UNL     1      47.496   1.912   7.245  0.00  0.00    +0.000 C 
ATOM     12  C   UNL     1      47.836   2.049   5.753  0.00  0.00    +0.000 C 
ATOM     13  C   UNL     1      46.766   3.146   5.639  0.00  0.00    +0.000 C 
ENDBRANCH   8  10
ENDBRANCH   6   8
ENDBRANCH   1   2
BRANCH   1  14
ATOM     14  C   UNL     1      44.995   6.292  12.878  0.00  0.00    +0.000 C 
BRANCH  14  18
ATOM     15  C   UNL     1      49.061   7.658  12.338  0.00  0.00    +0.000 A 
ATOM     16  C   UNL     1      48.820   6.452  13.008  0.00  0.00    +0.000 A 
ATOM     17  C   UNL     1      47.508   6.013  13.205  0.00  0.00    +0.000 A 
ATOM     18  C   UNL     1      46.423   6.776  12.752  0.00  0.00    +0.000 A 
ATOM     19  C   UNL     1      46.677   7.989  12.091  0.00  0.00    +0.000 A 
ATOM     20  C   UNL     1      47.985   8.434  11.894  0.00  0.00    +0.000 A 
BRANCH  15  22
ATOM     21  N   UNL     1      51.190   7.440  11.179  0.00  0.00    +0.000 N 
ATOM     22  C   UNL     1      50.439   8.149  12.080  0.00  0.00    +0.000 C 
ATOM     23  O   UNL     1      50.872   9.166  12.603  0.00  0.00    +0.000 OA
ATOM     24  H   UNL     1      52.075   7.852  10.919  0.00  0.00    +0.000 HD
ATOM     25  H   UNL     1      50.776   6.774  10.544  0.00  0.00    +0.000 HD
ENDBRANCH  15  22
ENDBRANCH  14  18
ENDBRANCH   1  14
TORSDOF 6
ENDMDL
MODEL 9
REMARK VINA RESULT:    -6.292      3.681      7.007
REMARK INTER + INTRA:          -9.287
REMARK INTER:                  -8.481
REMARK INTRA:                  -0.806
REMARK UNBOUND:                -0.788
REMARK  Name = 
REMARK  6 active torsions:
REMARK  status: ('A' for Active; 'I' for Inactive)
REMARK    1  A    between atoms: C_2  and  C_4
REMARK    2  A    between atoms: C_7  and  C_8
REMARK    3  A    between atoms: C_8  and  O_9
REMARK    4  A    between atoms: O_9  and  C_10
REMARK    5  A    between atoms: C_14  and  N_15
REMARK    6  A    between atoms: N_15  and  C_16
REMARK                            x       y       z     vdW  Elec       q    Type
REMARK                         _______ _______ _______ _____ _____    ______ ____
ROOT
ATOM      1  O   UNL     1      46.117   6.323  13.198  0.00  0.00    +0.000 OA
ENDROOT
BRANCH   1   2
ATOM      2  C   UNL     1      45.087   5.596  12.665  0.00  0.00    +0.000 A 
ATOM      3  C   UNL     1      43.729   5.803  12.912  0.00  0.00    +0.000 A 
ATOM      4  C   UNL     1      42.775   4.969  12.328  0.00  0.00    +0.000 A 
ATOM      5  C   UNL     1      43.170   3.916  11.501  0.00  0.00    +0.000 A 
ATOM      6  C   UNL     1      44.521   3.705  11.226  0.00  0.00    +0.000 A 
ATOM      7  C   UNL     1      45.471   4.558  11.811  0.00  0.00    +0.000 A 
BRANCH   6   8
ATOM      8  N   UNL     1      44.979   2.647  10.413  0.00  0.00    +0.000 N 
ATOM      9  H   UNL     1      45.885   2.318  10.743  0.00  0.00    +0.000 HD
BRANCH   8  10
ATOM     10  C   UNL     1      44.807   2.537   8.996  0.00  0.00    +0.000 C 
ATOM     11  C   UNL     1      45.936   1.712   8.337  0.00  0.00    +0.000 C 
ATOM     12  C   UNL     1      46.147   2.855   7.332  0.00  0.00    +0.000 C 
ATOM     13  C   UNL     1      45.355   3.783   8.266  0.00  0.00    +0.000 C 
ENDBRANCH   8  10
ENDBRANCH   6   8
ENDBRANCH   1   2
BRANCH   1  14
ATOM     14  C   UNL     1      46.127   7.720  12.897  0.00  0.00    +0.000 C 
BRANCH  14  18
ATOM     15  C   UNL     1      50.039   8.960  11.533  0.00  0.00    +0.000 A 
ATOM     16  C   UNL     1      49.033   9.918  11.711  0.00  0.00    +0.000 A 
ATOM     17  C   UNL     1      47.760   9.523  12.132  0.00  0.00    +0.000 A 
ATOM     18  C   UNL     1      47.470   8.172  12.365  0.00  0.00    +0.000 A 
ATOM     19  C   UNL     1      48.484   7.220  12.172  0.00  0.00    +0.000 A 
ATOM     20  C   UNL     1      49.757   7.608  11.749  0.00  0.00    +0.000 A 
BRANCH  15  22
ATOM     21  N   UNL     1      52.445   8.855  11.880  0.00  0.00    +0.000 N 
ATOM     22  C   UNL     1      51.414   9.336  11.116  0.00  0.00    +0.000 C 
ATOM     23  O   UNL     1      51.627  10.001  10.112  0.00  0.00    +0.000 OA
ATOM     24  H   UNL     1      53.375   9.013  11.517  0.00  0.00    +0.000 HD
ATOM     25  H   UNL     1      52.317   8.101  12.538  0.00  0.00    +0.000 HD
ENDBRANCH  15  22
ENDBRANCH  14  18
ENDBRANCH   1  14
TORSDOF 6
ENDMDL
