MODEL 1
REMARK VINA RESULT:    -7.744      0.000      0.000
REMARK INTER + INTRA:         -11.641
REMARK INTER:                 -10.913
REMARK INTRA:                  -0.728
REMARK UNBOUND:                -0.728
REMARK  Name = 
REMARK  10 active torsions:
REMARK  status: ('A' for Active; 'I' for Inactive)
REMARK    1  A    between atoms: C_1  and  C_2
REMARK    2  A    between atoms: N_4  and  C_5
REMARK    3  A    between atoms: C_5  and  C_6
REMARK    4  A    between atoms: C_6  and  C_7
REMARK    5  A    between atoms: C_6  and  O_8
REMARK    6  A    between atoms: O_8  and  C_9
REMARK    7  A    between atoms: C_12  and  C_13
REMARK    8  A    between atoms: C_19  and  N_20
REMARK    9  A    between atoms: N_20  and  C_21
REMARK   10  A    between atoms: N_24  and  C_25
REMARK                            x       y       z     vdW  Elec       q    Type
REMARK                         _______ _______ _______ _____ _____    ______ ____
ROOT
ATOM      1  C   UNL     1      44.455   4.858  11.477  0.00  0.00    +0.000 C 
ENDROOT
BRANCH   1   5
ATOM      2  C   UNL     1      48.654   6.870  12.800  0.00  0.00    +0.000 C 
ATOM      3  C   UNL     1      47.405   6.086  12.924  0.00  0.00    +0.000 A 
ATOM      4  N   UNL     1      46.590   5.940  11.870  0.00  0.00    +0.000 NA
ATOM      5  N   UNL     1      45.572   5.196  12.342  0.00  0.00    +0.000 N 
ATOM      6  C   UNL     1      45.698   4.879  13.663  0.00  0.00    +0.000 A 
ATOM      7  C   UNL     1      46.865   5.460  14.086  0.00  0.00    +0.000 A 
BRANCH   7   8
ATOM      8  N   UNL     1      47.387   5.425  15.330  0.00  0.00    +0.000 N 
ATOM      9  H   UNL     1      47.685   6.277  15.797  0.00  0.00    +0.000 HD
BRANCH   8  10
ATOM     10  C   UNL     1      47.282   4.244  16.191  0.00  0.00    +0.000 C 
ATOM     11  C   UNL     1      47.516   4.609  17.663  0.00  0.00    +0.000 C 
ATOM     12  C   UNL     1      48.511   3.578  18.176  0.00  0.00    +0.000 C 
ATOM     13  N   UNL     1      49.310   3.254  16.998  0.00  0.00    +0.000 NA
ATOM     14  C   UNL     1      50.052   2.010  17.159  0.00  0.00    +0.000 C 
ATOM     15  C   UNL     1      48.355   3.187  15.881  0.00  0.00    +0.000 C 
ENDBRANCH   8  10
ENDBRANCH   7   8
ENDBRANCH   1   5
BRANCH   1  16
ATOM     16  C   UNL     1      44.316   3.360  11.160  0.00  0.00    +0.000 C 
ATOM     17  C   UNL     1      43.312   2.688  12.101  0.00  0.00    +0.000 C 
BRANCH  16  18
ATOM     18  O   UNL     1      43.848   3.266   9.790  0.00  0.00    +0.000 OA
BRANCH  18  19
ATOM     19  C   UNL     1      44.822   2.912   8.880  0.00  0.00    +0.000 A 
ATOM     20  C   UNL     1      45.196   3.840   7.910  0.00  0.00    +0.000 A 
ATOM     21  N   UNL     1      46.155   3.594   6.974  0.00  0.00    +0.000 NA
ATOM     22  C   UNL     1      46.715   2.352   7.055  0.00  0.00    +0.000 A 
ATOM     23  C   UNL     1      46.321   1.419   8.001  0.00  0.00    +0.000 A 
ATOM     24  N   UNL     1      45.365   1.677   8.931  0.00  0.00    +0.000 NA
BRANCH  22  25
ATOM     25  C   UNL     1      47.796   2.004   6.092  0.00  0.00    +0.000 C 
ATOM     26  N   UNL     1      48.990   2.649   6.270  0.00  0.00    +0.000 N 
ATOM     27  O   UNL     1      47.634   1.189   5.193  0.00  0.00    +0.000 OA
ATOM     28  H   UNL     1      49.099   3.327   7.017  0.00  0.00    +0.000 HD
ATOM     29  H   UNL     1      49.759   2.450   5.646  0.00  0.00    +0.000 HD
ENDBRANCH  22  25
ENDBRANCH  18  19
ENDBRANCH  16  18
ENDBRANCH   1  16
TORSDOF 7
ENDMDL
MODEL 2
REMARK VINA RESULT:    -7.425      1.547      1.945
REMARK INTER + INTRA:         -11.191
REMARK INTER:                 -10.414
REMARK INTRA:                  -0.777
REMARK UNBOUND:                -0.728
REMARK  Name = 
REMARK  10 active torsions:
REMARK  status: ('A' for Active; 'I' for Inactive)
REMARK    1  A    between atoms: C_1  and  C_2
REMARK    2  A    between atoms: N_4  and  C_5
REMARK    3  A    between atoms: C_5  and  C_6
REMARK    4  A    between atoms: C_6  and  C_7
REMARK    5  A    between atoms: C_6  and  O_8
REMARK    6  A    between atoms: O_8  and  C_9
REMARK    7  A    between atoms: C_12  and  C_13
REMARK    8  A    between atoms: C_19  and  N_20
REMARK    9  A    between atoms: N_20  and  C_21
REMARK   10  A    between atoms: N_24  and  C_25
REMARK                            x       y       z     vdW  Elec       q    Type
REMARK                         _______ _______ _______ _____ _____    ______ ____
ROOT
ATOM      1  C   UNL     1      44.218   5.575  11.576  0.00  0.00    +0.000 C 
ENDROOT
BRANCH   1   5
ATOM      2  C   UNL     1      47.265   9.160  12.713  0.00  0.00    +0.000 C 
ATOM      3  C   UNL     1      46.745   7.778  12.607  0.00  0.00    +0.000 A 
ATOM      4  N   UNL     1      45.573   7.541  12.002  0.00  0.00    +0.000 NA
ATOM      5  N   UNL     1      45.416   6.208  12.099  0.00  0.00    +0.000 N 
ATOM      6  C   UNL     1      46.436   5.589  12.762  0.00  0.00    +0.000 A 
ATOM      7  C   UNL     1      47.310   6.578  13.130  0.00  0.00    +0.000 A 
BRANCH   7   8
ATOM      8  N   UNL     1      48.459   6.433  13.823  0.00  0.00    +0.000 N 
ATOM      9  H   UNL     1      49.354   6.381  13.346  0.00  0.00    +0.000 HD
BRANCH   8  10
ATOM     10  C   UNL     1      48.532   6.642  15.271  0.00  0.00    +0.000 C 
ATOM     11  C   UNL     1      49.961   6.990  15.709  0.00  0.00    +0.000 C 
ATOM     12  C   UNL     1      50.245   6.085  16.899  0.00  0.00    +0.000 C 
ATOM     13  N   UNL     1      49.456   4.888  16.618  0.00  0.00    +0.000 NA
ATOM     14  C   UNL     1      49.263   4.063  17.804  0.00  0.00    +0.000 C 
ATOM     15  C   UNL     1      48.180   5.377  16.072  0.00  0.00    +0.000 C 
ENDBRANCH   8  10
ENDBRANCH   7   8
ENDBRANCH   1   5
BRANCH   1  16
ATOM     16  C   UNL     1      44.353   4.069  11.298  0.00  0.00    +0.000 C 
ATOM     17  C   UNL     1      43.538   3.247  12.300  0.00  0.00    +0.000 C 
BRANCH  16  18
ATOM     18  O   UNL     1      43.854   3.847   9.955  0.00  0.00    +0.000 OA
BRANCH  18  19
ATOM     19  C   UNL     1      44.792   3.355   9.072  0.00  0.00    +0.000 A 
ATOM     20  C   UNL     1      45.185   2.024   9.192  0.00  0.00    +0.000 A 
ATOM     21  N   UNL     1      46.094   1.438   8.364  0.00  0.00    +0.000 NA
ATOM     22  C   UNL     1      46.603   2.269   7.408  0.00  0.00    +0.000 A 
ATOM     23  C   UNL     1      46.233   3.601   7.308  0.00  0.00    +0.000 A 
ATOM     24  N   UNL     1      45.324   4.173   8.139  0.00  0.00    +0.000 NA
BRANCH  22  25
ATOM     25  C   UNL     1      47.580   1.707   6.436  0.00  0.00    +0.000 C 
ATOM     26  N   UNL     1      48.759   2.389   6.306  0.00  0.00    +0.000 N 
ATOM     27  O   UNL     1      47.350   0.694   5.788  0.00  0.00    +0.000 OA
ATOM     28  H   UNL     1      48.926   3.231   6.847  0.00  0.00    +0.000 HD
ATOM     29  H   UNL     1      49.459   2.052   5.661  0.00  0.00    +0.000 HD
ENDBRANCH  22  25
ENDBRANCH  18  19
ENDBRANCH  16  18
ENDBRANCH   1  16
TORSDOF 7
ENDMDL
MODEL 3
REMARK VINA RESULT:    -7.387      2.756      3.482
REMARK INTER + INTRA:         -11.137
REMARK INTER:                 -10.359
REMARK INTRA:                  -0.778
REMARK UNBOUND:                -0.728
REMARK  Name = 
REMARK  10 active torsions:
REMARK  status: ('A' for Active; 'I' for Inactive)
REMARK    1  A    between atoms: C_1  and  C_2
REMARK    2  A    between atoms: N_4  and  C_5
REMARK    3  A    between atoms: C_5  and  C_6
REMARK    4  A    between atoms: C_6  and  C_7
REMARK    5  A    between atoms: C_6  and  O_8
REMARK    6  A    between atoms: O_8  and  C_9
REMARK    7  A    between atoms: C_12  and  C_13
REMARK    8  A    between atoms: C_19  and  N_20
REMARK    9  A    between atoms: N_20  and  C_21
REMARK   10  A    between atoms: N_24  and  C_25
REMARK                            x       y       z     vdW  Elec       q    Type
REMARK                         _______ _______ _______ _____ _____    ______ ____
ROOT
ATOM      1  C   UNL     1      43.655   5.735  11.295  0.00  0.00    +0.000 C 
ENDROOT
BRANCH   1   5
ATOM      2  C   UNL     1      45.973   9.919  12.037  0.00  0.00    +0.000 C 
ATOM      3  C   UNL     1      45.643   8.484  12.187  0.00  0.00    +0.000 A 
ATOM      4  N   UNL     1      44.662   7.936  11.456  0.00  0.00    +0.000 NA
ATOM      5  N   UNL     1      44.635   6.650  11.854  0.00  0.00    +0.000 N 
ATOM      6  C   UNL     1      45.550   6.363  12.825  0.00  0.00    +0.000 A 
ATOM      7  C   UNL     1      46.210   7.535  13.088  0.00  0.00    +0.000 A 
BRANCH   7   8
ATOM      8  N   UNL     1      47.191   7.731  13.994  0.00  0.00    +0.000 N 
ATOM      9  H   UNL     1      46.986   8.112  14.913  0.00  0.00    +0.000 HD
BRANCH   8  10
ATOM     10  C   UNL     1      48.525   7.146  13.842  0.00  0.00    +0.000 C 
ATOM     11  C   UNL     1      49.569   7.929  14.649  0.00  0.00    +0.000 C 
ATOM     12  C   UNL     1      50.726   8.160  13.688  0.00  0.00    +0.000 C 
ATOM     13  N   UNL     1      50.077   8.243  12.382  0.00  0.00    +0.000 NA
ATOM     14  C   UNL     1      51.020   8.063  11.285  0.00  0.00    +0.000 C 
ATOM     15  C   UNL     1      49.037   7.203  12.392  0.00  0.00    +0.000 C 
ENDBRANCH   8  10
ENDBRANCH   7   8
ENDBRANCH   1   5
BRANCH   1  16
ATOM     16  C   UNL     1      44.130   4.279  11.169  0.00  0.00    +0.000 C 
ATOM     17  C   UNL     1      43.550   3.411  12.290  0.00  0.00    +0.000 C 
BRANCH  16  18
ATOM     18  O   UNL     1      43.665   3.799   9.883  0.00  0.00    +0.000 OA
BRANCH  18  19
ATOM     19  C   UNL     1      44.668   3.359   9.043  0.00  0.00    +0.000 A 
ATOM     20  C   UNL     1      45.075   2.030   9.133  0.00  0.00    +0.000 A 
ATOM     21  N   UNL     1      46.046   1.493   8.342  0.00  0.00    +0.000 NA
ATOM     22  C   UNL     1      46.602   2.372   7.458  0.00  0.00    +0.000 A 
ATOM     23  C   UNL     1      46.216   3.702   7.390  0.00  0.00    +0.000 A 
ATOM     24  N   UNL     1      45.245   4.224   8.183  0.00  0.00    +0.000 NA
BRANCH  22  25
ATOM     25  C   UNL     1      47.650   1.867   6.529  0.00  0.00    +0.000 C 
ATOM     26  N   UNL     1      48.746   2.670   6.365  0.00  0.00    +0.000 N 
ATOM     27  O   UNL     1      47.545   0.797   5.944  0.00  0.00    +0.000 OA
ATOM     28  H   UNL     1      48.808   3.556   6.855  0.00  0.00    +0.000 HD
ATOM     29  H   UNL     1      49.488   2.376   5.747  0.00  0.00    +0.000 HD
ENDBRANCH  22  25
ENDBRANCH  18  19
ENDBRANCH  16  18
ENDBRANCH   1  16
TORSDOF 7
ENDMDL
MODEL 4
REMARK VINA RESULT:    -7.163      1.771      3.685
REMARK INTER + INTRA:         -10.822
REMARK INTER:                 -10.247
REMARK INTRA:                  -0.575
REMARK UNBOUND:                -0.728
REMARK  Name = 
REMARK  10 active torsions:
REMARK  status: ('A' for Active; 'I' for Inactive)
REMARK    1  A    between atoms: C_1  and  C_2
REMARK    2  A    between atoms: N_4  and  C_5
REMARK    3  A    between atoms: C_5  and  C_6
REMARK    4  A    between atoms: C_6  and  C_7
REMARK    5  A    between atoms: C_6  and  O_8
REMARK    6  A    between atoms: O_8  and  C_9
REMARK    7  A    between atoms: C_12  and  C_13
REMARK    8  A    between atoms: C_19  and  N_20
REMARK    9  A    between atoms: N_20  and  C_21
REMARK   10  A    between atoms: N_24  and  C_25
REMARK                            x       y       z     vdW  Elec       q    Type
REMARK                         _______ _______ _______ _____ _____    ______ ____
ROOT
ATOM      1  C   UNL     1      44.335   5.061  11.860  0.00  0.00    +0.000 C 
ENDROOT
BRANCH   1   5
ATOM      2  C   UNL     1      47.374   4.163  15.518  0.00  0.00    +0.000 C 
ATOM      3  C   UNL     1      46.777   4.883  14.371  0.00  0.00    +0.000 A 
ATOM      4  N   UNL     1      45.692   4.393  13.756  0.00  0.00    +0.000 NA
ATOM      5  N   UNL     1      45.439   5.282  12.777  0.00  0.00    +0.000 N 
ATOM      6  C   UNL     1      46.336   6.310  12.733  0.00  0.00    +0.000 A 
ATOM      7  C   UNL     1      47.237   6.075  13.738  0.00  0.00    +0.000 A 
BRANCH   7   8
ATOM      8  N   UNL     1      48.311   6.826  14.059  0.00  0.00    +0.000 N 
ATOM      9  H   UNL     1      48.960   6.529  14.783  0.00  0.00    +0.000 HD
BRANCH   8  10
ATOM     10  C   UNL     1      48.780   7.925  13.213  0.00  0.00    +0.000 C 
ATOM     11  C   UNL     1      49.553   7.397  11.996  0.00  0.00    +0.000 C 
ATOM     12  C   UNL     1      50.827   8.226  11.942  0.00  0.00    +0.000 C 
ATOM     13  N   UNL     1      51.092   8.543  13.343  0.00  0.00    +0.000 NA
ATOM     14  C   UNL     1      52.028   9.650  13.492  0.00  0.00    +0.000 C 
ATOM     15  C   UNL     1      49.779   8.846  13.934  0.00  0.00    +0.000 C 
ENDBRANCH   8  10
ENDBRANCH   7   8
ENDBRANCH   1   5
BRANCH   1  16
ATOM     16  C   UNL     1      44.263   3.646  11.264  0.00  0.00    +0.000 C 
ATOM     17  C   UNL     1      43.211   2.797  11.984  0.00  0.00    +0.000 C 
BRANCH  16  18
ATOM     18  O   UNL     1      43.904   3.799   9.868  0.00  0.00    +0.000 OA
BRANCH  18  19
ATOM     19  C   UNL     1      44.856   3.339   8.982  0.00  0.00    +0.000 A 
ATOM     20  C   UNL     1      45.195   1.988   9.011  0.00  0.00    +0.000 A 
ATOM     21  N   UNL     1      46.111   1.431   8.171  0.00  0.00    +0.000 NA
ATOM     22  C   UNL     1      46.685   2.311   7.301  0.00  0.00    +0.000 A 
ATOM     23  C   UNL     1      46.369   3.661   7.292  0.00  0.00    +0.000 A 
ATOM     24  N   UNL     1      45.451   4.203   8.134  0.00  0.00    +0.000 NA
BRANCH  22  25
ATOM     25  C   UNL     1      47.676   1.787   6.321  0.00  0.00    +0.000 C 
ATOM     26  N   UNL     1      48.818   2.524   6.167  0.00  0.00    +0.000 N 
ATOM     27  O   UNL     1      47.487   0.756   5.687  0.00  0.00    +0.000 OA
ATOM     28  H   UNL     1      48.950   3.379   6.697  0.00  0.00    +0.000 HD
ATOM     29  H   UNL     1      49.525   2.214   5.516  0.00  0.00    +0.000 HD
ENDBRANCH  22  25
ENDBRANCH  18  19
ENDBRANCH  16  18
ENDBRANCH   1  16
TORSDOF 7
ENDMDL
MODEL 5
REMARK VINA RESULT:    -6.758      2.254      3.171
REMARK INTER + INTRA:         -10.252
REMARK INTER:                  -9.568
REMARK INTRA:                  -0.684
REMARK UNBOUND:                -0.728
REMARK  Name = 
REMARK  10 active torsions:
REMARK  status: ('A' for Active; 'I' for Inactive)
REMARK    1  A    between atoms: C_1  and  C_2
REMARK    2  A    between atoms: N_4  and  C_5
REMARK    3  A    between atoms: C_5  and  C_6
REMARK    4  A    between atoms: C_6  and  C_7
REMARK    5  A    between atoms: C_6  and  O_8
REMARK    6  A    between atoms: O_8  and  C_9
REMARK    7  A    between atoms: C_12  and  C_13
REMARK    8  A    between atoms: C_19  and  N_20
REMARK    9  A    between atoms: N_20  and  C_21
REMARK   10  A    between atoms: N_24  and  C_25
REMARK                            x       y       z     vdW  Elec       q    Type
REMARK                         _______ _______ _______ _____ _____    ______ ____
ROOT
ATOM      1  C   UNL     1      44.724   6.131  11.234  0.00  0.00    +0.000 C 
ENDROOT
BRANCH   1   5
ATOM      2  C   UNL     1      47.044   4.274  15.055  0.00  0.00    +0.000 C 
ATOM      3  C   UNL     1      46.773   5.182  13.917  0.00  0.00    +0.000 A 
ATOM      4  N   UNL     1      45.663   5.033  13.182  0.00  0.00    +0.000 NA
ATOM      5  N   UNL     1      45.752   6.002  12.251  0.00  0.00    +0.000 N 
ATOM      6  C   UNL     1      46.888   6.750  12.354  0.00  0.00    +0.000 A 
ATOM      7  C   UNL     1      47.592   6.234  13.411  0.00  0.00    +0.000 A 
BRANCH   7   8
ATOM      8  N   UNL     1      48.790   6.650  13.871  0.00  0.00    +0.000 N 
ATOM      9  H   UNL     1      49.582   6.763  13.244  0.00  0.00    +0.000 HD
BRANCH   8  10
ATOM     10  C   UNL     1      48.955   7.245  15.200  0.00  0.00    +0.000 C 
ATOM     11  C   UNL     1      48.468   8.701  15.219  0.00  0.00    +0.000 C 
ATOM     12  C   UNL     1      49.580   9.485  15.900  0.00  0.00    +0.000 C 
ATOM     13  N   UNL     1      50.790   8.749  15.542  0.00  0.00    +0.000 NA
ATOM     14  C   UNL     1      51.916   9.085  16.404  0.00  0.00    +0.000 C 
ATOM     15  C   UNL     1      50.427   7.326  15.636  0.00  0.00    +0.000 C 
ENDBRANCH   8  10
ENDBRANCH   7   8
ENDBRANCH   1   5
BRANCH   1  16
ATOM     16  C   UNL     1      43.765   4.933  11.129  0.00  0.00    +0.000 C 
ATOM     17  C   UNL     1      42.432   5.232  11.821  0.00  0.00    +0.000 C 
BRANCH  16  18
ATOM     18  O   UNL     1      43.546   4.697   9.716  0.00  0.00    +0.000 OA
BRANCH  18  19
ATOM     19  C   UNL     1      44.440   3.818   9.140  0.00  0.00    +0.000 A 
ATOM     20  C   UNL     1      45.368   4.314   8.227  0.00  0.00    +0.000 A 
ATOM     21  N   UNL     1      46.300   3.534   7.613  0.00  0.00    +0.000 NA
ATOM     22  C   UNL     1      46.244   2.214   7.957  0.00  0.00    +0.000 A 
ATOM     23  C   UNL     1      45.301   1.716   8.843  0.00  0.00    +0.000 A 
ATOM     24  N   UNL     1      44.378   2.506   9.450  0.00  0.00    +0.000 NA
BRANCH  22  25
ATOM     25  C   UNL     1      47.246   1.288   7.361  0.00  0.00    +0.000 C 
ATOM     26  N   UNL     1      46.961  -0.047   7.453  0.00  0.00    +0.000 N 
ATOM     27  O   UNL     1      48.266   1.691   6.817  0.00  0.00    +0.000 OA
ATOM     28  H   UNL     1      46.113  -0.358   7.915  0.00  0.00    +0.000 HD
ATOM     29  H   UNL     1      47.606  -0.719   7.064  0.00  0.00    +0.000 HD
ENDBRANCH  22  25
ENDBRANCH  18  19
ENDBRANCH  16  18
ENDBRANCH   1  16
TORSDOF 7
ENDMDL
MODEL 6
REMARK VINA RESULT:    -6.483      3.201      5.180
REMARK INTER + INTRA:          -9.864
REMARK INTER:                  -9.147
REMARK INTRA:                  -0.717
REMARK UNBOUND:                -0.728
REMARK  Name = 
REMARK  10 active torsions:
REMARK  status: ('A' for Active; 'I' for Inactive)
REMARK    1  A    between atoms: C_1  and  C_2
REMARK    2  A    between atoms: N_4  and  C_5
REMARK    3  A    between atoms: C_5  and  C_6
REMARK    4  A    between atoms: C_6  and  C_7
REMARK    5  A    between atoms: C_6  and  O_8
REMARK    6  A    between atoms: O_8  and  C_9
REMARK    7  A    between atoms: C_12  and  C_13
REMARK    8  A    between atoms: C_19  and  N_20
REMARK    9  A    between atoms: N_20  and  C_21
REMARK   10  A    between atoms: N_24  and  C_25
REMARK                            x       y       z     vdW  Elec       q    Type
REMARK                         _______ _______ _______ _____ _____    ______ ____
ROOT
ATOM      1  C   UNL     1      44.330   6.721  11.181  0.00  0.00    +0.000 C 
ENDROOT
BRANCH   1   5
ATOM      2  C   UNL     1      48.896   6.769  12.788  0.00  0.00    +0.000 C 
ATOM      3  C   UNL     1      47.514   7.248  12.554  0.00  0.00    +0.000 A 
ATOM      4  N   UNL     1      46.635   6.480  11.895  0.00  0.00    +0.000 NA
ATOM      5  N   UNL     1      45.513   7.222  11.860  0.00  0.00    +0.000 N 
ATOM      6  C   UNL     1      45.650   8.443  12.454  0.00  0.00    +0.000 A 
ATOM      7  C   UNL     1      46.945   8.510  12.897  0.00  0.00    +0.000 A 
BRANCH   7   8
ATOM      8  N   UNL     1      47.536   9.543  13.532  0.00  0.00    +0.000 N 
ATOM      9  H   UNL     1      47.475   9.641  14.542  0.00  0.00    +0.000 HD
BRANCH   8  10
ATOM     10  C   UNL     1      48.530  10.398  12.880  0.00  0.00    +0.000 C 
ATOM     11  C   UNL     1      48.331  11.871  13.264  0.00  0.00    +0.000 C 
ATOM     12  C   UNL     1      48.375  12.635  11.948  0.00  0.00    +0.000 C 
ATOM     13  N   UNL     1      47.839  11.683  10.979  0.00  0.00    +0.000 NA
ATOM     14  C   UNL     1      48.158  12.054   9.606  0.00  0.00    +0.000 C 
ATOM     15  C   UNL     1      48.415  10.380  11.347  0.00  0.00    +0.000 C 
ENDBRANCH   8  10
ENDBRANCH   7   8
ENDBRANCH   1   5
BRANCH   1  16
ATOM     16  C   UNL     1      44.176   5.192  11.196  0.00  0.00    +0.000 C 
ATOM     17  C   UNL     1      43.134   4.753  12.229  0.00  0.00    +0.000 C 
BRANCH  16  18
ATOM     18  O   UNL     1      43.749   4.803   9.867  0.00  0.00    +0.000 OA
BRANCH  18  19
ATOM     19  C   UNL     1      44.627   3.968   9.207  0.00  0.00    +0.000 A 
ATOM     20  C   UNL     1      44.689   2.630   9.591  0.00  0.00    +0.000 A 
ATOM     21  N   UNL     1      45.511   1.722   8.997  0.00  0.00    +0.000 NA
ATOM     22  C   UNL     1      46.286   2.233   7.997  0.00  0.00    +0.000 A 
ATOM     23  C   UNL     1      46.246   3.571   7.636  0.00  0.00    +0.000 A 
ATOM     24  N   UNL     1      45.418   4.466   8.235  0.00  0.00    +0.000 NA
BRANCH  22  25
ATOM     25  C   UNL     1      47.194   1.307   7.266  0.00  0.00    +0.000 C 
ATOM     26  N   UNL     1      46.920  -0.028   7.392  0.00  0.00    +0.000 N 
ATOM     27  O   UNL     1      48.132   1.709   6.590  0.00  0.00    +0.000 OA
ATOM     28  H   UNL     1      46.142  -0.338   7.964  0.00  0.00    +0.000 HD
ATOM     29  H   UNL     1      47.504  -0.700   6.916  0.00  0.00    +0.000 HD
ENDBRANCH  22  25
ENDBRANCH  18  19
ENDBRANCH  16  18
ENDBRANCH   1  16
TORSDOF 7
ENDMDL
MODEL 7
REMARK VINA RESULT:    -6.449      3.023      7.563
REMARK INTER + INTRA:          -9.815
REMARK INTER:                  -8.990
REMARK INTRA:                  -0.825
REMARK UNBOUND:                -0.728
REMARK  Name = 
REMARK  10 active torsions:
REMARK  status: ('A' for Active; 'I' for Inactive)
REMARK    1  A    between atoms: C_1  and  C_2
REMARK    2  A    between atoms: N_4  and  C_5
REMARK    3  A    between atoms: C_5  and  C_6
REMARK    4  A    between atoms: C_6  and  C_7
REMARK    5  A    between atoms: C_6  and  O_8
REMARK    6  A    between atoms: O_8  and  C_9
REMARK    7  A    between atoms: C_12  and  C_13
REMARK    8  A    between atoms: C_19  and  N_20
REMARK    9  A    between atoms: N_20  and  C_21
REMARK   10  A    between atoms: N_24  and  C_25
REMARK                            x       y       z     vdW  Elec       q    Type
REMARK                         _______ _______ _______ _____ _____    ______ ____
ROOT
ATOM      1  C   UNL     1      46.582   3.690  13.648  0.00  0.00    +0.000 C 
ENDROOT
BRANCH   1   5
ATOM      2  C   UNL     1      42.420   5.371  11.837  0.00  0.00    +0.000 C 
ATOM      3  C   UNL     1      43.790   4.809  11.845  0.00  0.00    +0.000 A 
ATOM      4  N   UNL     1      44.403   4.539  13.006  0.00  0.00    +0.000 NA
ATOM      5  N   UNL     1      45.607   4.063  12.638  0.00  0.00    +0.000 N 
ATOM      6  C   UNL     1      45.791   4.039  11.286  0.00  0.00    +0.000 A 
ATOM      7  C   UNL     1      44.641   4.539  10.734  0.00  0.00    +0.000 A 
BRANCH   7   8
ATOM      8  N   UNL     1      44.379   4.716   9.423  0.00  0.00    +0.000 N 
ATOM      9  H   UNL     1      44.359   5.646   9.014  0.00  0.00    +0.000 HD
BRANCH   8  10
ATOM     10  C   UNL     1      44.407   3.611   8.462  0.00  0.00    +0.000 C 
ATOM     11  C   UNL     1      44.454   2.254   9.179  0.00  0.00    +0.000 C 
ATOM     12  C   UNL     1      45.565   1.477   8.489  0.00  0.00    +0.000 C 
ATOM     13  N   UNL     1      46.502   2.515   8.066  0.00  0.00    +0.000 NA
ATOM     14  C   UNL     1      47.430   2.040   7.048  0.00  0.00    +0.000 C 
ATOM     15  C   UNL     1      45.667   3.624   7.579  0.00  0.00    +0.000 C 
ENDBRANCH   8  10
ENDBRANCH   7   8
ENDBRANCH   1   5
BRANCH   1  16
ATOM     16  C   UNL     1      47.021   4.836  14.575  0.00  0.00    +0.000 C 
ATOM     17  C   UNL     1      47.387   4.310  15.966  0.00  0.00    +0.000 C 
BRANCH  16  18
ATOM     18  O   UNL     1      48.180   5.450  13.958  0.00  0.00    +0.000 OA
BRANCH  18  19
ATOM     19  C   UNL     1      47.948   6.706  13.436  0.00  0.00    +0.000 A 
ATOM     20  C   UNL     1      49.002   7.374  12.817  0.00  0.00    +0.000 A 
ATOM     21  N   UNL     1      48.875   8.610  12.259  0.00  0.00    +0.000 NA
ATOM     22  C   UNL     1      47.627   9.152  12.368  0.00  0.00    +0.000 A 
ATOM     23  C   UNL     1      46.587   8.499  13.010  0.00  0.00    +0.000 A 
ATOM     24  N   UNL     1      46.726   7.265  13.560  0.00  0.00    +0.000 NA
BRANCH  22  25
ATOM     25  C   UNL     1      47.385  10.488  11.758  0.00  0.00    +0.000 C 
ATOM     26  N   UNL     1      46.239  11.128  12.146  0.00  0.00    +0.000 N 
ATOM     27  O   UNL     1      48.161  10.992  10.956  0.00  0.00    +0.000 OA
ATOM     28  H   UNL     1      45.606  10.687  12.805  0.00  0.00    +0.000 HD
ATOM     29  H   UNL     1      46.025  12.037  11.764  0.00  0.00    +0.000 HD
ENDBRANCH  22  25
ENDBRANCH  18  19
ENDBRANCH  16  18
ENDBRANCH   1  16
TORSDOF 7
ENDMDL
MODEL 8
REMARK VINA RESULT:    -6.162      3.763      5.937
REMARK INTER + INTRA:          -9.411
REMARK INTER:                  -8.626
REMARK INTRA:                  -0.785
REMARK UNBOUND:                -0.728
REMARK  Name = 
REMARK  10 active torsions:
REMARK  status: ('A' for Active; 'I' for Inactive)
REMARK    1  A    between atoms: C_1  and  C_2
REMARK    2  A    between atoms: N_4  and  C_5
REMARK    3  A    between atoms: C_5  and  C_6
REMARK    4  A    between atoms: C_6  and  C_7
REMARK    5  A    between atoms: C_6  and  O_8
REMARK    6  A    between atoms: O_8  and  C_9
REMARK    7  A    between atoms: C_12  and  C_13
REMARK    8  A    between atoms: C_19  and  N_20
REMARK    9  A    between atoms: N_20  and  C_21
REMARK   10  A    between atoms: N_24  and  C_25
REMARK                            x       y       z     vdW  Elec       q    Type
REMARK                         _______ _______ _______ _____ _____    ______ ____
ROOT
ATOM      1  C   UNL     1      49.335   6.688  15.407  0.00  0.00    +0.000 C 
ENDROOT
BRANCH   1   5
ATOM      2  C   UNL     1      47.324   2.915  17.675  0.00  0.00    +0.000 C 
ATOM      3  C   UNL     1      47.750   4.314  17.444  0.00  0.00    +0.000 A 
ATOM      4  N   UNL     1      48.380   4.650  16.310  0.00  0.00    +0.000 NA
ATOM      5  N   UNL     1      48.620   5.967  16.446  0.00  0.00    +0.000 N 
ATOM      6  C   UNL     1      48.185   6.479  17.634  0.00  0.00    +0.000 A 
ATOM      7  C   UNL     1      47.634   5.430  18.323  0.00  0.00    +0.000 A 
BRANCH   7   8
ATOM      8  N   UNL     1      47.090   5.464  19.557  0.00  0.00    +0.000 N 
ATOM      9  H   UNL     1      46.104   5.264  19.700  0.00  0.00    +0.000 HD
BRANCH   8  10
ATOM     10  C   UNL     1      47.907   5.485  20.773  0.00  0.00    +0.000 C 
ATOM     11  C   UNL     1      48.169   6.924  21.240  0.00  0.00    +0.000 C 
ATOM     12  C   UNL     1      49.664   6.989  21.513  0.00  0.00    +0.000 C 
ATOM     13  N   UNL     1      50.230   6.036  20.561  0.00  0.00    +0.000 NA
ATOM     14  C   UNL     1      51.589   5.645  20.913  0.00  0.00    +0.000 C 
ATOM     15  C   UNL     1      49.308   4.889  20.557  0.00  0.00    +0.000 C 
ENDBRANCH   8  10
ENDBRANCH   7   8
ENDBRANCH   1   5
BRANCH   1  16
ATOM     16  C   UNL     1      48.459   7.176  14.241  0.00  0.00    +0.000 C 
ATOM     17  C   UNL     1      49.104   8.369  13.529  0.00  0.00    +0.000 C 
BRANCH  16  18
ATOM     18  O   UNL     1      48.331   6.062  13.322  0.00  0.00    +0.000 OA
BRANCH  18  19
ATOM     19  C   UNL     1      47.036   5.791  12.932  0.00  0.00    +0.000 A 
ATOM     20  C   UNL     1      46.581   6.315  11.724  0.00  0.00    +0.000 A 
ATOM     21  N   UNL     1      45.326   6.097  11.243  0.00  0.00    +0.000 NA
ATOM     22  C   UNL     1      44.539   5.329  12.051  0.00  0.00    +0.000 A 
ATOM     23  C   UNL     1      44.982   4.833  13.267  0.00  0.00    +0.000 A 
ATOM     24  N   UNL     1      46.238   5.056  13.734  0.00  0.00    +0.000 NA
BRANCH  22  25
ATOM     25  C   UNL     1      43.159   5.010  11.592  0.00  0.00    +0.000 C 
ATOM     26  N   UNL     1      42.245   6.024  11.682  0.00  0.00    +0.000 N 
ATOM     27  O   UNL     1      42.854   3.906  11.156  0.00  0.00    +0.000 OA
ATOM     28  H   UNL     1      42.518   6.927  12.053  0.00  0.00    +0.000 HD
ATOM     29  H   UNL     1      41.294   5.862  11.383  0.00  0.00    +0.000 HD
ENDBRANCH  22  25
ENDBRANCH  18  19
ENDBRANCH  16  18
ENDBRANCH   1  16
TORSDOF 7
ENDMDL
MODEL 9
REMARK VINA RESULT:    -6.158      3.893      8.577
REMARK INTER + INTRA:          -9.406
REMARK INTER:                  -8.551
REMARK INTRA:                  -0.855
REMARK UNBOUND:                -0.728
REMARK  Name = 
REMARK  10 active torsions:
REMARK  status: ('A' for Active; 'I' for Inactive)
REMARK    1  A    between atoms: C_1  and  C_2
REMARK    2  A    between atoms: N_4  and  C_5
REMARK    3  A    between atoms: C_5  and  C_6
REMARK    4  A    between atoms: C_6  and  C_7
REMARK    5  A    between atoms: C_6  and  O_8
REMARK    6  A    between atoms: O_8  and  C_9
REMARK    7  A    between atoms: C_12  and  C_13
REMARK    8  A    between atoms: C_19  and  N_20
REMARK    9  A    between atoms: N_20  and  C_21
REMARK   10  A    between atoms: N_24  and  C_25
REMARK                            x       y       z     vdW  Elec       q    Type
REMARK                         _______ _______ _______ _____ _____    ______ ____
ROOT
ATOM      1  C   UNL     1      48.009   8.042  12.598  0.00  0.00    +0.000 C 
ENDROOT
BRANCH   1   5
ATOM      2  C   UNL     1      46.580   3.499  13.464  0.00  0.00    +0.000 C 
ATOM      3  C   UNL     1      46.464   4.944  13.165  0.00  0.00    +0.000 A 
ATOM      4  N   UNL     1      47.565   5.696  13.024  0.00  0.00    +0.000 NA
ATOM      5  N   UNL     1      47.091   6.930  12.775  0.00  0.00    +0.000 N 
ATOM      6  C   UNL     1      45.728   6.998  12.773  0.00  0.00    +0.000 A 
ATOM      7  C   UNL     1      45.281   5.732  13.047  0.00  0.00    +0.000 A 
BRANCH   7   8
ATOM      8  N   UNL     1      43.999   5.328  13.162  0.00  0.00    +0.000 N 
ATOM      9  H   UNL     1      43.420   5.636  13.938  0.00  0.00    +0.000 HD
BRANCH   8  10
ATOM     10  C   UNL     1      43.277   4.691  12.058  0.00  0.00    +0.000 C 
ATOM     11  C   UNL     1      43.480   3.169  12.068  0.00  0.00    +0.000 C 
ATOM     12  C   UNL     1      43.840   2.805  10.635  0.00  0.00    +0.000 C 
ATOM     13  N   UNL     1      44.537   3.990  10.143  0.00  0.00    +0.000 NA
ATOM     14  C   UNL     1      44.618   4.019   8.688  0.00  0.00    +0.000 C 
ATOM     15  C   UNL     1      43.788   5.138  10.678  0.00  0.00    +0.000 C 
ENDBRANCH   8  10
ENDBRANCH   7   8
ENDBRANCH   1   5
BRANCH   1  16
ATOM     16  C   UNL     1      49.475   7.727  12.937  0.00  0.00    +0.000 C 
ATOM     17  C   UNL     1      50.410   8.172  11.808  0.00  0.00    +0.000 C 
BRANCH  16  18
ATOM     18  O   UNL     1      49.787   8.454  14.152  0.00  0.00    +0.000 OA
BRANCH  18  19
ATOM     19  C   UNL     1      49.368   7.834  15.310  0.00  0.00    +0.000 A 
ATOM     20  C   UNL     1      48.768   8.608  16.301  0.00  0.00    +0.000 A 
ATOM     21  N   UNL     1      48.307   8.092  17.474  0.00  0.00    +0.000 NA
ATOM     22  C   UNL     1      48.494   6.747  17.609  0.00  0.00    +0.000 A 
ATOM     23  C   UNL     1      49.118   5.982  16.636  0.00  0.00    +0.000 A 
ATOM     24  N   UNL     1      49.570   6.509  15.469  0.00  0.00    +0.000 NA
BRANCH  22  25
ATOM     25  C   UNL     1      47.993   6.088  18.846  0.00  0.00    +0.000 C 
ATOM     26  N   UNL     1      46.767   5.489  18.754  0.00  0.00    +0.000 N 
ATOM     27  O   UNL     1      48.637   6.076  19.888  0.00  0.00    +0.000 OA
ATOM     28  H   UNL     1      46.248   5.517  17.883  0.00  0.00    +0.000 HD
ATOM     29  H   UNL     1      46.379   5.026  19.564  0.00  0.00    +0.000 HD
ENDBRANCH  22  25
ENDBRANCH  18  19
ENDBRANCH  16  18
ENDBRANCH   1  16
TORSDOF 7
ENDMDL
