MODEL 1
REMARK VINA RESULT:    -8.785      0.000      0.000
REMARK INTER + INTRA:         -13.895
REMARK INTER:                 -12.894
REMARK INTRA:                  -1.001
REMARK UNBOUND:                -1.001
REMARK  Name = 
REMARK  9 active torsions:
REMARK  status: ('A' for Active; 'I' for Inactive)
REMARK    1  A    between atoms: C_1  and  C_2
REMARK    2  A    between atoms: C_2  and  N_3
REMARK    3  A    between atoms: C_2  and  C_21
REMARK    4  A    between atoms: N_3  and  C_4
REMARK    5  A    between atoms: C_4  and  C_5
REMARK    6  A    between atoms: C_8  and  C_9
REMARK    7  A    between atoms: C_9  and  N_10
REMARK    8  A    between atoms: N_10  and  C_11
REMARK    9  A    between atoms: C_11  and  C_12
REMARK                            x       y       z     vdW  Elec       q    Type
REMARK                         _______ _______ _______ _____ _____    ______ ____
ROOT
ATOM      1  C   UNL     1      46.953   5.624  13.517  0.00  0.00    +0.000 A 
ATOM      2  C   UNL     1      45.978   4.645  13.749  0.00  0.00    +0.000 A 
ATOM      3  C   UNL     1      44.850   4.560  12.930  0.00  0.00    +0.000 A 
ATOM      4  C   UNL     1      44.663   5.462  11.872  0.00  0.00    +0.000 A 
ATOM      5  C   UNL     1      45.646   6.426  11.626  0.00  0.00    +0.000 A 
ATOM      6  C   UNL     1      46.779   6.504  12.438  0.00  0.00    +0.000 A 
ENDROOT
BRANCH   1   7
ATOM      7  C   UNL     1      48.128   5.800  14.451  0.00  0.00    +0.000 C 
BRANCH   7   8
ATOM      8  N   UNL     1      47.749   5.698  15.860  0.00  0.00    +0.000 NA
ATOM      9  H   UNL     1      48.266   6.404  16.383  0.00  0.00    +0.000 HD
BRANCH   8  11
ATOM     10  C   UNL     1      46.997   3.883  17.408  0.00  0.00    +0.000 C 
ATOM     11  C   UNL     1      48.073   4.382  16.435  0.00  0.00    +0.000 C 
BRANCH  11  12
ATOM     12  C   UNL     1      49.403   4.495  17.159  0.00  0.00    +0.000 A 
ATOM     13  C   UNL     1      49.859   5.619  17.833  0.00  0.00    +0.000 A 
ATOM     14  S   UNL     1      51.372   5.387  18.591  0.00  0.00    +0.000 S 
ATOM     15  C   UNL     1      51.457   3.770  18.063  0.00  0.00    +0.000 A 
ATOM     16  N   UNL     1      52.505   2.970  18.397  0.00  0.00    +0.000 NA
ATOM     17  C   UNL     1      52.417   1.766  17.939  0.00  0.00    +0.000 A 
ATOM     18  N   UNL     1      51.386   1.285  17.171  0.00  0.00    +0.000 N 
ATOM     19  C   UNL     1      50.304   2.058  16.807  0.00  0.00    +0.000 A 
ATOM     20  O   UNL     1      49.391   1.601  16.129  0.00  0.00    +0.000 OA
ATOM     21  C   UNL     1      50.355   3.420  17.306  0.00  0.00    +0.000 A 
ATOM     22  H   UNL     1      51.381   0.333  16.846  0.00  0.00    +0.000 HD
ENDBRANCH  11  12
ENDBRANCH   8  11
ENDBRANCH   7   8
ENDBRANCH   1   7
BRANCH   4  23
ATOM     23  C   UNL     1      43.411   5.405  11.029  0.00  0.00    +0.000 C 
BRANCH  23  24
ATOM     24  N   UNL     1      43.709   4.840   9.716  0.00  0.00    +0.000 NA
ATOM     25  H   UNL     1      44.479   5.359   9.297  0.00  0.00    +0.000 HD
BRANCH  24  26
ATOM     26  C   UNL     1      44.068   3.431   9.802  0.00  0.00    +0.000 C 
BRANCH  26  27
ATOM     27  C   UNL     1      45.165   3.097   8.815  0.00  0.00    +0.000 A 
ATOM     28  C   UNL     1      45.787   4.103   8.059  0.00  0.00    +0.000 A 
ATOM     29  C   UNL     1      46.838   3.787   7.196  0.00  0.00    +0.000 A 
ATOM     30  C   UNL     1      47.264   2.469   7.083  0.00  0.00    +0.000 A 
ATOM     31  F   UNL     1      48.288   2.173   6.271  0.00  0.00    +0.000 F 
ATOM     32  C   UNL     1      46.647   1.454   7.802  0.00  0.00    +0.000 A 
ATOM     33  C   UNL     1      45.599   1.767   8.667  0.00  0.00    +0.000 A 
ENDBRANCH  26  27
ENDBRANCH  24  26
ENDBRANCH  23  24
ENDBRANCH   4  23
TORSDOF 8
ENDMDL
MODEL 2
REMARK VINA RESULT:    -8.207      1.483      2.042
REMARK INTER + INTRA:         -13.047
REMARK INTER:                 -11.725
REMARK INTRA:                  -1.322
REMARK UNBOUND:                -1.001
REMARK  Name = 
REMARK  9 active torsions:
REMARK  status: ('A' for Active; 'I' for Inactive)
REMARK    1  A    between atoms: C_1  and  C_2
REMARK    2  A    between atoms: C_2  and  N_3
REMARK    3  A    between atoms: C_2  and  C_21
REMARK    4  A    between atoms: N_3  and  C_4
REMARK    5  A    between atoms: C_4  and  C_5
REMARK    6  A    between atoms: C_8  and  C_9
REMARK    7  A    between atoms: C_9  and  N_10
REMARK    8  A    between atoms: N_10  and  C_11
REMARK    9  A    between atoms: C_11  and  C_12
REMARK                            x       y       z     vdW  Elec       q    Type
REMARK                         _______ _______ _______ _____ _____    ______ ____
ROOT
ATOM      1  C   UNL     1      47.036   6.051  12.948  0.00  0.00    +0.000 A 
ATOM      2  C   UNL     1      46.108   5.143  13.475  0.00  0.00    +0.000 A 
ATOM      3  C   UNL     1      45.000   4.746  12.724  0.00  0.00    +0.000 A 
ATOM      4  C   UNL     1      44.783   5.263  11.438  0.00  0.00    +0.000 A 
ATOM      5  C   UNL     1      45.719   6.153  10.903  0.00  0.00    +0.000 A 
ATOM      6  C   UNL     1      46.833   6.541  11.649  0.00  0.00    +0.000 A 
ENDROOT
BRANCH   1   7
ATOM      7  C   UNL     1      48.185   6.572  13.780  0.00  0.00    +0.000 C 
BRANCH   7   8
ATOM      8  N   UNL     1      48.242   5.963  15.108  0.00  0.00    +0.000 NA
ATOM      9  H   UNL     1      47.295   5.713  15.388  0.00  0.00    +0.000 HD
BRANCH   8  11
ATOM     10  C   UNL     1      48.627   8.355  15.731  0.00  0.00    +0.000 C 
ATOM     11  C   UNL     1      48.784   6.881  16.124  0.00  0.00    +0.000 C 
BRANCH  11  12
ATOM     12  C   UNL     1      50.256   6.559  16.317  0.00  0.00    +0.000 A 
ATOM     13  C   UNL     1      51.315   7.339  15.876  0.00  0.00    +0.000 A 
ATOM     14  S   UNL     1      52.843   6.717  16.315  0.00  0.00    +0.000 S 
ATOM     15  C   UNL     1      52.140   5.397  17.128  0.00  0.00    +0.000 A 
ATOM     16  N   UNL     1      52.904   4.472  17.770  0.00  0.00    +0.000 NA
ATOM     17  C   UNL     1      52.227   3.542  18.356  0.00  0.00    +0.000 A 
ATOM     18  N   UNL     1      50.858   3.441  18.356  0.00  0.00    +0.000 N 
ATOM     19  C   UNL     1      50.043   4.352  17.718  0.00  0.00    +0.000 A 
ATOM     20  O   UNL     1      48.822   4.245  17.741  0.00  0.00    +0.000 OA
ATOM     21  C   UNL     1      50.761   5.422  17.050  0.00  0.00    +0.000 A 
ATOM     22  H   UNL     1      50.393   2.688  18.834  0.00  0.00    +0.000 HD
ENDBRANCH  11  12
ENDBRANCH   8  11
ENDBRANCH   7   8
ENDBRANCH   1   7
BRANCH   4  23
ATOM     23  C   UNL     1      43.549   4.879  10.657  0.00  0.00    +0.000 C 
BRANCH  23  24
ATOM     24  N   UNL     1      43.922   4.328   9.357  0.00  0.00    +0.000 NA
ATOM     25  H   UNL     1      44.669   4.895   8.957  0.00  0.00    +0.000 HD
BRANCH  24  26
ATOM     26  C   UNL     1      44.372   2.946   9.463  0.00  0.00    +0.000 C 
BRANCH  26  27
ATOM     27  C   UNL     1      45.450   2.653   8.444  0.00  0.00    +0.000 A 
ATOM     28  C   UNL     1      46.038   1.381   8.361  0.00  0.00    +0.000 A 
ATOM     29  C   UNL     1      46.989   1.108   7.376  0.00  0.00    +0.000 A 
ATOM     30  C   UNL     1      47.358   2.104   6.480  0.00  0.00    +0.000 A 
ATOM     31  F   UNL     1      48.255   1.832   5.522  0.00  0.00    +0.000 F 
ATOM     32  C   UNL     1      46.808   3.377   6.560  0.00  0.00    +0.000 A 
ATOM     33  C   UNL     1      45.855   3.651   7.540  0.00  0.00    +0.000 A 
ENDBRANCH  26  27
ENDBRANCH  24  26
ENDBRANCH  23  24
ENDBRANCH   4  23
TORSDOF 8
ENDMDL
MODEL 3
REMARK VINA RESULT:    -8.003      2.591      3.583
REMARK INTER + INTRA:         -12.748
REMARK INTER:                 -11.685
REMARK INTRA:                  -1.063
REMARK UNBOUND:                -1.001
REMARK  Name = 
REMARK  9 active torsions:
REMARK  status: ('A' for Active; 'I' for Inactive)
REMARK    1  A    between atoms: C_1  and  C_2
REMARK    2  A    between atoms: C_2  and  N_3
REMARK    3  A    between atoms: C_2  and  C_21
REMARK    4  A    between atoms: N_3  and  C_4
REMARK    5  A    between atoms: C_4  and  C_5
REMARK    6  A    between atoms: C_8  and  C_9
REMARK    7  A    between atoms: C_9  and  N_10
REMARK    8  A    between atoms: N_10  and  C_11
REMARK    9  A    between atoms: C_11  and  C_12
REMARK                            x       y       z     vdW  Elec       q    Type
REMARK                         _______ _______ _______ _____ _____    ______ ____
ROOT
ATOM      1  C   UNL     1      46.960   6.026  13.063  0.00  0.00    +0.000 A 
ATOM      2  C   UNL     1      45.977   5.187  13.605  0.00  0.00    +0.000 A 
ATOM      3  C   UNL     1      44.844   4.850  12.862  0.00  0.00    +0.000 A 
ATOM      4  C   UNL     1      44.658   5.359  11.568  0.00  0.00    +0.000 A 
ATOM      5  C   UNL     1      45.648   6.180  11.018  0.00  0.00    +0.000 A 
ATOM      6  C   UNL     1      46.787   6.507  11.756  0.00  0.00    +0.000 A 
ENDROOT
BRANCH   1   7
ATOM      7  C   UNL     1      48.142   6.485  13.885  0.00  0.00    +0.000 C 
BRANCH   7   8
ATOM      8  N   UNL     1      48.145   5.920  15.234  0.00  0.00    +0.000 NA
ATOM      9  H   UNL     1      47.182   5.862  15.560  0.00  0.00    +0.000 HD
BRANCH   8  11
ATOM     10  C   UNL     1      50.388   6.841  15.847  0.00  0.00    +0.000 C 
ATOM     11  C   UNL     1      48.896   6.751  16.189  0.00  0.00    +0.000 C 
BRANCH  11  12
ATOM     12  C   UNL     1      48.725   6.153  17.575  0.00  0.00    +0.000 A 
ATOM     13  C   UNL     1      49.080   4.863  17.944  0.00  0.00    +0.000 A 
ATOM     14  S   UNL     1      48.810   4.534  19.598  0.00  0.00    +0.000 S 
ATOM     15  C   UNL     1      48.232   6.110  19.880  0.00  0.00    +0.000 A 
ATOM     16  N   UNL     1      47.850   6.512  21.123  0.00  0.00    +0.000 NA
ATOM     17  C   UNL     1      47.454   7.740  21.182  0.00  0.00    +0.000 A 
ATOM     18  N   UNL     1      47.395   8.604  20.117  0.00  0.00    +0.000 N 
ATOM     19  C   UNL     1      47.769   8.242  18.841  0.00  0.00    +0.000 A 
ATOM     20  O   UNL     1      47.716   9.036  17.908  0.00  0.00    +0.000 OA
ATOM     21  C   UNL     1      48.230   6.870  18.726  0.00  0.00    +0.000 A 
ATOM     22  H   UNL     1      47.075   9.551  20.234  0.00  0.00    +0.000 HD
ENDBRANCH  11  12
ENDBRANCH   8  11
ENDBRANCH   7   8
ENDBRANCH   1   7
BRANCH   4  23
ATOM     23  C   UNL     1      43.401   5.043  10.794  0.00  0.00    +0.000 C 
BRANCH  23  24
ATOM     24  N   UNL     1      43.736   4.469   9.493  0.00  0.00    +0.000 NA
ATOM     25  H   UNL     1      44.450   5.045   9.050  0.00  0.00    +0.000 HD
BRANCH  24  26
ATOM     26  C   UNL     1      44.228   3.103   9.616  0.00  0.00    +0.000 C 
BRANCH  26  27
ATOM     27  C   UNL     1      45.288   2.821   8.574  0.00  0.00    +0.000 A 
ATOM     28  C   UNL     1      45.731   3.828   7.703  0.00  0.00    +0.000 A 
ATOM     29  C   UNL     1      46.752   3.568   6.787  0.00  0.00    +0.000 A 
ATOM     30  C   UNL     1      47.325   2.303   6.735  0.00  0.00    +0.000 A 
ATOM     31  F   UNL     1      48.320   2.064   5.870  0.00  0.00    +0.000 F 
ATOM     32  C   UNL     1      46.884   1.284   7.569  0.00  0.00    +0.000 A 
ATOM     33  C   UNL     1      45.868   1.542   8.488  0.00  0.00    +0.000 A 
ENDBRANCH  26  27
ENDBRANCH  24  26
ENDBRANCH  23  24
ENDBRANCH   4  23
TORSDOF 8
ENDMDL
MODEL 4
REMARK VINA RESULT:    -7.679      3.013      4.154
REMARK INTER + INTRA:         -12.272
REMARK INTER:                 -10.680
REMARK INTRA:                  -1.591
REMARK UNBOUND:                -1.001
REMARK  Name = 
REMARK  9 active torsions:
REMARK  status: ('A' for Active; 'I' for Inactive)
REMARK    1  A    between atoms: C_1  and  C_2
REMARK    2  A    between atoms: C_2  and  N_3
REMARK    3  A    between atoms: C_2  and  C_21
REMARK    4  A    between atoms: N_3  and  C_4
REMARK    5  A    between atoms: C_4  and  C_5
REMARK    6  A    between atoms: C_8  and  C_9
REMARK    7  A    between atoms: C_9  and  N_10
REMARK    8  A    between atoms: N_10  and  C_11
REMARK    9  A    between atoms: C_11  and  C_12
REMARK                            x       y       z     vdW  Elec       q    Type
REMARK                         _______ _______ _______ _____ _____    ______ ____
ROOT
ATOM      1  C   UNL     1      47.149   6.496  13.011  0.00  0.00    +0.000 A 
ATOM      2  C   UNL     1      46.063   7.233  12.521  0.00  0.00    +0.000 A 
ATOM      3  C   UNL     1      44.774   6.696  12.547  0.00  0.00    +0.000 A 
ATOM      4  C   UNL     1      44.545   5.405  13.046  0.00  0.00    +0.000 A 
ATOM      5  C   UNL     1      45.625   4.677  13.554  0.00  0.00    +0.000 A 
ATOM      6  C   UNL     1      46.912   5.218  13.539  0.00  0.00    +0.000 A 
ENDROOT
BRANCH   1   7
ATOM      7  C   UNL     1      48.564   7.015  12.900  0.00  0.00    +0.000 C 
BRANCH   7   8
ATOM      8  N   UNL     1      49.427   6.537  13.979  0.00  0.00    +0.000 NA
ATOM      9  H   UNL     1      48.990   5.721  14.404  0.00  0.00    +0.000 HD
BRANCH   8  11
ATOM     10  C   UNL     1      51.089   7.947  15.208  0.00  0.00    +0.000 C 
ATOM     11  C   UNL     1      49.619   7.547  15.034  0.00  0.00    +0.000 C 
BRANCH  11  12
ATOM     12  C   UNL     1      49.087   6.977  16.338  0.00  0.00    +0.000 A 
ATOM     13  C   UNL     1      49.170   5.648  16.728  0.00  0.00    +0.000 A 
ATOM     14  S   UNL     1      48.528   5.359  18.284  0.00  0.00    +0.000 S 
ATOM     15  C   UNL     1      48.137   7.002  18.496  0.00  0.00    +0.000 A 
ATOM     16  N   UNL     1      47.574   7.453  19.649  0.00  0.00    +0.000 NA
ATOM     17  C   UNL     1      47.355   8.725  19.667  0.00  0.00    +0.000 A 
ATOM     18  N   UNL     1      47.636   9.591  18.640  0.00  0.00    +0.000 N 
ATOM     19  C   UNL     1      48.205   9.181  17.453  0.00  0.00    +0.000 A 
ATOM     20  O   UNL     1      48.456   9.976  16.555  0.00  0.00    +0.000 OA
ATOM     21  C   UNL     1      48.477   7.757  17.389  0.00  0.00    +0.000 A 
ATOM     22  H   UNL     1      47.439  10.575  18.721  0.00  0.00    +0.000 HD
ENDBRANCH  11  12
ENDBRANCH   8  11
ENDBRANCH   7   8
ENDBRANCH   1   7
BRANCH   4  23
ATOM     23  C   UNL     1      43.159   4.806  13.012  0.00  0.00    +0.000 C 
BRANCH  23  24
ATOM     24  N   UNL     1      42.829   4.366  11.659  0.00  0.00    +0.000 NA
ATOM     25  H   UNL     1      43.114   5.085  10.997  0.00  0.00    +0.000 HD
BRANCH  24  26
ATOM     26  C   UNL     1      43.490   3.112  11.322  0.00  0.00    +0.000 C 
BRANCH  26  27
ATOM     27  C   UNL     1      44.360   3.278  10.096  0.00  0.00    +0.000 A 
ATOM     28  C   UNL     1      44.810   4.547   9.697  0.00  0.00    +0.000 A 
ATOM     29  C   UNL     1      45.661   4.678   8.598  0.00  0.00    +0.000 A 
ATOM     30  C   UNL     1      46.057   3.547   7.894  0.00  0.00    +0.000 A 
ATOM     31  F   UNL     1      46.892   3.675   6.854  0.00  0.00    +0.000 F 
ATOM     32  C   UNL     1      45.604   2.285   8.255  0.00  0.00    +0.000 A 
ATOM     33  C   UNL     1      44.757   2.151   9.355  0.00  0.00    +0.000 A 
ENDBRANCH  26  27
ENDBRANCH  24  26
ENDBRANCH  23  24
ENDBRANCH   4  23
TORSDOF 8
ENDMDL
MODEL 5
REMARK VINA RESULT:    -7.665      2.262      2.774
REMARK INTER + INTRA:         -12.251
REMARK INTER:                 -11.034
REMARK INTRA:                  -1.217
REMARK UNBOUND:                -1.001
REMARK  Name = 
REMARK  9 active torsions:
REMARK  status: ('A' for Active; 'I' for Inactive)
REMARK    1  A    between atoms: C_1  and  C_2
REMARK    2  A    between atoms: C_2  and  N_3
REMARK    3  A    between atoms: C_2  and  C_21
REMARK    4  A    between atoms: N_3  and  C_4
REMARK    5  A    between atoms: C_4  and  C_5
REMARK    6  A    between atoms: C_8  and  C_9
REMARK    7  A    between atoms: C_9  and  N_10
REMARK    8  A    between atoms: N_10  and  C_11
REMARK    9  A    between atoms: C_11  and  C_12
REMARK                            x       y       z     vdW  Elec       q    Type
REMARK                         _______ _______ _______ _____ _____    ______ ____
ROOT
ATOM      1  C   UNL     1      46.800   5.763  13.265  0.00  0.00    +0.000 A 
ATOM      2  C   UNL     1      46.736   6.369  12.003  0.00  0.00    +0.000 A 
ATOM      3  C   UNL     1      45.640   6.148  11.166  0.00  0.00    +0.000 A 
ATOM      4  C   UNL     1      44.592   5.304  11.564  0.00  0.00    +0.000 A 
ATOM      5  C   UNL     1      44.645   4.716  12.832  0.00  0.00    +0.000 A 
ATOM      6  C   UNL     1      45.735   4.946  13.673  0.00  0.00    +0.000 A 
ENDROOT
BRANCH   1   7
ATOM      7  C   UNL     1      48.021   5.905  14.143  0.00  0.00    +0.000 C 
BRANCH   7   8
ATOM      8  N   UNL     1      47.693   5.917  15.568  0.00  0.00    +0.000 NA
ATOM      9  H   UNL     1      48.010   6.801  15.964  0.00  0.00    +0.000 HD
BRANCH   8  11
ATOM     10  C   UNL     1      47.473   3.583  16.440  0.00  0.00    +0.000 C 
ATOM     11  C   UNL     1      48.356   4.829  16.307  0.00  0.00    +0.000 C 
BRANCH  11  12
ATOM     12  C   UNL     1      48.722   5.346  17.687  0.00  0.00    +0.000 A 
ATOM     13  C   UNL     1      48.038   5.062  18.860  0.00  0.00    +0.000 A 
ATOM     14  S   UNL     1      48.754   5.755  20.247  0.00  0.00    +0.000 S 
ATOM     15  C   UNL     1      50.014   6.439  19.329  0.00  0.00    +0.000 A 
ATOM     16  N   UNL     1      51.011   7.155  19.917  0.00  0.00    +0.000 NA
ATOM     17  C   UNL     1      51.903   7.593  19.093  0.00  0.00    +0.000 A 
ATOM     18  N   UNL     1      51.892   7.392  17.735  0.00  0.00    +0.000 N 
ATOM     19  C   UNL     1      50.903   6.677  17.094  0.00  0.00    +0.000 A 
ATOM     20  O   UNL     1      50.922   6.503  15.881  0.00  0.00    +0.000 OA
ATOM     21  C   UNL     1      49.879   6.157  17.982  0.00  0.00    +0.000 A 
ATOM     22  H   UNL     1      52.622   7.763  17.149  0.00  0.00    +0.000 HD
ENDBRANCH  11  12
ENDBRANCH   8  11
ENDBRANCH   7   8
ENDBRANCH   1   7
BRANCH   4  23
ATOM     23  C   UNL     1      43.441   5.020  10.630  0.00  0.00    +0.000 C 
BRANCH  23  24
ATOM     24  N   UNL     1      43.932   4.454   9.376  0.00  0.00    +0.000 NA
ATOM     25  H   UNL     1      44.686   5.039   9.020  0.00  0.00    +0.000 HD
BRANCH  24  26
ATOM     26  C   UNL     1      44.423   3.093   9.553  0.00  0.00    +0.000 C 
BRANCH  26  27
ATOM     27  C   UNL     1      45.464   2.759   8.508  0.00  0.00    +0.000 A 
ATOM     28  C   UNL     1      45.997   1.464   8.407  0.00  0.00    +0.000 A 
ATOM     29  C   UNL     1      46.913   1.156   7.400  0.00  0.00    +0.000 A 
ATOM     30  C   UNL     1      47.302   2.139   6.498  0.00  0.00    +0.000 A 
ATOM     31  F   UNL     1      48.164   1.834   5.519  0.00  0.00    +0.000 F 
ATOM     32  C   UNL     1      46.808   3.434   6.594  0.00  0.00    +0.000 A 
ATOM     33  C   UNL     1      45.890   3.743   7.597  0.00  0.00    +0.000 A 
ENDBRANCH  26  27
ENDBRANCH  24  26
ENDBRANCH  23  24
ENDBRANCH   4  23
TORSDOF 8
ENDMDL
MODEL 6
REMARK VINA RESULT:    -7.458      3.938      8.681
REMARK INTER + INTRA:         -11.947
REMARK INTER:                 -10.216
REMARK INTRA:                  -1.731
REMARK UNBOUND:                -1.001
REMARK  Name = 
REMARK  9 active torsions:
REMARK  status: ('A' for Active; 'I' for Inactive)
REMARK    1  A    between atoms: C_1  and  C_2
REMARK    2  A    between atoms: C_2  and  N_3
REMARK    3  A    between atoms: C_2  and  C_21
REMARK    4  A    between atoms: N_3  and  C_4
REMARK    5  A    between atoms: C_4  and  C_5
REMARK    6  A    between atoms: C_8  and  C_9
REMARK    7  A    between atoms: C_9  and  N_10
REMARK    8  A    between atoms: N_10  and  C_11
REMARK    9  A    between atoms: C_11  and  C_12
REMARK                            x       y       z     vdW  Elec       q    Type
REMARK                         _______ _______ _______ _____ _____    ______ ____
ROOT
ATOM      1  C   UNL     1      48.129   7.985  13.391  0.00  0.00    +0.000 A 
ATOM      2  C   UNL     1      47.857   9.112  14.177  0.00  0.00    +0.000 A 
ATOM      3  C   UNL     1      48.141   9.107  15.544  0.00  0.00    +0.000 A 
ATOM      4  C   UNL     1      48.687   7.970  16.159  0.00  0.00    +0.000 A 
ATOM      5  C   UNL     1      48.979   6.852  15.371  0.00  0.00    +0.000 A 
ATOM      6  C   UNL     1      48.705   6.861  14.002  0.00  0.00    +0.000 A 
ENDROOT
BRANCH   1   7
ATOM      7  C   UNL     1      47.735   7.931  11.932  0.00  0.00    +0.000 C 
BRANCH   7   8
ATOM      8  N   UNL     1      47.081   6.674  11.570  0.00  0.00    +0.000 NA
ATOM      9  H   UNL     1      47.517   6.317  10.723  0.00  0.00    +0.000 HD
BRANCH   8  11
ATOM     10  C   UNL     1      44.978   7.840  12.259  0.00  0.00    +0.000 C 
ATOM     11  C   UNL     1      45.644   6.847  11.300  0.00  0.00    +0.000 C 
BRANCH  11  12
ATOM     12  C   UNL     1      44.972   5.490  11.423  0.00  0.00    +0.000 A 
ATOM     13  C   UNL     1      44.225   5.058  12.509  0.00  0.00    +0.000 A 
ATOM     14  S   UNL     1      43.557   3.501  12.295  0.00  0.00    +0.000 S 
ATOM     15  C   UNL     1      44.225   3.362  10.735  0.00  0.00    +0.000 A 
ATOM     16  N   UNL     1      44.008   2.260   9.967  0.00  0.00    +0.000 NA
ATOM     17  C   UNL     1      44.564   2.310   8.803  0.00  0.00    +0.000 A 
ATOM     18  N   UNL     1      45.324   3.352   8.333  0.00  0.00    +0.000 N 
ATOM     19  C   UNL     1      45.573   4.487   9.075  0.00  0.00    +0.000 A 
ATOM     20  O   UNL     1      46.247   5.409   8.629  0.00  0.00    +0.000 OA
ATOM     21  C   UNL     1      44.961   4.480  10.391  0.00  0.00    +0.000 A 
ATOM     22  H   UNL     1      45.729   3.326   7.413  0.00  0.00    +0.000 HD
ENDBRANCH  11  12
ENDBRANCH   8  11
ENDBRANCH   7   8
ENDBRANCH   1   7
BRANCH   4  23
ATOM     23  C   UNL     1      48.934   7.948  17.649  0.00  0.00    +0.000 C 
BRANCH  23  24
ATOM     24  N   UNL     1      47.733   7.512  18.355  0.00  0.00    +0.000 NA
ATOM     25  H   UNL     1      47.034   7.219  17.674  0.00  0.00    +0.000 HD
BRANCH  24  26
ATOM     26  C   UNL     1      48.011   6.406  19.263  0.00  0.00    +0.000 C 
BRANCH  26  27
ATOM     27  C   UNL     1      48.240   5.125  18.493  0.00  0.00    +0.000 A 
ATOM     28  C   UNL     1      47.233   4.582  17.679  0.00  0.00    +0.000 A 
ATOM     29  C   UNL     1      47.480   3.431  16.928  0.00  0.00    +0.000 A 
ATOM     30  C   UNL     1      48.726   2.820  16.993  0.00  0.00    +0.000 A 
ATOM     31  F   UNL     1      48.966   1.728  16.253  0.00  0.00    +0.000 F 
ATOM     32  C   UNL     1      49.729   3.325  17.811  0.00  0.00    +0.000 A 
ATOM     33  C   UNL     1      49.486   4.476  18.559  0.00  0.00    +0.000 A 
ENDBRANCH  26  27
ENDBRANCH  24  26
ENDBRANCH  23  24
ENDBRANCH   4  23
TORSDOF 8
ENDMDL
MODEL 7
REMARK VINA RESULT:    -7.442      2.080      2.730
REMARK INTER + INTRA:         -11.924
REMARK INTER:                 -10.220
REMARK INTRA:                  -1.704
REMARK UNBOUND:                -1.001
REMARK  Name = 
REMARK  9 active torsions:
REMARK  status: ('A' for Active; 'I' for Inactive)
REMARK    1  A    between atoms: C_1  and  C_2
REMARK    2  A    between atoms: C_2  and  N_3
REMARK    3  A    between atoms: C_2  and  C_21
REMARK    4  A    between atoms: N_3  and  C_4
REMARK    5  A    between atoms: C_4  and  C_5
REMARK    6  A    between atoms: C_8  and  C_9
REMARK    7  A    between atoms: C_9  and  N_10
REMARK    8  A    between atoms: N_10  and  C_11
REMARK    9  A    between atoms: C_11  and  C_12
REMARK                            x       y       z     vdW  Elec       q    Type
REMARK                         _______ _______ _______ _____ _____    ______ ____
ROOT
ATOM      1  C   UNL     1      47.497   6.414  13.136  0.00  0.00    +0.000 A 
ATOM      2  C   UNL     1      46.283   7.007  12.764  0.00  0.00    +0.000 A 
ATOM      3  C   UNL     1      45.094   6.277  12.811  0.00  0.00    +0.000 A 
ATOM      4  C   UNL     1      45.094   4.933  13.215  0.00  0.00    +0.000 A 
ATOM      5  C   UNL     1      46.301   4.346  13.606  0.00  0.00    +0.000 A 
ATOM      6  C   UNL     1      47.488   5.080  13.569  0.00  0.00    +0.000 A 
ENDROOT
BRANCH   1   7
ATOM      7  C   UNL     1      48.808   7.153  12.994  0.00  0.00    +0.000 C 
BRANCH   7   8
ATOM      8  N   UNL     1      48.927   8.275  13.925  0.00  0.00    +0.000 NA
ATOM      9  H   UNL     1      49.850   8.690  13.811  0.00  0.00    +0.000 HD
BRANCH   8  11
ATOM     10  C   UNL     1      48.427   9.022  16.259  0.00  0.00    +0.000 C 
ATOM     11  C   UNL     1      48.789   7.857  15.330  0.00  0.00    +0.000 C 
BRANCH  11  12
ATOM     12  C   UNL     1      50.104   7.240  15.772  0.00  0.00    +0.000 A 
ATOM     13  C   UNL     1      51.365   7.752  15.500  0.00  0.00    +0.000 A 
ATOM     14  S   UNL     1      52.630   6.845  16.200  0.00  0.00    +0.000 S 
ATOM     15  C   UNL     1      51.536   5.750  16.908  0.00  0.00    +0.000 A 
ATOM     16  N   UNL     1      51.967   4.721  17.686  0.00  0.00    +0.000 NA
ATOM     17  C   UNL     1      51.018   3.989  18.168  0.00  0.00    +0.000 A 
ATOM     18  N   UNL     1      49.678   4.182  17.941  0.00  0.00    +0.000 N 
ATOM     19  C   UNL     1      49.194   5.209  17.159  0.00  0.00    +0.000 A 
ATOM     20  O   UNL     1      47.991   5.365  16.979  0.00  0.00    +0.000 OA
ATOM     21  C   UNL     1      50.225   6.064  16.600  0.00  0.00    +0.000 A 
ATOM     22  H   UNL     1      48.989   3.572  18.349  0.00  0.00    +0.000 HD
ENDBRANCH  11  12
ENDBRANCH   8  11
ENDBRANCH   7   8
ENDBRANCH   1   7
BRANCH   4  23
ATOM     23  C   UNL     1      43.814   4.130  13.204  0.00  0.00    +0.000 C 
BRANCH  23  24
ATOM     24  N   UNL     1      44.015   2.865  12.502  0.00  0.00    +0.000 NA
ATOM     25  H   UNL     1      43.694   2.101  13.095  0.00  0.00    +0.000 HD
BRANCH  24  26
ATOM     26  C   UNL     1      43.292   2.828  11.237  0.00  0.00    +0.000 C 
BRANCH  26  27
ATOM     27  C   UNL     1      44.233   3.059  10.076  0.00  0.00    +0.000 A 
ATOM     28  C   UNL     1      44.588   4.359   9.683  0.00  0.00    +0.000 A 
ATOM     29  C   UNL     1      45.504   4.556   8.647  0.00  0.00    +0.000 A 
ATOM     30  C   UNL     1      46.058   3.459   8.000  0.00  0.00    +0.000 A 
ATOM     31  F   UNL     1      46.953   3.651   7.021  0.00  0.00    +0.000 F 
ATOM     32  C   UNL     1      45.701   2.164   8.354  0.00  0.00    +0.000 A 
ATOM     33  C   UNL     1      44.791   1.965   9.391  0.00  0.00    +0.000 A 
ENDBRANCH  26  27
ENDBRANCH  24  26
ENDBRANCH  23  24
ENDBRANCH   4  23
TORSDOF 8
ENDMDL
MODEL 8
REMARK VINA RESULT:    -7.367      2.388      3.300
REMARK INTER + INTRA:         -11.814
REMARK INTER:                 -10.784
REMARK INTRA:                  -1.031
REMARK UNBOUND:                -1.001
REMARK  Name = 
REMARK  9 active torsions:
REMARK  status: ('A' for Active; 'I' for Inactive)
REMARK    1  A    between atoms: C_1  and  C_2
REMARK    2  A    between atoms: C_2  and  N_3
REMARK    3  A    between atoms: C_2  and  C_21
REMARK    4  A    between atoms: N_3  and  C_4
REMARK    5  A    between atoms: C_4  and  C_5
REMARK    6  A    between atoms: C_8  and  C_9
REMARK    7  A    between atoms: C_9  and  N_10
REMARK    8  A    between atoms: N_10  and  C_11
REMARK    9  A    between atoms: C_11  and  C_12
REMARK                            x       y       z     vdW  Elec       q    Type
REMARK                         _______ _______ _______ _____ _____    ______ ____
ROOT
ATOM      1  C   UNL     1      47.413   6.370  13.281  0.00  0.00    +0.000 A 
ATOM      2  C   UNL     1      47.473   5.016  13.637  0.00  0.00    +0.000 A 
ATOM      3  C   UNL     1      46.401   4.164  13.365  0.00  0.00    +0.000 A 
ATOM      4  C   UNL     1      45.238   4.649  12.748  0.00  0.00    +0.000 A 
ATOM      5  C   UNL     1      45.185   5.996  12.374  0.00  0.00    +0.000 A 
ATOM      6  C   UNL     1      46.261   6.845  12.636  0.00  0.00    +0.000 A 
ENDROOT
BRANCH   1   7
ATOM      7  C   UNL     1      48.517   7.331  13.657  0.00  0.00    +0.000 C 
BRANCH   7   8
ATOM      8  N   UNL     1      49.561   6.704  14.466  0.00  0.00    +0.000 NA
ATOM      9  H   UNL     1      49.125   6.009  15.070  0.00  0.00    +0.000 HD
BRANCH   8  11
ATOM     10  C   UNL     1      51.643   7.171  15.772  0.00  0.00    +0.000 C 
ATOM     11  C   UNL     1      50.264   7.671  15.326  0.00  0.00    +0.000 C 
BRANCH  11  12
ATOM     12  C   UNL     1      49.399   7.938  16.545  0.00  0.00    +0.000 A 
ATOM     13  C   UNL     1      48.941   9.184  16.949  0.00  0.00    +0.000 A 
ATOM     14  S   UNL     1      47.937   9.122  18.329  0.00  0.00    +0.000 S 
ATOM     15  C   UNL     1      48.063   7.426  18.420  0.00  0.00    +0.000 A 
ATOM     16  N   UNL     1      47.406   6.717  19.377  0.00  0.00    +0.000 NA
ATOM     17  C   UNL     1      47.584   5.440  19.304  0.00  0.00    +0.000 A 
ATOM     18  N   UNL     1      48.363   4.802  18.371  0.00  0.00    +0.000 N 
ATOM     19  C   UNL     1      49.049   5.478  17.384  0.00  0.00    +0.000 A 
ATOM     20  O   UNL     1      49.730   4.884  16.556  0.00  0.00    +0.000 OA
ATOM     21  C   UNL     1      48.873   6.919  17.421  0.00  0.00    +0.000 A 
ATOM     22  H   UNL     1      48.459   3.801  18.372  0.00  0.00    +0.000 HD
ENDBRANCH  11  12
ENDBRANCH   8  11
ENDBRANCH   7   8
ENDBRANCH   1   7
BRANCH   4  23
ATOM     23  C   UNL     1      44.058   3.737  12.514  0.00  0.00    +0.000 C 
BRANCH  23  24
ATOM     24  N   UNL     1      44.344   2.806  11.425  0.00  0.00    +0.000 NA
ATOM     25  H   UNL     1      43.819   1.946  11.577  0.00  0.00    +0.000 HD
BRANCH  24  26
ATOM     26  C   UNL     1      43.986   3.365  10.128  0.00  0.00    +0.000 C 
BRANCH  26  27
ATOM     27  C   UNL     1      45.070   3.091   9.109  0.00  0.00    +0.000 A 
ATOM     28  C   UNL     1      45.510   1.781   8.858  0.00  0.00    +0.000 A 
ATOM     29  C   UNL     1      46.468   1.537   7.872  0.00  0.00    +0.000 A 
ATOM     30  C   UNL     1      46.993   2.598   7.144  0.00  0.00    +0.000 A 
ATOM     31  F   UNL     1      47.896   2.358   6.184  0.00  0.00    +0.000 F 
ATOM     32  C   UNL     1      46.592   3.905   7.394  0.00  0.00    +0.000 A 
ATOM     33  C   UNL     1      45.632   4.150   8.375  0.00  0.00    +0.000 A 
ENDBRANCH  26  27
ENDBRANCH  24  26
ENDBRANCH  23  24
ENDBRANCH   4  23
TORSDOF 8
ENDMDL
MODEL 9
REMARK VINA RESULT:    -7.217      1.833      2.570
REMARK INTER + INTRA:         -11.593
REMARK INTER:                 -10.360
REMARK INTRA:                  -1.234
REMARK UNBOUND:                -1.001
REMARK  Name = 
REMARK  9 active torsions:
REMARK  status: ('A' for Active; 'I' for Inactive)
REMARK    1  A    between atoms: C_1  and  C_2
REMARK    2  A    between atoms: C_2  and  N_3
REMARK    3  A    between atoms: C_2  and  C_21
REMARK    4  A    between atoms: N_3  and  C_4
REMARK    5  A    between atoms: C_4  and  C_5
REMARK    6  A    between atoms: C_8  and  C_9
REMARK    7  A    between atoms: C_9  and  N_10
REMARK    8  A    between atoms: N_10  and  C_11
REMARK    9  A    between atoms: C_11  and  C_12
REMARK                            x       y       z     vdW  Elec       q    Type
REMARK                         _______ _______ _______ _____ _____    ______ ____
ROOT
ATOM      1  C   UNL     1      47.714   8.020  13.174  0.00  0.00    +0.000 A 
ATOM      2  C   UNL     1      46.450   8.622  13.122  0.00  0.00    +0.000 A 
ATOM      3  C   UNL     1      45.377   7.964  12.518  0.00  0.00    +0.000 A 
ATOM      4  C   UNL     1      45.547   6.698  11.937  0.00  0.00    +0.000 A 
ATOM      5  C   UNL     1      46.803   6.088  12.007  0.00  0.00    +0.000 A 
ATOM      6  C   UNL     1      47.874   6.741  12.620  0.00  0.00    +0.000 A 
ENDROOT
BRANCH   1   7
ATOM      7  C   UNL     1      48.912   8.755  13.730  0.00  0.00    +0.000 C 
BRANCH   7   8
ATOM      8  N   UNL     1      49.619   7.989  14.755  0.00  0.00    +0.000 NA
ATOM      9  H   UNL     1      49.963   7.128  14.332  0.00  0.00    +0.000 HD
BRANCH   8  11
ATOM     10  C   UNL     1      48.472   8.799  16.825  0.00  0.00    +0.000 C 
ATOM     11  C   UNL     1      48.747   7.620  15.883  0.00  0.00    +0.000 C 
BRANCH  11  12
ATOM     12  C   UNL     1      49.418   6.497  16.653  0.00  0.00    +0.000 A 
ATOM     13  C   UNL     1      50.568   6.621  17.420  0.00  0.00    +0.000 A 
ATOM     14  S   UNL     1      51.018   5.173  18.206  0.00  0.00    +0.000 S 
ATOM     15  C   UNL     1      49.680   4.338  17.565  0.00  0.00    +0.000 A 
ATOM     16  N   UNL     1      49.446   3.033  17.872  0.00  0.00    +0.000 NA
ATOM     17  C   UNL     1      48.383   2.544  17.326  0.00  0.00    +0.000 A 
ATOM     18  N   UNL     1      47.533   3.231  16.495  0.00  0.00    +0.000 N 
ATOM     19  C   UNL     1      47.730   4.552  16.154  0.00  0.00    +0.000 A 
ATOM     20  O   UNL     1      46.951   5.146  15.417  0.00  0.00    +0.000 OA
ATOM     21  C   UNL     1      48.911   5.148  16.751  0.00  0.00    +0.000 A 
ATOM     22  H   UNL     1      46.720   2.787  16.102  0.00  0.00    +0.000 HD
ENDBRANCH  11  12
ENDBRANCH   8  11
ENDBRANCH   7   8
ENDBRANCH   1   7
BRANCH   4  23
ATOM     23  C   UNL     1      44.398   6.019  11.230  0.00  0.00    +0.000 C 
BRANCH  23  24
ATOM     24  N   UNL     1      44.742   4.635  10.917  0.00  0.00    +0.000 NA
ATOM     25  H   UNL     1      44.443   4.036  11.685  0.00  0.00    +0.000 HD
BRANCH  24  26
ATOM     26  C   UNL     1      44.108   4.186   9.684  0.00  0.00    +0.000 C 
BRANCH  26  27
ATOM     27  C   UNL     1      45.096   3.437   8.816  0.00  0.00    +0.000 A 
ATOM     28  C   UNL     1      45.921   4.120   7.909  0.00  0.00    +0.000 A 
ATOM     29  C   UNL     1      46.869   3.423   7.158  0.00  0.00    +0.000 A 
ATOM     30  C   UNL     1      46.989   2.046   7.306  0.00  0.00    +0.000 A 
ATOM     31  F   UNL     1      47.915   1.383   6.600  0.00  0.00    +0.000 F 
ATOM     32  C   UNL     1      46.165   1.347   8.179  0.00  0.00    +0.000 A 
ATOM     33  C   UNL     1      45.220   2.042   8.933  0.00  0.00    +0.000 A 
ENDBRANCH  26  27
ENDBRANCH  24  26
ENDBRANCH  23  24
ENDBRANCH   4  23
TORSDOF 8
ENDMDL
