MODEL 1
REMARK VINA RESULT:    -7.954      0.000      0.000
REMARK INTER + INTRA:         -12.316
REMARK INTER:                 -11.209
REMARK INTRA:                  -1.106
REMARK UNBOUND:                -1.106
REMARK  Name = 
REMARK  8 active torsions:
REMARK  status: ('A' for Active; 'I' for Inactive)
REMARK    1  A    between atoms: C_1  and  N_2
REMARK    2  A    between atoms: N_2  and  C_3
REMARK    3  A    between atoms: N_2  and  C_24
REMARK    4  A    between atoms: C_3  and  C_4
REMARK    5  A    between atoms: C_7  and  C_8
REMARK    6  A    between atoms: C_8  and  N_9
REMARK    7  A    between atoms: C_10  and  C_12
REMARK    8  A    between atoms: C_24  and  C_25
REMARK                            x       y       z     vdW  Elec       q    Type
REMARK                         _______ _______ _______ _____ _____    ______ ____
ROOT
ATOM      1  C   UNL     1      46.284   4.516  13.363  0.00  0.00    +0.000 A 
ATOM      2  C   UNL     1      46.857   5.671  12.833  0.00  0.00    +0.000 A 
ATOM      3  C   UNL     1      47.723   6.420  13.625  0.00  0.00    +0.000 A 
ATOM      4  C   UNL     1      47.990   6.008  14.932  0.00  0.00    +0.000 A 
ATOM      5  C   UNL     1      47.344   4.867  15.388  0.00  0.00    +0.000 A 
ATOM      6  N   UNL     1      46.517   4.109  14.637  0.00  0.00    +0.000 NA
ENDROOT
BRANCH   1   7
ATOM      7  C   UNL     1      45.381   3.648  12.503  0.00  0.00    +0.000 C 
BRANCH   7   9
ATOM      8  C   UNL     1      43.157   4.600  12.437  0.00  0.00    +0.000 C 
ATOM      9  N   UNL     1      44.396   4.379  11.674  0.00  0.00    +0.000 NA
BRANCH   9  10
ATOM     10  C   UNL     1      44.064   3.615  10.451  0.00  0.00    +0.000 C 
BRANCH  10  11
ATOM     11  C   UNL     1      45.262   3.299   9.527  0.00  0.00    +0.000 C 
ATOM     12  C   UNL     1      45.403   4.328   8.393  0.00  0.00    +0.000 C 
ATOM     13  C   UNL     1      46.576   3.986   7.477  0.00  0.00    +0.000 C 
ATOM     14  C   UNL     1      46.462   2.566   6.926  0.00  0.00    +0.000 C 
ATOM     15  C   UNL     1      46.316   1.541   8.046  0.00  0.00    +0.000 C 
ATOM     16  C   UNL     1      45.139   1.876   8.960  0.00  0.00    +0.000 C 
ENDBRANCH  10  11
ENDBRANCH   9  10
ENDBRANCH   7   9
ENDBRANCH   1   7
BRANCH   4  17
ATOM     17  C   UNL     1      48.904   6.779  15.839  0.00  0.00    +0.000 C 
BRANCH  17  18
ATOM     18  N   UNL     1      49.973   5.949  16.331  0.00  0.00    +0.000 N 
ATOM     19  C   UNL     1      50.143   5.730  17.672  0.00  0.00    +0.000 C 
ATOM     20  O   UNL     1      49.384   6.207  18.511  0.00  0.00    +0.000 OA
ATOM     21  H   UNL     1      50.738   5.744  15.692  0.00  0.00    +0.000 HD
BRANCH  19  22
ATOM     22  C   UNL     1      51.243   4.836  18.052  0.00  0.00    +0.000 A 
ATOM     23  C   UNL     1      52.354   5.349  18.712  0.00  0.00    +0.000 A 
ATOM     24  S   UNL     1      53.506   4.167  19.129  0.00  0.00    +0.000 S 
ATOM     25  C   UNL     1      52.592   2.936  18.394  0.00  0.00    +0.000 A 
ATOM     26  N   UNL     1      53.038   1.649  18.370  0.00  0.00    +0.000 NA
ATOM     27  C   UNL     1      52.259   0.825  17.744  0.00  0.00    +0.000 A 
ATOM     28  N   UNL     1      51.076   1.171  17.154  0.00  0.00    +0.000 N 
ATOM     29  C   UNL     1      50.565   2.445  17.184  0.00  0.00    +0.000 A 
ATOM     30  O   UNL     1      49.473   2.713  16.695  0.00  0.00    +0.000 OA
ATOM     31  C   UNL     1      51.412   3.416  17.857  0.00  0.00    +0.000 A 
ATOM     32  H   UNL     1      50.507   0.476  16.691  0.00  0.00    +0.000 HD
ENDBRANCH  19  22
ENDBRANCH  17  18
ENDBRANCH   4  17
TORSDOF 7
ENDMDL
MODEL 2
REMARK VINA RESULT:    -7.827      2.714      3.571
REMARK INTER + INTRA:         -12.137
REMARK INTER:                 -11.312
REMARK INTRA:                  -0.825
REMARK UNBOUND:                -1.106
REMARK  Name = 
REMARK  8 active torsions:
REMARK  status: ('A' for Active; 'I' for Inactive)
REMARK    1  A    between atoms: C_1  and  N_2
REMARK    2  A    between atoms: N_2  and  C_3
REMARK    3  A    between atoms: N_2  and  C_24
REMARK    4  A    between atoms: C_3  and  C_4
REMARK    5  A    between atoms: C_7  and  C_8
REMARK    6  A    between atoms: C_8  and  N_9
REMARK    7  A    between atoms: C_10  and  C_12
REMARK    8  A    between atoms: C_24  and  C_25
REMARK                            x       y       z     vdW  Elec       q    Type
REMARK                         _______ _______ _______ _____ _____    ______ ____
ROOT
ATOM      1  C   UNL     1      44.619   5.439  10.682  0.00  0.00    +0.000 A 
ATOM      2  C   UNL     1      44.029   5.932  11.844  0.00  0.00    +0.000 A 
ATOM      3  C   UNL     1      44.768   6.775  12.672  0.00  0.00    +0.000 A 
ATOM      4  C   UNL     1      46.082   7.096  12.328  0.00  0.00    +0.000 A 
ATOM      5  C   UNL     1      46.599   6.526  11.173  0.00  0.00    +0.000 A 
ATOM      6  N   UNL     1      45.902   5.725  10.340  0.00  0.00    +0.000 NA
ENDROOT
BRANCH   1   7
ATOM      7  C   UNL     1      43.819   4.565   9.730  0.00  0.00    +0.000 C 
BRANCH   7   9
ATOM      8  C   UNL     1      43.691   2.680  11.243  0.00  0.00    +0.000 C 
ATOM      9  N   UNL     1      44.030   3.107   9.875  0.00  0.00    +0.000 NA
BRANCH   9  10
ATOM     10  C   UNL     1      45.440   2.747   9.608  0.00  0.00    +0.000 C 
BRANCH  10  11
ATOM     11  C   UNL     1      45.764   2.409   8.135  0.00  0.00    +0.000 C 
ATOM     12  C   UNL     1      46.648   1.157   8.011  0.00  0.00    +0.000 C 
ATOM     13  C   UNL     1      46.978   0.854   6.551  0.00  0.00    +0.000 C 
ATOM     14  C   UNL     1      47.619   2.055   5.860  0.00  0.00    +0.000 C 
ATOM     15  C   UNL     1      46.751   3.302   5.985  0.00  0.00    +0.000 C 
ATOM     16  C   UNL     1      46.425   3.613   7.444  0.00  0.00    +0.000 C 
ENDBRANCH  10  11
ENDBRANCH   9  10
ENDBRANCH   7   9
ENDBRANCH   1   7
BRANCH   4  17
ATOM     17  C   UNL     1      46.933   7.987  13.185  0.00  0.00    +0.000 C 
BRANCH  17  18
ATOM     18  N   UNL     1      47.368   7.306  14.376  0.00  0.00    +0.000 N 
ATOM     19  C   UNL     1      48.640   6.810  14.488  0.00  0.00    +0.000 C 
ATOM     20  O   UNL     1      49.470   6.943  13.594  0.00  0.00    +0.000 OA
ATOM     21  H   UNL     1      46.649   6.981  15.018  0.00  0.00    +0.000 HD
BRANCH  19  22
ATOM     22  C   UNL     1      48.980   6.171  15.765  0.00  0.00    +0.000 A 
ATOM     23  C   UNL     1      50.043   6.656  16.518  0.00  0.00    +0.000 A 
ATOM     24  S   UNL     1      50.262   5.838  17.995  0.00  0.00    +0.000 S 
ATOM     25  C   UNL     1      48.983   4.769  17.657  0.00  0.00    +0.000 A 
ATOM     26  N   UNL     1      48.650   3.774  18.526  0.00  0.00    +0.000 NA
ATOM     27  C   UNL     1      47.683   3.014  18.123  0.00  0.00    +0.000 A 
ATOM     28  N   UNL     1      47.016   3.167  16.940  0.00  0.00    +0.000 N 
ATOM     29  C   UNL     1      47.287   4.176  16.050  0.00  0.00    +0.000 A 
ATOM     30  O   UNL     1      46.632   4.322  15.023  0.00  0.00    +0.000 OA
ATOM     31  C   UNL     1      48.381   5.048  16.444  0.00  0.00    +0.000 A 
ATOM     32  H   UNL     1      46.259   2.546  16.691  0.00  0.00    +0.000 HD
ENDBRANCH  19  22
ENDBRANCH  17  18
ENDBRANCH   4  17
TORSDOF 7
ENDMDL
MODEL 3
REMARK VINA RESULT:    -7.518      2.576      2.973
REMARK INTER + INTRA:         -11.701
REMARK INTER:                 -10.746
REMARK INTRA:                  -0.955
REMARK UNBOUND:                -1.106
REMARK  Name = 
REMARK  8 active torsions:
REMARK  status: ('A' for Active; 'I' for Inactive)
REMARK    1  A    between atoms: C_1  and  N_2
REMARK    2  A    between atoms: N_2  and  C_3
REMARK    3  A    between atoms: N_2  and  C_24
REMARK    4  A    between atoms: C_3  and  C_4
REMARK    5  A    between atoms: C_7  and  C_8
REMARK    6  A    between atoms: C_8  and  N_9
REMARK    7  A    between atoms: C_10  and  C_12
REMARK    8  A    between atoms: C_24  and  C_25
REMARK                            x       y       z     vdW  Elec       q    Type
REMARK                         _______ _______ _______ _____ _____    ______ ____
ROOT
ATOM      1  C   UNL     1      45.898   4.489  12.810  0.00  0.00    +0.000 A 
ATOM      2  C   UNL     1      46.243   5.623  12.076  0.00  0.00    +0.000 A 
ATOM      3  C   UNL     1      47.211   6.487  12.582  0.00  0.00    +0.000 A 
ATOM      4  C   UNL     1      47.804   6.208  13.814  0.00  0.00    +0.000 A 
ATOM      5  C   UNL     1      47.370   5.077  14.493  0.00  0.00    +0.000 A 
ATOM      6  N   UNL     1      46.451   4.210  14.018  0.00  0.00    +0.000 NA
ENDROOT
BRANCH   1   7
ATOM      7  C   UNL     1      44.888   3.499  12.256  0.00  0.00    +0.000 C 
BRANCH   7   9
ATOM      8  C   UNL     1      42.823   4.246  11.238  0.00  0.00    +0.000 C 
ATOM      9  N   UNL     1      44.232   3.898  10.990  0.00  0.00    +0.000 NA
BRANCH   9  10
ATOM     10  C   UNL     1      44.276   2.798  10.001  0.00  0.00    +0.000 C 
BRANCH  10  11
ATOM     11  C   UNL     1      45.524   2.783   9.090  0.00  0.00    +0.000 C 
ATOM     12  C   UNL     1      45.480   3.896   8.030  0.00  0.00    +0.000 C 
ATOM     13  C   UNL     1      46.709   3.849   7.125  0.00  0.00    +0.000 C 
ATOM     14  C   UNL     1      46.878   2.476   6.479  0.00  0.00    +0.000 C 
ATOM     15  C   UNL     1      46.916   1.366   7.525  0.00  0.00    +0.000 C 
ATOM     16  C   UNL     1      45.685   1.405   8.428  0.00  0.00    +0.000 C 
ENDBRANCH  10  11
ENDBRANCH   9  10
ENDBRANCH   7   9
ENDBRANCH   1   7
BRANCH   4  17
ATOM     17  C   UNL     1      48.843   7.106  14.418  0.00  0.00    +0.000 C 
BRANCH  17  18
ATOM     18  N   UNL     1      48.676   7.214  15.844  0.00  0.00    +0.000 N 
ATOM     19  C   UNL     1      49.601   6.693  16.710  0.00  0.00    +0.000 C 
ATOM     20  O   UNL     1      50.621   6.136  16.314  0.00  0.00    +0.000 OA
ATOM     21  H   UNL     1      47.750   7.452  16.190  0.00  0.00    +0.000 HD
BRANCH  19  22
ATOM     22  C   UNL     1      49.343   6.899  18.140  0.00  0.00    +0.000 A 
ATOM     23  C   UNL     1      49.390   8.183  18.672  0.00  0.00    +0.000 A 
ATOM     24  S   UNL     1      49.009   8.248  20.330  0.00  0.00    +0.000 S 
ATOM     25  C   UNL     1      48.824   6.559  20.411  0.00  0.00    +0.000 A 
ATOM     26  N   UNL     1      48.516   5.943  21.586  0.00  0.00    +0.000 NA
ATOM     27  C   UNL     1      48.443   4.652  21.509  0.00  0.00    +0.000 A 
ATOM     28  N   UNL     1      48.639   3.930  20.366  0.00  0.00    +0.000 N 
ATOM     29  C   UNL     1      48.912   4.507  19.150  0.00  0.00    +0.000 A 
ATOM     30  O   UNL     1      49.027   3.837  18.130  0.00  0.00    +0.000 OA
ATOM     31  C   UNL     1      49.026   5.956  19.185  0.00  0.00    +0.000 A 
ATOM     32  H   UNL     1      48.555   2.924  20.370  0.00  0.00    +0.000 HD
ENDBRANCH  19  22
ENDBRANCH  17  18
ENDBRANCH   4  17
TORSDOF 7
ENDMDL
MODEL 4
REMARK VINA RESULT:    -7.177      4.043      8.634
REMARK INTER + INTRA:         -11.220
REMARK INTER:                  -9.605
REMARK INTRA:                  -1.616
REMARK UNBOUND:                -1.106
REMARK  Name = 
REMARK  8 active torsions:
REMARK  status: ('A' for Active; 'I' for Inactive)
REMARK    1  A    between atoms: C_1  and  N_2
REMARK    2  A    between atoms: N_2  and  C_3
REMARK    3  A    between atoms: N_2  and  C_24
REMARK    4  A    between atoms: C_3  and  C_4
REMARK    5  A    between atoms: C_7  and  C_8
REMARK    6  A    between atoms: C_8  and  N_9
REMARK    7  A    between atoms: C_10  and  C_12
REMARK    8  A    between atoms: C_24  and  C_25
REMARK                            x       y       z     vdW  Elec       q    Type
REMARK                         _______ _______ _______ _____ _____    ______ ____
ROOT
ATOM      1  C   UNL     1      48.898   7.820  16.218  0.00  0.00    +0.000 A 
ATOM      2  C   UNL     1      48.896   6.661  15.445  0.00  0.00    +0.000 A 
ATOM      3  C   UNL     1      48.660   6.762  14.076  0.00  0.00    +0.000 A 
ATOM      4  C   UNL     1      48.418   8.016  13.511  0.00  0.00    +0.000 A 
ATOM      5  C   UNL     1      48.401   9.110  14.365  0.00  0.00    +0.000 A 
ATOM      6  N   UNL     1      48.648   9.046  15.691  0.00  0.00    +0.000 NA
ENDROOT
BRANCH   1   7
ATOM      7  C   UNL     1      49.210   7.747  17.703  0.00  0.00    +0.000 C 
BRANCH   7   9
ATOM      8  C   UNL     1      47.541   8.079  19.424  0.00  0.00    +0.000 C 
ATOM      9  N   UNL     1      48.179   7.090  18.539  0.00  0.00    +0.000 NA
BRANCH   9  10
ATOM     10  C   UNL     1      48.776   6.027  19.378  0.00  0.00    +0.000 C 
BRANCH  10  11
ATOM     11  C   UNL     1      48.653   4.595  18.811  0.00  0.00    +0.000 C 
ATOM     12  C   UNL     1      49.888   4.191  17.988  0.00  0.00    +0.000 C 
ATOM     13  C   UNL     1      49.737   2.783  17.416  0.00  0.00    +0.000 C 
ATOM     14  C   UNL     1      48.456   2.645  16.596  0.00  0.00    +0.000 C 
ATOM     15  C   UNL     1      47.228   3.051  17.403  0.00  0.00    +0.000 C 
ATOM     16  C   UNL     1      47.372   4.461  17.972  0.00  0.00    +0.000 C 
ENDBRANCH  10  11
ENDBRANCH   9  10
ENDBRANCH   7   9
ENDBRANCH   1   7
BRANCH   4  17
ATOM     17  C   UNL     1      48.145   8.189  12.046  0.00  0.00    +0.000 C 
BRANCH  17  18
ATOM     18  N   UNL     1      47.487   7.032  11.497  0.00  0.00    +0.000 N 
ATOM     19  C   UNL     1      46.122   6.971  11.396  0.00  0.00    +0.000 C 
ATOM     20  O   UNL     1      45.402   7.903  11.743  0.00  0.00    +0.000 OA
ATOM     21  H   UNL     1      48.029   6.175  11.426  0.00  0.00    +0.000 HD
BRANCH  19  22
ATOM     22  C   UNL     1      45.567   5.758  10.784  0.00  0.00    +0.000 A 
ATOM     23  C   UNL     1      45.761   5.518   9.429  0.00  0.00    +0.000 A 
ATOM     24  S   UNL     1      45.103   4.040   8.897  0.00  0.00    +0.000 S 
ATOM     25  C   UNL     1      44.486   3.694  10.444  0.00  0.00    +0.000 A 
ATOM     26  N   UNL     1      43.772   2.558  10.676  0.00  0.00    +0.000 NA
ATOM     27  C   UNL     1      43.331   2.442  11.889  0.00  0.00    +0.000 A 
ATOM     28  N   UNL     1      43.551   3.352  12.884  0.00  0.00    +0.000 N 
ATOM     29  C   UNL     1      44.296   4.492  12.711  0.00  0.00    +0.000 A 
ATOM     30  O   UNL     1      44.524   5.260  13.638  0.00  0.00    +0.000 OA
ATOM     31  C   UNL     1      44.798   4.681  11.360  0.00  0.00    +0.000 A 
ATOM     32  H   UNL     1      43.190   3.196  13.815  0.00  0.00    +0.000 HD
ENDBRANCH  19  22
ENDBRANCH  17  18
ENDBRANCH   4  17
TORSDOF 7
ENDMDL
MODEL 5
REMARK VINA RESULT:    -7.021      3.878      8.878
REMARK INTER + INTRA:         -11.000
REMARK INTER:                  -9.690
REMARK INTRA:                  -1.309
REMARK UNBOUND:                -1.106
REMARK  Name = 
REMARK  8 active torsions:
REMARK  status: ('A' for Active; 'I' for Inactive)
REMARK    1  A    between atoms: C_1  and  N_2
REMARK    2  A    between atoms: N_2  and  C_3
REMARK    3  A    between atoms: N_2  and  C_24
REMARK    4  A    between atoms: C_3  and  C_4
REMARK    5  A    between atoms: C_7  and  C_8
REMARK    6  A    between atoms: C_8  and  N_9
REMARK    7  A    between atoms: C_10  and  C_12
REMARK    8  A    between atoms: C_24  and  C_25
REMARK                            x       y       z     vdW  Elec       q    Type
REMARK                         _______ _______ _______ _____ _____    ______ ____
ROOT
ATOM      1  C   UNL     1      49.320   7.797  15.989  0.00  0.00    +0.000 A 
ATOM      2  C   UNL     1      49.042   9.027  15.396  0.00  0.00    +0.000 A 
ATOM      3  C   UNL     1      48.457   9.052  14.133  0.00  0.00    +0.000 A 
ATOM      4  C   UNL     1      48.173   7.849  13.483  0.00  0.00    +0.000 A 
ATOM      5  C   UNL     1      48.520   6.673  14.133  0.00  0.00    +0.000 A 
ATOM      6  N   UNL     1      49.068   6.617  15.365  0.00  0.00    +0.000 NA
ENDROOT
BRANCH   1   7
ATOM      7  C   UNL     1      49.905   7.738  17.389  0.00  0.00    +0.000 C 
BRANCH   7   9
ATOM      8  C   UNL     1      48.681   7.819  19.475  0.00  0.00    +0.000 C 
ATOM      9  N   UNL     1      49.126   6.951  18.373  0.00  0.00    +0.000 NA
BRANCH   9  10
ATOM     10  C   UNL     1      49.943   5.855  18.939  0.00  0.00    +0.000 C 
BRANCH  10  11
ATOM     11  C   UNL     1      49.492   4.430  18.548  0.00  0.00    +0.000 C 
ATOM     12  C   UNL     1      50.474   3.761  17.570  0.00  0.00    +0.000 C 
ATOM     13  C   UNL     1      49.998   2.364  17.177  0.00  0.00    +0.000 C 
ATOM     14  C   UNL     1      48.582   2.393  16.608  0.00  0.00    +0.000 C 
ATOM     15  C   UNL     1      47.605   3.060  17.569  0.00  0.00    +0.000 C 
ATOM     16  C   UNL     1      48.073   4.461  17.960  0.00  0.00    +0.000 C 
ENDBRANCH  10  11
ENDBRANCH   9  10
ENDBRANCH   7   9
ENDBRANCH   1   7
BRANCH   4  17
ATOM     17  C   UNL     1      47.554   7.811  12.117  0.00  0.00    +0.000 C 
BRANCH  17  18
ATOM     18  N   UNL     1      46.868   6.566  11.889  0.00  0.00    +0.000 N 
ATOM     19  C   UNL     1      45.500   6.504  11.846  0.00  0.00    +0.000 C 
ATOM     20  O   UNL     1      44.800   7.505  11.974  0.00  0.00    +0.000 OA
ATOM     21  H   UNL     1      47.400   5.708  12.015  0.00  0.00    +0.000 HD
BRANCH  19  22
ATOM     22  C   UNL     1      44.915   5.187  11.567  0.00  0.00    +0.000 A 
ATOM     23  C   UNL     1      44.206   4.523  12.561  0.00  0.00    +0.000 A 
ATOM     24  S   UNL     1      43.547   3.038  12.052  0.00  0.00    +0.000 S 
ATOM     25  C   UNL     1      44.232   3.200  10.505  0.00  0.00    +0.000 A 
ATOM     26  N   UNL     1      44.070   2.232   9.560  0.00  0.00    +0.000 NA
ATOM     27  C   UNL     1      44.678   2.470   8.441  0.00  0.00    +0.000 A 
ATOM     28  N   UNL     1      45.420   3.588   8.183  0.00  0.00    +0.000 N 
ATOM     29  C   UNL     1      45.581   4.609   9.087  0.00  0.00    +0.000 A 
ATOM     30  O   UNL     1      46.205   5.626   8.806  0.00  0.00    +0.000 OA
ATOM     31  C   UNL     1      44.935   4.383  10.370  0.00  0.00    +0.000 A 
ATOM     32  H   UNL     1      45.858   3.720   7.283  0.00  0.00    +0.000 HD
ENDBRANCH  19  22
ENDBRANCH  17  18
ENDBRANCH   4  17
TORSDOF 7
ENDMDL
MODEL 6
REMARK VINA RESULT:    -7.013      1.924      2.474
REMARK INTER + INTRA:         -10.989
REMARK INTER:                  -9.827
REMARK INTRA:                  -1.162
REMARK UNBOUND:                -1.106
REMARK  Name = 
REMARK  8 active torsions:
REMARK  status: ('A' for Active; 'I' for Inactive)
REMARK    1  A    between atoms: C_1  and  N_2
REMARK    2  A    between atoms: N_2  and  C_3
REMARK    3  A    between atoms: N_2  and  C_24
REMARK    4  A    between atoms: C_3  and  C_4
REMARK    5  A    between atoms: C_7  and  C_8
REMARK    6  A    between atoms: C_8  and  N_9
REMARK    7  A    between atoms: C_10  and  C_12
REMARK    8  A    between atoms: C_24  and  C_25
REMARK                            x       y       z     vdW  Elec       q    Type
REMARK                         _______ _______ _______ _____ _____    ______ ____
ROOT
ATOM      1  C   UNL     1      45.896   5.549  12.613  0.00  0.00    +0.000 A 
ATOM      2  C   UNL     1      46.065   6.578  11.689  0.00  0.00    +0.000 A 
ATOM      3  C   UNL     1      47.212   7.365  11.757  0.00  0.00    +0.000 A 
ATOM      4  C   UNL     1      48.158   7.117  12.753  0.00  0.00    +0.000 A 
ATOM      5  C   UNL     1      47.886   6.097  13.654  0.00  0.00    +0.000 A 
ATOM      6  N   UNL     1      46.796   5.303  13.600  0.00  0.00    +0.000 NA
ENDROOT
BRANCH   1   7
ATOM      7  C   UNL     1      44.684   4.637  12.528  0.00  0.00    +0.000 C 
BRANCH   7   9
ATOM      8  C   UNL     1      42.497   5.090  11.594  0.00  0.00    +0.000 C 
ATOM      9  N   UNL     1      43.893   4.744  11.280  0.00  0.00    +0.000 NA
BRANCH   9  10
ATOM     10  C   UNL     1      43.903   3.464  10.537  0.00  0.00    +0.000 C 
BRANCH  10  11
ATOM     11  C   UNL     1      45.130   3.244   9.623  0.00  0.00    +0.000 C 
ATOM     12  C   UNL     1      45.265   4.348   8.561  0.00  0.00    +0.000 C 
ATOM     13  C   UNL     1      46.468   4.099   7.653  0.00  0.00    +0.000 C 
ATOM     14  C   UNL     1      46.410   2.716   7.011  0.00  0.00    +0.000 C 
ATOM     15  C   UNL     1      46.270   1.617   8.059  0.00  0.00    +0.000 C 
ATOM     16  C   UNL     1      45.064   1.858   8.964  0.00  0.00    +0.000 C 
ENDBRANCH  10  11
ENDBRANCH   9  10
ENDBRANCH   7   9
ENDBRANCH   1   7
BRANCH   4  17
ATOM     17  C   UNL     1      49.407   7.938  12.886  0.00  0.00    +0.000 C 
BRANCH  17  18
ATOM     18  N   UNL     1      50.351   7.314  13.776  0.00  0.00    +0.000 N 
ATOM     19  C   UNL     1      50.728   7.914  14.948  0.00  0.00    +0.000 C 
ATOM     20  O   UNL     1      50.264   8.993  15.305  0.00  0.00    +0.000 OA
ATOM     21  H   UNL     1      50.916   6.556  13.401  0.00  0.00    +0.000 HD
BRANCH  19  22
ATOM     22  C   UNL     1      51.666   7.164  15.792  0.00  0.00    +0.000 A 
ATOM     23  C   UNL     1      53.031   7.409  15.693  0.00  0.00    +0.000 A 
ATOM     24  S   UNL     1      53.968   6.496  16.783  0.00  0.00    +0.000 S 
ATOM     25  C   UNL     1      52.592   5.699  17.385  0.00  0.00    +0.000 A 
ATOM     26  N   UNL     1      52.701   4.742  18.349  0.00  0.00    +0.000 NA
ATOM     27  C   UNL     1      51.578   4.192  18.686  0.00  0.00    +0.000 A 
ATOM     28  N   UNL     1      50.363   4.520  18.154  0.00  0.00    +0.000 N 
ATOM     29  C   UNL     1      50.196   5.503  17.210  0.00  0.00    +0.000 A 
ATOM     30  O   UNL     1      49.086   5.815  16.793  0.00  0.00    +0.000 OA
ATOM     31  C   UNL     1      51.430   6.139  16.780  0.00  0.00    +0.000 A 
ATOM     32  H   UNL     1      49.520   4.062  18.470  0.00  0.00    +0.000 HD
ENDBRANCH  19  22
ENDBRANCH  17  18
ENDBRANCH   4  17
TORSDOF 7
ENDMDL
MODEL 7
REMARK VINA RESULT:    -6.628      2.076      2.811
REMARK INTER + INTRA:         -10.446
REMARK INTER:                  -9.470
REMARK INTRA:                  -0.977
REMARK UNBOUND:                -1.106
REMARK  Name = 
REMARK  8 active torsions:
REMARK  status: ('A' for Active; 'I' for Inactive)
REMARK    1  A    between atoms: C_1  and  N_2
REMARK    2  A    between atoms: N_2  and  C_3
REMARK    3  A    between atoms: N_2  and  C_24
REMARK    4  A    between atoms: C_3  and  C_4
REMARK    5  A    between atoms: C_7  and  C_8
REMARK    6  A    between atoms: C_8  and  N_9
REMARK    7  A    between atoms: C_10  and  C_12
REMARK    8  A    between atoms: C_24  and  C_25
REMARK                            x       y       z     vdW  Elec       q    Type
REMARK                         _______ _______ _______ _____ _____    ______ ____
ROOT
ATOM      1  C   UNL     1      45.933   4.706  12.460  0.00  0.00    +0.000 A 
ATOM      2  C   UNL     1      46.249   5.875  11.771  0.00  0.00    +0.000 A 
ATOM      3  C   UNL     1      47.102   6.801  12.366  0.00  0.00    +0.000 A 
ATOM      4  C   UNL     1      47.611   6.546  13.641  0.00  0.00    +0.000 A 
ATOM      5  C   UNL     1      47.211   5.374  14.267  0.00  0.00    +0.000 A 
ATOM      6  N   UNL     1      46.404   4.448  13.708  0.00  0.00    +0.000 NA
ENDROOT
BRANCH   1   7
ATOM      7  C   UNL     1      45.052   3.651  11.812  0.00  0.00    +0.000 C 
BRANCH   7   9
ATOM      8  C   UNL     1      43.221   4.743  10.666  0.00  0.00    +0.000 C 
ATOM      9  N   UNL     1      44.489   4.016  10.492  0.00  0.00    +0.000 NA
BRANCH   9  10
ATOM     10  C   UNL     1      44.229   2.808   9.677  0.00  0.00    +0.000 C 
BRANCH  10  11
ATOM     11  C   UNL     1      45.083   2.683   8.395  0.00  0.00    +0.000 C 
ATOM     12  C   UNL     1      46.031   1.473   8.448  0.00  0.00    +0.000 C 
ATOM     13  C   UNL     1      46.883   1.382   7.184  0.00  0.00    +0.000 C 
ATOM     14  C   UNL     1      47.651   2.676   6.930  0.00  0.00    +0.000 C 
ATOM     15  C   UNL     1      46.718   3.881   6.883  0.00  0.00    +0.000 C 
ATOM     16  C   UNL     1      45.868   3.981   8.148  0.00  0.00    +0.000 C 
ENDBRANCH  10  11
ENDBRANCH   9  10
ENDBRANCH   7   9
ENDBRANCH   1   7
BRANCH   4  17
ATOM     17  C   UNL     1      48.525   7.510  14.340  0.00  0.00    +0.000 C 
BRANCH  17  18
ATOM     18  N   UNL     1      49.581   6.820  15.033  0.00  0.00    +0.000 N 
ATOM     19  C   UNL     1      49.677   6.857  16.399  0.00  0.00    +0.000 C 
ATOM     20  O   UNL     1      48.860   7.456  17.093  0.00  0.00    +0.000 OA
ATOM     21  H   UNL     1      50.385   6.525  14.486  0.00  0.00    +0.000 HD
BRANCH  19  22
ATOM     22  C   UNL     1      50.772   6.084  16.996  0.00  0.00    +0.000 A 
ATOM     23  C   UNL     1      50.499   5.160  17.998  0.00  0.00    +0.000 A 
ATOM     24  S   UNL     1      51.872   4.310  18.536  0.00  0.00    +0.000 S 
ATOM     25  C   UNL     1      52.891   5.185  17.493  0.00  0.00    +0.000 A 
ATOM     26  N   UNL     1      54.235   4.962  17.474  0.00  0.00    +0.000 NA
ATOM     27  C   UNL     1      54.892   5.725  16.660  0.00  0.00    +0.000 A 
ATOM     28  N   UNL     1      54.326   6.678  15.861  0.00  0.00    +0.000 N 
ATOM     29  C   UNL     1      52.974   6.914  15.815  0.00  0.00    +0.000 A 
ATOM     30  O   UNL     1      52.489   7.736  15.046  0.00  0.00    +0.000 OA
ATOM     31  C   UNL     1      52.190   6.097  16.727  0.00  0.00    +0.000 A 
ATOM     32  H   UNL     1      54.894   7.233  15.237  0.00  0.00    +0.000 HD
ENDBRANCH  19  22
ENDBRANCH  17  18
ENDBRANCH   4  17
TORSDOF 7
ENDMDL
MODEL 8
REMARK VINA RESULT:    -6.621      3.805      5.070
REMARK INTER + INTRA:         -10.436
REMARK INTER:                  -9.392
REMARK INTRA:                  -1.044
REMARK UNBOUND:                -1.106
REMARK  Name = 
REMARK  8 active torsions:
REMARK  status: ('A' for Active; 'I' for Inactive)
REMARK    1  A    between atoms: C_1  and  N_2
REMARK    2  A    between atoms: N_2  and  C_3
REMARK    3  A    between atoms: N_2  and  C_24
REMARK    4  A    between atoms: C_3  and  C_4
REMARK    5  A    between atoms: C_7  and  C_8
REMARK    6  A    between atoms: C_8  and  N_9
REMARK    7  A    between atoms: C_10  and  C_12
REMARK    8  A    between atoms: C_24  and  C_25
REMARK                            x       y       z     vdW  Elec       q    Type
REMARK                         _______ _______ _______ _____ _____    ______ ____
ROOT
ATOM      1  C   UNL     1      46.019   4.493  12.992  0.00  0.00    +0.000 A 
ATOM      2  C   UNL     1      46.427   5.657  12.343  0.00  0.00    +0.000 A 
ATOM      3  C   UNL     1      47.329   6.506  12.980  0.00  0.00    +0.000 A 
ATOM      4  C   UNL     1      47.796   6.180  14.255  0.00  0.00    +0.000 A 
ATOM      5  C   UNL     1      47.306   5.021  14.839  0.00  0.00    +0.000 A 
ATOM      6  N   UNL     1      46.448   4.169  14.239  0.00  0.00    +0.000 NA
ENDROOT
BRANCH   1   7
ATOM      7  C   UNL     1      45.081   3.520  12.298  0.00  0.00    +0.000 C 
BRANCH   7   9
ATOM      8  C   UNL     1      43.207   4.504  11.124  0.00  0.00    +0.000 C 
ATOM      9  N   UNL     1      44.567   3.960  10.981  0.00  0.00    +0.000 NA
BRANCH   9  10
ATOM     10  C   UNL     1      44.523   2.830  10.026  0.00  0.00    +0.000 C 
BRANCH  10  11
ATOM     11  C   UNL     1      45.699   2.767   9.027  0.00  0.00    +0.000 C 
ATOM     12  C   UNL     1      45.595   3.852   7.942  0.00  0.00    +0.000 C 
ATOM     13  C   UNL     1      46.753   3.757   6.950  0.00  0.00    +0.000 C 
ATOM     14  C   UNL     1      46.850   2.365   6.333  0.00  0.00    +0.000 C 
ATOM     15  C   UNL     1      46.947   1.283   7.403  0.00  0.00    +0.000 C 
ATOM     16  C   UNL     1      45.787   1.369   8.393  0.00  0.00    +0.000 C 
ENDBRANCH  10  11
ENDBRANCH   9  10
ENDBRANCH   7   9
ENDBRANCH   1   7
BRANCH   4  17
ATOM     17  C   UNL     1      48.759   7.059  14.997  0.00  0.00    +0.000 C 
BRANCH  17  18
ATOM     18  N   UNL     1      49.978   7.243  14.254  0.00  0.00    +0.000 N 
ATOM     19  C   UNL     1      50.908   8.176  14.631  0.00  0.00    +0.000 C 
ATOM     20  O   UNL     1      50.758   8.876  15.628  0.00  0.00    +0.000 OA
ATOM     21  H   UNL     1      50.017   6.854  13.315  0.00  0.00    +0.000 HD
BRANCH  19  22
ATOM     22  C   UNL     1      52.129   8.244  13.820  0.00  0.00    +0.000 A 
ATOM     23  C   UNL     1      53.369   8.066  14.422  0.00  0.00    +0.000 A 
ATOM     24  S   UNL     1      54.672   8.118  13.327  0.00  0.00    +0.000 S 
ATOM     25  C   UNL     1      53.634   8.439  12.019  0.00  0.00    +0.000 A 
ATOM     26  N   UNL     1      54.125   8.626  10.763  0.00  0.00    +0.000 NA
ATOM     27  C   UNL     1      53.225   8.899   9.872  0.00  0.00    +0.000 A 
ATOM     28  N   UNL     1      51.886   8.991  10.125  0.00  0.00    +0.000 N 
ATOM     29  C   UNL     1      51.338   8.772  11.365  0.00  0.00    +0.000 A 
ATOM     30  O   UNL     1      50.126   8.805  11.549  0.00  0.00    +0.000 OA
ATOM     31  C   UNL     1      52.308   8.482  12.407  0.00  0.00    +0.000 A 
ATOM     32  H   UNL     1      51.233   9.195   9.382  0.00  0.00    +0.000 HD
ENDBRANCH  19  22
ENDBRANCH  17  18
ENDBRANCH   4  17
TORSDOF 7
ENDMDL
MODEL 9
REMARK VINA RESULT:    -6.412      3.697      8.337
REMARK INTER + INTRA:         -10.143
REMARK INTER:                  -8.272
REMARK INTRA:                  -1.871
REMARK UNBOUND:                -1.106
REMARK  Name = 
REMARK  8 active torsions:
REMARK  status: ('A' for Active; 'I' for Inactive)
REMARK    1  A    between atoms: C_1  and  N_2
REMARK    2  A    between atoms: N_2  and  C_3
REMARK    3  A    between atoms: N_2  and  C_24
REMARK    4  A    between atoms: C_3  and  C_4
REMARK    5  A    between atoms: C_7  and  C_8
REMARK    6  A    between atoms: C_8  and  N_9
REMARK    7  A    between atoms: C_10  and  C_12
REMARK    8  A    between atoms: C_24  and  C_25
REMARK                            x       y       z     vdW  Elec       q    Type
REMARK                         _______ _______ _______ _____ _____    ______ ____
ROOT
ATOM      1  C   UNL     1      51.263   7.236  17.166  0.00  0.00    +0.000 A 
ATOM      2  C   UNL     1      50.316   7.989  17.858  0.00  0.00    +0.000 A 
ATOM      3  C   UNL     1      49.324   8.652  17.139  0.00  0.00    +0.000 A 
ATOM      4  C   UNL     1      49.305   8.558  15.746  0.00  0.00    +0.000 A 
ATOM      5  C   UNL     1      50.311   7.817  15.141  0.00  0.00    +0.000 A 
ATOM      6  N   UNL     1      51.272   7.147  15.811  0.00  0.00    +0.000 NA
ENDROOT
BRANCH   1   7
ATOM      7  C   UNL     1      52.322   6.456  17.926  0.00  0.00    +0.000 C 
BRANCH   7   9
ATOM      8  C   UNL     1      52.789   5.186  19.933  0.00  0.00    +0.000 C 
ATOM      9  N   UNL     1      51.808   5.431  18.864  0.00  0.00    +0.000 NA
BRANCH   9  10
ATOM     10  C   UNL     1      51.551   4.154  18.162  0.00  0.00    +0.000 C 
BRANCH  10  11
ATOM     11  C   UNL     1      50.147   4.023  17.529  0.00  0.00    +0.000 C 
ATOM     12  C   UNL     1      49.050   4.612  18.431  0.00  0.00    +0.000 C 
ATOM     13  C   UNL     1      47.668   4.451  17.800  0.00  0.00    +0.000 C 
ATOM     14  C   UNL     1      47.376   2.993  17.454  0.00  0.00    +0.000 C 
ATOM     15  C   UNL     1      48.464   2.399  16.565  0.00  0.00    +0.000 C 
ATOM     16  C   UNL     1      49.847   2.553  17.196  0.00  0.00    +0.000 C 
ENDBRANCH  10  11
ENDBRANCH   9  10
ENDBRANCH   7   9
ENDBRANCH   1   7
BRANCH   4  17
ATOM     17  C   UNL     1      48.270   9.259  14.916  0.00  0.00    +0.000 C 
BRANCH  17  18
ATOM     18  N   UNL     1      47.325   8.325  14.362  0.00  0.00    +0.000 N 
ATOM     19  C   UNL     1      47.102   8.253  13.013  0.00  0.00    +0.000 C 
ATOM     20  O   UNL     1      47.712   8.960  12.215  0.00  0.00    +0.000 OA
ATOM     21  H   UNL     1      46.651   7.907  15.000  0.00  0.00    +0.000 HD
BRANCH  19  22
ATOM     22  C   UNL     1      46.145   7.236  12.563  0.00  0.00    +0.000 A 
ATOM     23  C   UNL     1      45.044   7.612  11.803  0.00  0.00    +0.000 A 
ATOM     24  S   UNL     1      44.071   6.302  11.317  0.00  0.00    +0.000 S 
ATOM     25  C   UNL     1      45.052   5.192  12.151  0.00  0.00    +0.000 A 
ATOM     26  N   UNL     1      44.752   3.863  12.165  0.00  0.00    +0.000 NA
ATOM     27  C   UNL     1      45.563   3.139  12.870  0.00  0.00    +0.000 A 
ATOM     28  N   UNL     1      46.645   3.624  13.549  0.00  0.00    +0.000 N 
ATOM     29  C   UNL     1      47.011   4.947  13.533  0.00  0.00    +0.000 A 
ATOM     30  O   UNL     1      48.021   5.343  14.105  0.00  0.00    +0.000 OA
ATOM     31  C   UNL     1      46.121   5.808  12.772  0.00  0.00    +0.000 A 
ATOM     32  H   UNL     1      47.247   3.003  14.071  0.00  0.00    +0.000 HD
ENDBRANCH  19  22
ENDBRANCH  17  18
ENDBRANCH   4  17
TORSDOF 7
ENDMDL
