MODEL 1
REMARK VINA RESULT:    -7.392      0.000      0.000
REMARK INTER + INTRA:         -10.307
REMARK INTER:                  -9.120
REMARK INTRA:                  -1.187
REMARK UNBOUND:                -1.187
REMARK  Name = 
REMARK  6 active torsions:
REMARK  status: ('A' for Active; 'I' for Inactive)
REMARK    1  A    between atoms: C_1  and  C_2
REMARK    2  A    between atoms: C_5  and  N_6
REMARK    3  A    between atoms: N_6  and  C_7
REMARK    4  A    between atoms: C_7  and  C_8
REMARK    5  A    between atoms: C_12  and  C_13
REMARK    6  A    between atoms: C_23  and  C_24
REMARK                            x       y       z     vdW  Elec       q    Type
REMARK                         _______ _______ _______ _____ _____    ______ ____
ROOT
ATOM      1  C   UNL     1      46.419   7.388  12.378  0.00  0.00    +0.000 C 
ATOM      2  C   UNL     1      46.441   8.833  11.877  0.00  0.00    +0.000 C 
ATOM      3  C   UNL     1      45.880   8.529  13.225  0.00  0.00    +0.000 C 
ENDROOT
BRANCH   1   4
ATOM      4  C   UNL     1      45.429   6.454  11.685  0.00  0.00    +0.000 A 
ATOM      5  C   UNL     1      44.044   6.583  11.854  0.00  0.00    +0.000 A 
ATOM      6  C   UNL     1      43.151   5.777  11.151  0.00  0.00    +0.000 A 
ATOM      7  C   UNL     1      43.630   4.839  10.236  0.00  0.00    +0.000 A 
ATOM      8  C   UNL     1      45.007   4.674  10.016  0.00  0.00    +0.000 A 
ATOM      9  C   UNL     1      45.877   5.459  10.793  0.00  0.00    +0.000 A 
BRANCH   8  10
ATOM     10  C   UNL     1      45.527   3.800   8.940  0.00  0.00    +0.000 A 
ATOM     11  C   UNL     1      46.275   4.349   7.879  0.00  0.00    +0.000 A 
ATOM     12  C   UNL     1      46.848   3.544   6.889  0.00  0.00    +0.000 A 
ATOM     13  C   UNL     1      46.696   2.161   6.939  0.00  0.00    +0.000 A 
ATOM     14  C   UNL     1      45.963   1.589   7.976  0.00  0.00    +0.000 A 
ATOM     15  C   UNL     1      45.384   2.402   8.953  0.00  0.00    +0.000 A 
ATOM     16  F   UNL     1      44.687   1.795   9.926  0.00  0.00    +0.000 F 
ENDBRANCH   8  10
ENDBRANCH   1   4
BRANCH   1  17
ATOM     17  N   UNL     1      47.723   6.764  12.727  0.00  0.00    +0.000 N 
ATOM     18  H   UNL     1      48.090   6.179  11.984  0.00  0.00    +0.000 HD
BRANCH  17  23
ATOM     19  C   UNL     1      47.877   4.134  17.769  0.00  0.00    +0.000 C 
ATOM     20  C   UNL     1      47.932   4.807  16.436  0.00  0.00    +0.000 A 
ATOM     21  C   UNL     1      47.295   4.278  15.331  0.00  0.00    +0.000 A 
ATOM     22  N   UNL     1      47.241   4.890  14.128  0.00  0.00    +0.000 NA
ATOM     23  C   UNL     1      47.861   6.080  13.964  0.00  0.00    +0.000 A 
ATOM     24  C   UNL     1      48.575   6.673  15.019  0.00  0.00    +0.000 A 
ATOM     25  C   UNL     1      49.275   7.999  14.917  0.00  0.00    +0.000 C 
ATOM     26  C   UNL     1      48.584   6.024  16.263  0.00  0.00    +0.000 A 
ENDBRANCH  17  23
ENDBRANCH   1  17
TORSDOF 4
ENDMDL
MODEL 2
REMARK VINA RESULT:    -7.089      2.298      4.884
REMARK INTER + INTRA:          -9.933
REMARK INTER:                  -9.011
REMARK INTRA:                  -0.922
REMARK UNBOUND:                -1.187
REMARK  Name = 
REMARK  6 active torsions:
REMARK  status: ('A' for Active; 'I' for Inactive)
REMARK    1  A    between atoms: C_1  and  C_2
REMARK    2  A    between atoms: C_5  and  N_6
REMARK    3  A    between atoms: N_6  and  C_7
REMARK    4  A    between atoms: C_7  and  C_8
REMARK    5  A    between atoms: C_12  and  C_13
REMARK    6  A    between atoms: C_23  and  C_24
REMARK                            x       y       z     vdW  Elec       q    Type
REMARK                         _______ _______ _______ _____ _____    ______ ____
ROOT
ATOM      1  C   UNL     1      45.854   7.574  12.298  0.00  0.00    +0.000 C 
ATOM      2  C   UNL     1      46.966   7.167  13.267  0.00  0.00    +0.000 C 
ATOM      3  C   UNL     1      47.320   7.692  11.916  0.00  0.00    +0.000 C 
ENDROOT
BRANCH   1   4
ATOM      4  C   UNL     1      45.029   6.431  11.708  0.00  0.00    +0.000 A 
ATOM      5  C   UNL     1      43.672   6.260  12.016  0.00  0.00    +0.000 A 
ATOM      6  C   UNL     1      42.913   5.264  11.407  0.00  0.00    +0.000 A 
ATOM      7  C   UNL     1      43.493   4.433  10.447  0.00  0.00    +0.000 A 
ATOM      8  C   UNL     1      44.844   4.566  10.090  0.00  0.00    +0.000 A 
ATOM      9  C   UNL     1      45.594   5.538  10.776  0.00  0.00    +0.000 A 
BRANCH   8  10
ATOM     10  C   UNL     1      45.435   3.802   8.967  0.00  0.00    +0.000 A 
ATOM     11  C   UNL     1      46.185   4.466   7.975  0.00  0.00    +0.000 A 
ATOM     12  C   UNL     1      46.821   3.766   6.945  0.00  0.00    +0.000 A 
ATOM     13  C   UNL     1      46.734   2.378   6.885  0.00  0.00    +0.000 A 
ATOM     14  C   UNL     1      46.000   1.695   7.851  0.00  0.00    +0.000 A 
ATOM     15  C   UNL     1      45.357   2.403   8.870  0.00  0.00    +0.000 A 
ATOM     16  F   UNL     1      44.663   1.691   9.771  0.00  0.00    +0.000 F 
ENDBRANCH   8  10
ENDBRANCH   1   4
BRANCH   1  17
ATOM     17  N   UNL     1      45.077   8.799  12.624  0.00  0.00    +0.000 N 
ATOM     18  H   UNL     1      44.230   8.600  13.146  0.00  0.00    +0.000 HD
BRANCH  17  23
ATOM     19  C   UNL     1      44.005  12.236   8.220  0.00  0.00    +0.000 C 
ATOM     20  C   UNL     1      44.266  11.408   9.436  0.00  0.00    +0.000 A 
ATOM     21  C   UNL     1      43.448  10.349   9.780  0.00  0.00    +0.000 A 
ATOM     22  N   UNL     1      43.689   9.518  10.816  0.00  0.00    +0.000 NA
ATOM     23  C   UNL     1      44.776   9.730  11.594  0.00  0.00    +0.000 A 
ATOM     24  C   UNL     1      45.639  10.810  11.349  0.00  0.00    +0.000 A 
ATOM     25  C   UNL     1      46.872  11.099  12.158  0.00  0.00    +0.000 C 
ATOM     26  C   UNL     1      45.374  11.635  10.245  0.00  0.00    +0.000 A 
ENDBRANCH  17  23
ENDBRANCH   1  17
TORSDOF 4
ENDMDL
MODEL 3
REMARK VINA RESULT:    -6.803      2.918      6.986
REMARK INTER + INTRA:          -9.580
REMARK INTER:                  -9.049
REMARK INTRA:                  -0.531
REMARK UNBOUND:                -1.187
REMARK  Name = 
REMARK  6 active torsions:
REMARK  status: ('A' for Active; 'I' for Inactive)
REMARK    1  A    between atoms: C_1  and  C_2
REMARK    2  A    between atoms: C_5  and  N_6
REMARK    3  A    between atoms: N_6  and  C_7
REMARK    4  A    between atoms: C_7  and  C_8
REMARK    5  A    between atoms: C_12  and  C_13
REMARK    6  A    between atoms: C_23  and  C_24
REMARK                            x       y       z     vdW  Elec       q    Type
REMARK                         _______ _______ _______ _____ _____    ______ ____
ROOT
ATOM      1  C   UNL     1      44.521   4.941  11.304  0.00  0.00    +0.000 C 
ATOM      2  C   UNL     1      45.144   3.827  12.147  0.00  0.00    +0.000 C 
ATOM      3  C   UNL     1      43.768   4.307  12.461  0.00  0.00    +0.000 C 
ENDROOT
BRANCH   1   4
ATOM      4  C   UNL     1      45.118   6.336  11.490  0.00  0.00    +0.000 A 
ATOM      5  C   UNL     1      44.317   7.484  11.544  0.00  0.00    +0.000 A 
ATOM      6  C   UNL     1      44.868   8.738  11.797  0.00  0.00    +0.000 A 
ATOM      7  C   UNL     1      46.238   8.864  12.031  0.00  0.00    +0.000 A 
ATOM      8  C   UNL     1      47.087   7.747  12.001  0.00  0.00    +0.000 A 
ATOM      9  C   UNL     1      46.504   6.509  11.677  0.00  0.00    +0.000 A 
BRANCH   8  10
ATOM     10  C   UNL     1      48.510   7.836  12.401  0.00  0.00    +0.000 A 
ATOM     11  C   UNL     1      49.501   8.124  11.441  0.00  0.00    +0.000 A 
ATOM     12  C   UNL     1      50.843   8.292  11.798  0.00  0.00    +0.000 A 
ATOM     13  C   UNL     1      51.230   8.187  13.130  0.00  0.00    +0.000 A 
ATOM     14  C   UNL     1      50.273   7.904  14.102  0.00  0.00    +0.000 A 
ATOM     15  C   UNL     1      48.937   7.725  13.735  0.00  0.00    +0.000 A 
ATOM     16  F   UNL     1      48.061   7.452  14.714  0.00  0.00    +0.000 F 
ENDBRANCH   8  10
ENDBRANCH   1   4
BRANCH   1  17
ATOM     17  N   UNL     1      44.139   4.610   9.906  0.00  0.00    +0.000 N 
ATOM     18  H   UNL     1      43.285   4.064   9.851  0.00  0.00    +0.000 HD
BRANCH  17  23
ATOM     19  C   UNL     1      47.774   2.478   6.084  0.00  0.00    +0.000 C 
ATOM     20  C   UNL     1      46.871   2.994   7.158  0.00  0.00    +0.000 A 
ATOM     21  C   UNL     1      46.806   4.339   7.465  0.00  0.00    +0.000 A 
ATOM     22  N   UNL     1      45.945   4.865   8.363  0.00  0.00    +0.000 NA
ATOM     23  C   UNL     1      45.106   4.043   9.033  0.00  0.00    +0.000 A 
ATOM     24  C   UNL     1      45.133   2.655   8.822  0.00  0.00    +0.000 A 
ATOM     25  C   UNL     1      44.222   1.682   9.515  0.00  0.00    +0.000 C 
ATOM     26  C   UNL     1      46.019   2.147   7.858  0.00  0.00    +0.000 A 
ENDBRANCH  17  23
ENDBRANCH   1  17
TORSDOF 4
ENDMDL
MODEL 4
REMARK VINA RESULT:    -6.761      1.180      1.909
REMARK INTER + INTRA:          -9.529
REMARK INTER:                  -8.518
REMARK INTRA:                  -1.011
REMARK UNBOUND:                -1.187
REMARK  Name = 
REMARK  6 active torsions:
REMARK  status: ('A' for Active; 'I' for Inactive)
REMARK    1  A    between atoms: C_1  and  C_2
REMARK    2  A    between atoms: C_5  and  N_6
REMARK    3  A    between atoms: N_6  and  C_7
REMARK    4  A    between atoms: C_7  and  C_8
REMARK    5  A    between atoms: C_12  and  C_13
REMARK    6  A    between atoms: C_23  and  C_24
REMARK                            x       y       z     vdW  Elec       q    Type
REMARK                         _______ _______ _______ _____ _____    ______ ____
ROOT
ATOM      1  C   UNL     1      45.988   7.757  11.984  0.00  0.00    +0.000 C 
ATOM      2  C   UNL     1      45.591   9.162  11.529  0.00  0.00    +0.000 C 
ATOM      3  C   UNL     1      45.359   8.752  12.944  0.00  0.00    +0.000 C 
ENDROOT
BRANCH   1   4
ATOM      4  C   UNL     1      45.132   6.611  11.445  0.00  0.00    +0.000 A 
ATOM      5  C   UNL     1      43.759   6.522  11.711  0.00  0.00    +0.000 A 
ATOM      6  C   UNL     1      42.976   5.519  11.145  0.00  0.00    +0.000 A 
ATOM      7  C   UNL     1      43.551   4.595  10.271  0.00  0.00    +0.000 A 
ATOM      8  C   UNL     1      44.919   4.643   9.959  0.00  0.00    +0.000 A 
ATOM      9  C   UNL     1      45.688   5.629  10.601  0.00  0.00    +0.000 A 
BRANCH   8  10
ATOM     10  C   UNL     1      45.513   3.774   8.917  0.00  0.00    +0.000 A 
ATOM     11  C   UNL     1      46.290   4.336   7.884  0.00  0.00    +0.000 A 
ATOM     12  C   UNL     1      46.931   3.538   6.929  0.00  0.00    +0.000 A 
ATOM     13  C   UNL     1      46.819   2.152   6.989  0.00  0.00    +0.000 A 
ATOM     14  C   UNL     1      46.059   1.568   7.999  0.00  0.00    +0.000 A 
ATOM     15  C   UNL     1      45.412   2.373   8.940  0.00  0.00    +0.000 A 
ATOM     16  F   UNL     1      44.691   1.754   9.889  0.00  0.00    +0.000 F 
ENDBRANCH   8  10
ENDBRANCH   1   4
BRANCH   1  17
ATOM     17  N   UNL     1      47.440   7.454  12.085  0.00  0.00    +0.000 N 
ATOM     18  H   UNL     1      47.693   6.584  11.627  0.00  0.00    +0.000 HD
BRANCH  17  23
ATOM     19  C   UNL     1      50.370   7.609  16.959  0.00  0.00    +0.000 C 
ATOM     20  C   UNL     1      49.518   7.575  15.731  0.00  0.00    +0.000 A 
ATOM     21  C   UNL     1      49.518   8.613  14.820  0.00  0.00    +0.000 A 
ATOM     22  N   UNL     1      48.835   8.592  13.655  0.00  0.00    +0.000 NA
ATOM     23  C   UNL     1      48.080   7.512  13.352  0.00  0.00    +0.000 A 
ATOM     24  C   UNL     1      47.981   6.428  14.238  0.00  0.00    +0.000 A 
ATOM     25  C   UNL     1      47.177   5.189  13.963  0.00  0.00    +0.000 C 
ATOM     26  C   UNL     1      48.729   6.470  15.426  0.00  0.00    +0.000 A 
ENDBRANCH  17  23
ENDBRANCH   1  17
TORSDOF 4
ENDMDL
MODEL 5
REMARK VINA RESULT:    -6.543      1.480      2.112
REMARK INTER + INTRA:          -9.260
REMARK INTER:                  -8.144
REMARK INTRA:                  -1.116
REMARK UNBOUND:                -1.187
REMARK  Name = 
REMARK  6 active torsions:
REMARK  status: ('A' for Active; 'I' for Inactive)
REMARK    1  A    between atoms: C_1  and  C_2
REMARK    2  A    between atoms: C_5  and  N_6
REMARK    3  A    between atoms: N_6  and  C_7
REMARK    4  A    between atoms: C_7  and  C_8
REMARK    5  A    between atoms: C_12  and  C_13
REMARK    6  A    between atoms: C_23  and  C_24
REMARK                            x       y       z     vdW  Elec       q    Type
REMARK                         _______ _______ _______ _____ _____    ______ ____
ROOT
ATOM      1  C   UNL     1      48.541   8.078  12.492  0.00  0.00    +0.000 C 
ATOM      2  C   UNL     1      49.206   9.028  11.495  0.00  0.00    +0.000 C 
ATOM      3  C   UNL     1      48.866   9.515  12.863  0.00  0.00    +0.000 C 
ENDROOT
BRANCH   1   4
ATOM      4  C   UNL     1      47.090   7.703  12.196  0.00  0.00    +0.000 A 
ATOM      5  C   UNL     1      46.023   8.548  12.528  0.00  0.00    +0.000 A 
ATOM      6  C   UNL     1      44.713   8.231  12.177  0.00  0.00    +0.000 A 
ATOM      7  C   UNL     1      44.447   7.067  11.455  0.00  0.00    +0.000 A 
ATOM      8  C   UNL     1      45.477   6.188  11.085  0.00  0.00    +0.000 A 
ATOM      9  C   UNL     1      46.777   6.509  11.515  0.00  0.00    +0.000 A 
BRANCH   8  10
ATOM     10  C   UNL     1      45.237   5.035  10.187  0.00  0.00    +0.000 A 
ATOM     11  C   UNL     1      45.810   5.006   8.900  0.00  0.00    +0.000 A 
ATOM     12  C   UNL     1      45.667   3.899   8.057  0.00  0.00    +0.000 A 
ATOM     13  C   UNL     1      44.955   2.782   8.485  0.00  0.00    +0.000 A 
ATOM     14  C   UNL     1      44.379   2.781   9.752  0.00  0.00    +0.000 A 
ATOM     15  C   UNL     1      44.515   3.896  10.583  0.00  0.00    +0.000 A 
ATOM     16  F   UNL     1      43.935   3.838  11.792  0.00  0.00    +0.000 F 
ENDBRANCH   8  10
ENDBRANCH   1   4
BRANCH   1  17
ATOM     17  N   UNL     1      49.370   6.971  13.040  0.00  0.00    +0.000 N 
ATOM     18  H   UNL     1      49.413   6.168  12.420  0.00  0.00    +0.000 HD
BRANCH  17  23
ATOM     19  C   UNL     1      48.115   5.408  18.364  0.00  0.00    +0.000 C 
ATOM     20  C   UNL     1      48.528   5.768  16.973  0.00  0.00    +0.000 A 
ATOM     21  C   UNL     1      47.845   5.295  15.870  0.00  0.00    +0.000 A 
ATOM     22  N   UNL     1      48.122   5.660  14.600  0.00  0.00    +0.000 NA
ATOM     23  C   UNL     1      49.141   6.518  14.367  0.00  0.00    +0.000 A 
ATOM     24  C   UNL     1      49.922   7.015  15.423  0.00  0.00    +0.000 A 
ATOM     25  C   UNL     1      51.058   7.982  15.244  0.00  0.00    +0.000 C 
ATOM     26  C   UNL     1      49.586   6.639  16.733  0.00  0.00    +0.000 A 
ENDBRANCH  17  23
ENDBRANCH   1  17
TORSDOF 4
ENDMDL
MODEL 6
REMARK VINA RESULT:    -6.384      2.045      3.191
REMARK INTER + INTRA:          -9.063
REMARK INTER:                  -7.689
REMARK INTRA:                  -1.374
REMARK UNBOUND:                -1.187
REMARK  Name = 
REMARK  6 active torsions:
REMARK  status: ('A' for Active; 'I' for Inactive)
REMARK    1  A    between atoms: C_1  and  C_2
REMARK    2  A    between atoms: C_5  and  N_6
REMARK    3  A    between atoms: N_6  and  C_7
REMARK    4  A    between atoms: C_7  and  C_8
REMARK    5  A    between atoms: C_12  and  C_13
REMARK    6  A    between atoms: C_23  and  C_24
REMARK                            x       y       z     vdW  Elec       q    Type
REMARK                         _______ _______ _______ _____ _____    ______ ____
ROOT
ATOM      1  C   UNL     1      49.168   7.901  12.628  0.00  0.00    +0.000 C 
ATOM      2  C   UNL     1      49.989   8.177  11.367  0.00  0.00    +0.000 C 
ATOM      3  C   UNL     1      49.789   9.263  12.369  0.00  0.00    +0.000 C 
ENDROOT
BRANCH   1   4
ATOM      4  C   UNL     1      47.664   7.727  12.424  0.00  0.00    +0.000 A 
ATOM      5  C   UNL     1      46.749   8.738  12.748  0.00  0.00    +0.000 A 
ATOM      6  C   UNL     1      45.390   8.596  12.479  0.00  0.00    +0.000 A 
ATOM      7  C   UNL     1      44.919   7.443  11.849  0.00  0.00    +0.000 A 
ATOM      8  C   UNL     1      45.791   6.402  11.492  0.00  0.00    +0.000 A 
ATOM      9  C   UNL     1      47.145   6.554  11.839  0.00  0.00    +0.000 A 
BRANCH   8  10
ATOM     10  C   UNL     1      45.338   5.246  10.685  0.00  0.00    +0.000 A 
ATOM     11  C   UNL     1      45.598   5.201   9.301  0.00  0.00    +0.000 A 
ATOM     12  C   UNL     1      45.254   4.089   8.524  0.00  0.00    +0.000 A 
ATOM     13  C   UNL     1      44.649   2.984   9.115  0.00  0.00    +0.000 A 
ATOM     14  C   UNL     1      44.380   2.999  10.481  0.00  0.00    +0.000 A 
ATOM     15  C   UNL     1      44.715   4.119  11.247  0.00  0.00    +0.000 A 
ATOM     16  F   UNL     1      44.429   4.076  12.558  0.00  0.00    +0.000 F 
ENDBRANCH   8  10
ENDBRANCH   1   4
BRANCH   1  17
ATOM     17  N   UNL     1      49.765   7.002  13.650  0.00  0.00    +0.000 N 
ATOM     18  H   UNL     1      49.541   6.024  13.493  0.00  0.00    +0.000 HD
BRANCH  17  23
ATOM     19  C   UNL     1      49.454   8.006  19.241  0.00  0.00    +0.000 C 
ATOM     20  C   UNL     1      49.444   7.775  17.764  0.00  0.00    +0.000 A 
ATOM     21  C   UNL     1      50.242   8.513  16.911  0.00  0.00    +0.000 A 
ATOM     22  N   UNL     1      50.335   8.286  15.583  0.00  0.00    +0.000 NA
ATOM     23  C   UNL     1      49.594   7.299  15.028  0.00  0.00    +0.000 A 
ATOM     24  C   UNL     1      48.719   6.527  15.810  0.00  0.00    +0.000 A 
ATOM     25  C   UNL     1      47.878   5.406  15.268  0.00  0.00    +0.000 C 
ATOM     26  C   UNL     1      48.671   6.771  17.191  0.00  0.00    +0.000 A 
ENDBRANCH  17  23
ENDBRANCH   1  17
TORSDOF 4
ENDMDL
MODEL 7
REMARK VINA RESULT:    -6.314      2.070      3.768
REMARK INTER + INTRA:          -8.977
REMARK INTER:                  -7.726
REMARK INTRA:                  -1.251
REMARK UNBOUND:                -1.187
REMARK  Name = 
REMARK  6 active torsions:
REMARK  status: ('A' for Active; 'I' for Inactive)
REMARK    1  A    between atoms: C_1  and  C_2
REMARK    2  A    between atoms: C_5  and  N_6
REMARK    3  A    between atoms: N_6  and  C_7
REMARK    4  A    between atoms: C_7  and  C_8
REMARK    5  A    between atoms: C_12  and  C_13
REMARK    6  A    between atoms: C_23  and  C_24
REMARK                            x       y       z     vdW  Elec       q    Type
REMARK                         _______ _______ _______ _____ _____    ______ ____
ROOT
ATOM      1  C   UNL     1      48.943   7.356  14.201  0.00  0.00    +0.000 C 
ATOM      2  C   UNL     1      50.064   7.744  13.235  0.00  0.00    +0.000 C 
ATOM      3  C   UNL     1      49.723   8.649  14.369  0.00  0.00    +0.000 C 
ENDROOT
BRANCH   1   4
ATOM      4  C   UNL     1      47.523   7.420  13.640  0.00  0.00    +0.000 A 
ATOM      5  C   UNL     1      46.851   8.637  13.457  0.00  0.00    +0.000 A 
ATOM      6  C   UNL     1      45.590   8.685  12.869  0.00  0.00    +0.000 A 
ATOM      7  C   UNL     1      44.984   7.510  12.420  0.00  0.00    +0.000 A 
ATOM      8  C   UNL     1      45.615   6.264  12.566  0.00  0.00    +0.000 A 
ATOM      9  C   UNL     1      46.857   6.250  13.225  0.00  0.00    +0.000 A 
BRANCH   8  10
ATOM     10  C   UNL     1      45.062   5.033  11.958  0.00  0.00    +0.000 A 
ATOM     11  C   UNL     1      44.327   4.122  12.743  0.00  0.00    +0.000 A 
ATOM     12  C   UNL     1      43.725   2.989  12.184  0.00  0.00    +0.000 A 
ATOM     13  C   UNL     1      43.833   2.742  10.819  0.00  0.00    +0.000 A 
ATOM     14  C   UNL     1      44.552   3.625  10.018  0.00  0.00    +0.000 A 
ATOM     15  C   UNL     1      45.161   4.747  10.586  0.00  0.00    +0.000 A 
ATOM     16  F   UNL     1      45.843   5.560   9.764  0.00  0.00    +0.000 F 
ENDBRANCH   8  10
ENDBRANCH   1   4
BRANCH   1  17
ATOM     17  N   UNL     1      49.197   6.218  15.123  0.00  0.00    +0.000 N 
ATOM     18  H   UNL     1      49.011   5.317  14.695  0.00  0.00    +0.000 HD
BRANCH  17  23
ATOM     19  C   UNL     1      47.322   6.195  20.494  0.00  0.00    +0.000 C 
ATOM     20  C   UNL     1      47.721   6.210  19.054  0.00  0.00    +0.000 A 
ATOM     21  C   UNL     1      48.444   7.256  18.514  0.00  0.00    +0.000 A 
ATOM     22  N   UNL     1      48.905   7.277  17.245  0.00  0.00    +0.000 NA
ATOM     23  C   UNL     1      48.632   6.235  16.426  0.00  0.00    +0.000 A 
ATOM     24  C   UNL     1      47.863   5.149  16.873  0.00  0.00    +0.000 A 
ATOM     25  C   UNL     1      47.534   3.950  16.028  0.00  0.00    +0.000 C 
ATOM     26  C   UNL     1      47.428   5.146  18.207  0.00  0.00    +0.000 A 
ENDBRANCH  17  23
ENDBRANCH   1  17
TORSDOF 4
ENDMDL
MODEL 8
REMARK VINA RESULT:    -6.121      2.775      7.377
REMARK INTER + INTRA:          -8.738
REMARK INTER:                  -7.526
REMARK INTRA:                  -1.213
REMARK UNBOUND:                -1.187
REMARK  Name = 
REMARK  6 active torsions:
REMARK  status: ('A' for Active; 'I' for Inactive)
REMARK    1  A    between atoms: C_1  and  C_2
REMARK    2  A    between atoms: C_5  and  N_6
REMARK    3  A    between atoms: N_6  and  C_7
REMARK    4  A    between atoms: C_7  and  C_8
REMARK    5  A    between atoms: C_12  and  C_13
REMARK    6  A    between atoms: C_23  and  C_24
REMARK                            x       y       z     vdW  Elec       q    Type
REMARK                         _______ _______ _______ _____ _____    ______ ____
ROOT
ATOM      1  C   UNL     1      47.637   7.802  13.209  0.00  0.00    +0.000 C 
ATOM      2  C   UNL     1      47.966   8.865  12.159  0.00  0.00    +0.000 C 
ATOM      3  C   UNL     1      48.478   7.476  11.987  0.00  0.00    +0.000 C 
ENDROOT
BRANCH   1   4
ATOM      4  C   UNL     1      48.331   7.958  14.561  0.00  0.00    +0.000 A 
ATOM      5  C   UNL     1      48.092   9.058  15.396  0.00  0.00    +0.000 A 
ATOM      6  C   UNL     1      48.668   9.145  16.660  0.00  0.00    +0.000 A 
ATOM      7  C   UNL     1      49.478   8.111  17.130  0.00  0.00    +0.000 A 
ATOM      8  C   UNL     1      49.744   6.979  16.343  0.00  0.00    +0.000 A 
ATOM      9  C   UNL     1      49.198   6.959  15.047  0.00  0.00    +0.000 A 
BRANCH   8  10
ATOM     10  C   UNL     1      50.468   5.805  16.881  0.00  0.00    +0.000 A 
ATOM     11  C   UNL     1      51.869   5.841  17.028  0.00  0.00    +0.000 A 
ATOM     12  C   UNL     1      52.576   4.781  17.606  0.00  0.00    +0.000 A 
ATOM     13  C   UNL     1      51.896   3.656  18.063  0.00  0.00    +0.000 A 
ATOM     14  C   UNL     1      50.511   3.592  17.933  0.00  0.00    +0.000 A 
ATOM     15  C   UNL     1      49.815   4.650  17.343  0.00  0.00    +0.000 A 
ATOM     16  F   UNL     1      48.482   4.530  17.242  0.00  0.00    +0.000 F 
ENDBRANCH   8  10
ENDBRANCH   1   4
BRANCH   1  17
ATOM     17  N   UNL     1      46.231   7.326  13.283  0.00  0.00    +0.000 N 
ATOM     18  H   UNL     1      45.902   7.215  14.237  0.00  0.00    +0.000 HD
BRANCH  17  23
ATOM     19  C   UNL     1      44.248   2.876  10.345  0.00  0.00    +0.000 C 
ATOM     20  C   UNL     1      44.859   4.012  11.101  0.00  0.00    +0.000 A 
ATOM     21  C   UNL     1      44.799   5.309  10.632  0.00  0.00    +0.000 A 
ATOM     22  N   UNL     1      45.257   6.379  11.316  0.00  0.00    +0.000 NA
ATOM     23  C   UNL     1      45.836   6.191  12.525  0.00  0.00    +0.000 A 
ATOM     24  C   UNL     1      45.983   4.902  13.062  0.00  0.00    +0.000 A 
ATOM     25  C   UNL     1      46.599   4.617  14.403  0.00  0.00    +0.000 C 
ATOM     26  C   UNL     1      45.468   3.817  12.336  0.00  0.00    +0.000 A 
ENDBRANCH  17  23
ENDBRANCH   1  17
TORSDOF 4
ENDMDL
MODEL 9
REMARK VINA RESULT:    -5.984      3.006      5.213
REMARK INTER + INTRA:          -8.569
REMARK INTER:                  -7.642
REMARK INTRA:                  -0.928
REMARK UNBOUND:                -1.187
REMARK  Name = 
REMARK  6 active torsions:
REMARK  status: ('A' for Active; 'I' for Inactive)
REMARK    1  A    between atoms: C_1  and  C_2
REMARK    2  A    between atoms: C_5  and  N_6
REMARK    3  A    between atoms: N_6  and  C_7
REMARK    4  A    between atoms: C_7  and  C_8
REMARK    5  A    between atoms: C_12  and  C_13
REMARK    6  A    between atoms: C_23  and  C_24
REMARK                            x       y       z     vdW  Elec       q    Type
REMARK                         _______ _______ _______ _____ _____    ______ ____
ROOT
ATOM      1  C   UNL     1      48.500   8.135  12.689  0.00  0.00    +0.000 C 
ATOM      2  C   UNL     1      49.152   7.267  13.766  0.00  0.00    +0.000 C 
ATOM      3  C   UNL     1      49.616   7.162  12.353  0.00  0.00    +0.000 C 
ENDROOT
BRANCH   1   4
ATOM      4  C   UNL     1      47.065   7.769  12.311  0.00  0.00    +0.000 A 
ATOM      5  C   UNL     1      45.994   8.647  12.526  0.00  0.00    +0.000 A 
ATOM      6  C   UNL     1      44.706   8.333  12.102  0.00  0.00    +0.000 A 
ATOM      7  C   UNL     1      44.466   7.138  11.422  0.00  0.00    +0.000 A 
ATOM      8  C   UNL     1      45.502   6.225  11.169  0.00  0.00    +0.000 A 
ATOM      9  C   UNL     1      46.776   6.547  11.671  0.00  0.00    +0.000 A 
BRANCH   8  10
ATOM     10  C   UNL     1      45.301   5.032  10.315  0.00  0.00    +0.000 A 
ATOM     11  C   UNL     1      45.686   5.056   8.960  0.00  0.00    +0.000 A 
ATOM     12  C   UNL     1      45.583   3.922   8.146  0.00  0.00    +0.000 A 
ATOM     13  C   UNL     1      45.100   2.727   8.672  0.00  0.00    +0.000 A 
ATOM     14  C   UNL     1      44.713   2.673  10.008  0.00  0.00    +0.000 A 
ATOM     15  C   UNL     1      44.807   3.813  10.810  0.00  0.00    +0.000 A 
ATOM     16  F   UNL     1      44.416   3.701  12.089  0.00  0.00    +0.000 F 
ENDBRANCH   8  10
ENDBRANCH   1   4
BRANCH   1  17
ATOM     17  N   UNL     1      48.781   9.594  12.723  0.00  0.00    +0.000 N 
ATOM     18  H   UNL     1      47.971  10.145  12.991  0.00  0.00    +0.000 HD
BRANCH  17  23
ATOM     19  C   UNL     1      51.494  12.322   8.532  0.00  0.00    +0.000 C 
ATOM     20  C   UNL     1      50.730  11.558   9.565  0.00  0.00    +0.000 A 
ATOM     21  C   UNL     1      51.342  10.617  10.370  0.00  0.00    +0.000 A 
ATOM     22  N   UNL     1      50.718   9.965  11.374  0.00  0.00    +0.000 NA
ATOM     23  C   UNL     1      49.409  10.212  11.608  0.00  0.00    +0.000 A 
ATOM     24  C   UNL     1      48.691  11.117  10.810  0.00  0.00    +0.000 A 
ATOM     25  C   UNL     1      47.242  11.454  11.020  0.00  0.00    +0.000 C 
ATOM     26  C   UNL     1      49.380  11.800   9.796  0.00  0.00    +0.000 A 
ENDBRANCH  17  23
ENDBRANCH   1  17
TORSDOF 4
ENDMDL
