MODEL 1
REMARK VINA RESULT:    -8.552      0.000      0.000
REMARK INTER + INTRA:         -13.140
REMARK INTER:                 -12.052
REMARK INTRA:                  -1.089
REMARK UNBOUND:                -1.089
REMARK  Name = 
REMARK  7 active torsions:
REMARK  status: ('A' for Active; 'I' for Inactive)
REMARK    1  A    between atoms: C_2  and  C_4
REMARK    2  A    between atoms: C_7  and  O_8
REMARK    3  A    between atoms: O_8  and  C_9
REMARK    4  A    between atoms: C_9  and  C_10
REMARK    5  A    between atoms: C_10  and  C_13
REMARK    6  A    between atoms: C_17  and  O_18
REMARK    7  A    between atoms: O_18  and  C_19
REMARK                            x       y       z     vdW  Elec       q    Type
REMARK                         _______ _______ _______ _____ _____    ______ ____
ROOT
ATOM      1  C   UNL     1      43.877   4.547  12.499  0.00  0.00    +0.000 C 
ATOM      2  F   UNL     1      42.925   5.211  13.221  0.00  0.00    +0.000 F 
ATOM      3  F   UNL     1      43.815   3.251  12.927  0.00  0.00    +0.000 F 
ENDROOT
BRANCH   1   4
ATOM      4  C   UNL     1      45.258   5.146  12.710  0.00  0.00    +0.000 A 
ATOM      5  C   UNL     1      45.802   6.042  11.778  0.00  0.00    +0.000 A 
ATOM      6  C   UNL     1      47.074   6.585  11.977  0.00  0.00    +0.000 A 
ATOM      7  C   UNL     1      47.822   6.237  13.107  0.00  0.00    +0.000 A 
ATOM      8  C   UNL     1      47.299   5.339  14.032  0.00  0.00    +0.000 A 
ATOM      9  C   UNL     1      46.023   4.801  13.835  0.00  0.00    +0.000 A 
BRANCH   8  10
ATOM     10  O   UNL     1      47.925   4.945  15.187  0.00  0.00    +0.000 OA
BRANCH  10  11
ATOM     11  C   UNL     1      47.194   4.146  16.151  0.00  0.00    +0.000 C 
ATOM     12  C   UNL     1      47.197   4.610  17.619  0.00  0.00    +0.000 C 
ATOM     13  N   UNL     1      47.677   3.291  18.055  0.00  0.00    +0.000 NA
ATOM     14  C   UNL     1      47.953   2.906  16.664  0.00  0.00    +0.000 C 
ATOM     15  H   UNL     1      46.972   2.717  18.514  0.00  0.00    +0.000 HD
ENDBRANCH  10  11
ENDBRANCH   8  10
ENDBRANCH   1   4
BRANCH   1  16
ATOM     16  C   UNL     1      43.491   4.597  11.015  0.00  0.00    +0.000 C 
BRANCH  16  17
ATOM     17  O   UNL     1      43.438   3.275  10.442  0.00  0.00    +0.000 OA
BRANCH  17  21
ATOM     18  C   UNL     1      46.389   2.768   7.612  0.00  0.00    +0.000 A 
ATOM     19  C   UNL     1      45.871   4.045   7.845  0.00  0.00    +0.000 A 
ATOM     20  C   UNL     1      44.866   4.207   8.802  0.00  0.00    +0.000 A 
ATOM     21  C   UNL     1      44.421   3.088   9.493  0.00  0.00    +0.000 A 
ATOM     22  N   UNL     1      44.901   1.844   9.281  0.00  0.00    +0.000 NA
ATOM     23  C   UNL     1      45.863   1.709   8.338  0.00  0.00    +0.000 A 
BRANCH  18  25
ATOM     24  N   UNL     1      47.411   3.153   5.441  0.00  0.00    +0.000 N 
ATOM     25  C   UNL     1      47.451   2.479   6.627  0.00  0.00    +0.000 C 
ATOM     26  O   UNL     1      48.361   1.699   6.881  0.00  0.00    +0.000 OA
ATOM     27  H   UNL     1      48.215   3.032   4.836  0.00  0.00    +0.000 HD
ATOM     28  H   UNL     1      46.847   3.980   5.302  0.00  0.00    +0.000 HD
ENDBRANCH  18  25
ENDBRANCH  17  21
ENDBRANCH  16  17
ENDBRANCH   1  16
TORSDOF 7
ENDMDL
MODEL 2
REMARK VINA RESULT:    -7.500      1.443      1.724
REMARK INTER + INTRA:         -11.658
REMARK INTER:                 -10.869
REMARK INTRA:                  -0.789
REMARK UNBOUND:                -1.089
REMARK  Name = 
REMARK  7 active torsions:
REMARK  status: ('A' for Active; 'I' for Inactive)
REMARK    1  A    between atoms: C_2  and  C_4
REMARK    2  A    between atoms: C_7  and  O_8
REMARK    3  A    between atoms: O_8  and  C_9
REMARK    4  A    between atoms: C_9  and  C_10
REMARK    5  A    between atoms: C_10  and  C_13
REMARK    6  A    between atoms: C_17  and  O_18
REMARK    7  A    between atoms: O_18  and  C_19
REMARK                            x       y       z     vdW  Elec       q    Type
REMARK                         _______ _______ _______ _____ _____    ______ ____
ROOT
ATOM      1  C   UNL     1      43.631   4.694  12.479  0.00  0.00    +0.000 C 
ATOM      2  F   UNL     1      42.614   5.547  12.152  0.00  0.00    +0.000 F 
ATOM      3  F   UNL     1      43.261   4.131  13.668  0.00  0.00    +0.000 F 
ENDROOT
BRANCH   1   4
ATOM      4  C   UNL     1      44.960   5.423  12.589  0.00  0.00    +0.000 A 
ATOM      5  C   UNL     1      45.257   6.505  11.748  0.00  0.00    +0.000 A 
ATOM      6  C   UNL     1      46.482   7.168  11.853  0.00  0.00    +0.000 A 
ATOM      7  C   UNL     1      47.429   6.756  12.795  0.00  0.00    +0.000 A 
ATOM      8  C   UNL     1      47.153   5.675  13.626  0.00  0.00    +0.000 A 
ATOM      9  C   UNL     1      45.923   5.016  13.525  0.00  0.00    +0.000 A 
BRANCH   8  10
ATOM     10  O   UNL     1      47.989   5.199  14.604  0.00  0.00    +0.000 OA
BRANCH  10  11
ATOM     11  C   UNL     1      48.325   6.053  15.726  0.00  0.00    +0.000 C 
ATOM     12  C   UNL     1      49.660   6.818  15.673  0.00  0.00    +0.000 C 
ATOM     13  N   UNL     1      50.051   6.265  16.978  0.00  0.00    +0.000 NA
ATOM     14  C   UNL     1      48.931   5.314  16.936  0.00  0.00    +0.000 C 
ATOM     15  H   UNL     1      50.004   6.929  17.748  0.00  0.00    +0.000 HD
ENDBRANCH  10  11
ENDBRANCH   8  10
ENDBRANCH   1   4
BRANCH   1  16
ATOM     16  C   UNL     1      43.709   3.593  11.413  0.00  0.00    +0.000 C 
BRANCH  16  17
ATOM     17  O   UNL     1      43.590   4.139  10.085  0.00  0.00    +0.000 OA
BRANCH  17  21
ATOM     18  C   UNL     1      46.550   2.723   7.593  0.00  0.00    +0.000 A 
ATOM     19  C   UNL     1      45.841   1.827   8.397  0.00  0.00    +0.000 A 
ATOM     20  C   UNL     1      44.842   2.317   9.244  0.00  0.00    +0.000 A 
ATOM     21  C   UNL     1      44.589   3.682   9.250  0.00  0.00    +0.000 A 
ATOM     22  N   UNL     1      45.265   4.567   8.488  0.00  0.00    +0.000 NA
ATOM     23  C   UNL     1      46.237   4.071   7.687  0.00  0.00    +0.000 A 
BRANCH  18  25
ATOM     24  N   UNL     1      47.703   2.981   5.469  0.00  0.00    +0.000 N 
ATOM     25  C   UNL     1      47.623   2.320   6.661  0.00  0.00    +0.000 C 
ATOM     26  O   UNL     1      48.439   1.459   6.962  0.00  0.00    +0.000 OA
ATOM     27  H   UNL     1      48.518   2.776   4.903  0.00  0.00    +0.000 HD
ATOM     28  H   UNL     1      47.229   3.857   5.299  0.00  0.00    +0.000 HD
ENDBRANCH  18  25
ENDBRANCH  17  21
ENDBRANCH  16  17
ENDBRANCH   1  16
TORSDOF 7
ENDMDL
MODEL 3
REMARK VINA RESULT:    -7.459      2.799      3.991
REMARK INTER + INTRA:         -11.601
REMARK INTER:                 -10.612
REMARK INTRA:                  -0.988
REMARK UNBOUND:                -1.089
REMARK  Name = 
REMARK  7 active torsions:
REMARK  status: ('A' for Active; 'I' for Inactive)
REMARK    1  A    between atoms: C_2  and  C_4
REMARK    2  A    between atoms: C_7  and  O_8
REMARK    3  A    between atoms: O_8  and  C_9
REMARK    4  A    between atoms: C_9  and  C_10
REMARK    5  A    between atoms: C_10  and  C_13
REMARK    6  A    between atoms: C_17  and  O_18
REMARK    7  A    between atoms: O_18  and  C_19
REMARK                            x       y       z     vdW  Elec       q    Type
REMARK                         _______ _______ _______ _____ _____    ______ ____
ROOT
ATOM      1  C   UNL     1      44.159   4.064  12.465  0.00  0.00    +0.000 C 
ATOM      2  F   UNL     1      43.164   4.182  13.396  0.00  0.00    +0.000 F 
ATOM      3  F   UNL     1      44.663   2.805  12.634  0.00  0.00    +0.000 F 
ENDROOT
BRANCH   1   4
ATOM      4  C   UNL     1      45.226   5.130  12.649  0.00  0.00    +0.000 A 
ATOM      5  C   UNL     1      46.353   4.886  13.448  0.00  0.00    +0.000 A 
ATOM      6  C   UNL     1      47.328   5.873  13.615  0.00  0.00    +0.000 A 
ATOM      7  C   UNL     1      47.189   7.117  12.992  0.00  0.00    +0.000 A 
ATOM      8  C   UNL     1      46.070   7.375  12.208  0.00  0.00    +0.000 A 
ATOM      9  C   UNL     1      45.097   6.385  12.035  0.00  0.00    +0.000 A 
BRANCH   8  10
ATOM     10  O   UNL     1      45.838   8.543  11.527  0.00  0.00    +0.000 OA
BRANCH  10  11
ATOM     11  C   UNL     1      45.276   9.677  12.235  0.00  0.00    +0.000 C 
ATOM     12  C   UNL     1      44.036  10.361  11.629  0.00  0.00    +0.000 C 
ATOM     13  N   UNL     1      44.715  11.664  11.666  0.00  0.00    +0.000 NA
ATOM     14  C   UNL     1      45.996  11.016  11.977  0.00  0.00    +0.000 C 
ATOM     15  H   UNL     1      44.379  12.294  12.394  0.00  0.00    +0.000 HD
ENDBRANCH  10  11
ENDBRANCH   8  10
ENDBRANCH   1   4
BRANCH   1  16
ATOM     16  C   UNL     1      43.536   4.163  11.066  0.00  0.00    +0.000 C 
BRANCH  16  17
ATOM     17  O   UNL     1      43.515   2.880  10.409  0.00  0.00    +0.000 OA
BRANCH  17  21
ATOM     18  C   UNL     1      46.477   2.628   7.557  0.00  0.00    +0.000 A 
ATOM     19  C   UNL     1      45.882   3.864   7.822  0.00  0.00    +0.000 A 
ATOM     20  C   UNL     1      44.873   3.939   8.788  0.00  0.00    +0.000 A 
ATOM     21  C   UNL     1      44.503   2.778   9.452  0.00  0.00    +0.000 A 
ATOM     22  N   UNL     1      45.058   1.572   9.208  0.00  0.00    +0.000 NA
ATOM     23  C   UNL     1      46.023   1.521   8.258  0.00  0.00    +0.000 A 
BRANCH  18  25
ATOM     24  N   UNL     1      47.424   3.070   5.362  0.00  0.00    +0.000 N 
ATOM     25  C   UNL     1      47.551   2.430   6.561  0.00  0.00    +0.000 C 
ATOM     26  O   UNL     1      48.541   1.756   6.817  0.00  0.00    +0.000 OA
ATOM     27  H   UNL     1      48.228   3.020   4.748  0.00  0.00    +0.000 HD
ATOM     28  H   UNL     1      46.774   3.829   5.216  0.00  0.00    +0.000 HD
ENDBRANCH  18  25
ENDBRANCH  17  21
ENDBRANCH  16  17
ENDBRANCH   1  16
TORSDOF 7
ENDMDL
MODEL 4
REMARK VINA RESULT:    -7.106      2.524      2.877
REMARK INTER + INTRA:         -11.103
REMARK INTER:                 -10.242
REMARK INTRA:                  -0.861
REMARK UNBOUND:                -1.089
REMARK  Name = 
REMARK  7 active torsions:
REMARK  status: ('A' for Active; 'I' for Inactive)
REMARK    1  A    between atoms: C_2  and  C_4
REMARK    2  A    between atoms: C_7  and  O_8
REMARK    3  A    between atoms: O_8  and  C_9
REMARK    4  A    between atoms: C_9  and  C_10
REMARK    5  A    between atoms: C_10  and  C_13
REMARK    6  A    between atoms: C_17  and  O_18
REMARK    7  A    between atoms: O_18  and  C_19
REMARK                            x       y       z     vdW  Elec       q    Type
REMARK                         _______ _______ _______ _____ _____    ______ ____
ROOT
ATOM      1  C   UNL     1      43.485   5.463  11.723  0.00  0.00    +0.000 C 
ATOM      2  F   UNL     1      42.625   5.740  10.697  0.00  0.00    +0.000 F 
ATOM      3  F   UNL     1      42.687   5.199  12.801  0.00  0.00    +0.000 F 
ENDROOT
BRANCH   1   4
ATOM      4  C   UNL     1      44.429   6.624  11.991  0.00  0.00    +0.000 A 
ATOM      5  C   UNL     1      44.176   7.893  11.453  0.00  0.00    +0.000 A 
ATOM      6  C   UNL     1      45.051   8.954  11.700  0.00  0.00    +0.000 A 
ATOM      7  C   UNL     1      46.193   8.760  12.484  0.00  0.00    +0.000 A 
ATOM      8  C   UNL     1      46.463   7.502  13.012  0.00  0.00    +0.000 A 
ATOM      9  C   UNL     1      45.583   6.442  12.769  0.00  0.00    +0.000 A 
BRANCH   8  10
ATOM     10  O   UNL     1      47.532   7.198  13.815  0.00  0.00    +0.000 OA
BRANCH  10  11
ATOM     11  C   UNL     1      48.708   8.045  13.780  0.00  0.00    +0.000 C 
ATOM     12  C   UNL     1      49.774   7.752  12.707  0.00  0.00    +0.000 C 
ATOM     13  N   UNL     1      50.817   7.673  13.739  0.00  0.00    +0.000 NA
ATOM     14  C   UNL     1      49.801   7.670  14.800  0.00  0.00    +0.000 C 
ATOM     15  H   UNL     1      51.445   8.474  13.767  0.00  0.00    +0.000 HD
ENDBRANCH  10  11
ENDBRANCH   8  10
ENDBRANCH   1   4
BRANCH   1  16
ATOM     16  C   UNL     1      44.276   4.197  11.371  0.00  0.00    +0.000 C 
BRANCH  16  17
ATOM     17  O   UNL     1      43.710   3.525  10.229  0.00  0.00    +0.000 OA
BRANCH  17  21
ATOM     18  C   UNL     1      46.626   2.455   7.522  0.00  0.00    +0.000 A 
ATOM     19  C   UNL     1      46.291   3.802   7.674  0.00  0.00    +0.000 A 
ATOM     20  C   UNL     1      45.295   4.156   8.591  0.00  0.00    +0.000 A 
ATOM     21  C   UNL     1      44.679   3.149   9.322  0.00  0.00    +0.000 A 
ATOM     22  N   UNL     1      44.981   1.841   9.187  0.00  0.00    +0.000 NA
ATOM     23  C   UNL     1      45.937   1.521   8.283  0.00  0.00    +0.000 A 
BRANCH  18  25
ATOM     24  N   UNL     1      48.634   2.845   6.209  0.00  0.00    +0.000 N 
ATOM     25  C   UNL     1      47.660   1.965   6.588  0.00  0.00    +0.000 C 
ATOM     26  O   UNL     1      47.674   0.803   6.203  0.00  0.00    +0.000 OA
ATOM     27  H   UNL     1      49.397   2.453   5.671  0.00  0.00    +0.000 HD
ATOM     28  H   UNL     1      48.808   3.710   6.700  0.00  0.00    +0.000 HD
ENDBRANCH  18  25
ENDBRANCH  17  21
ENDBRANCH  16  17
ENDBRANCH   1  16
TORSDOF 7
ENDMDL
MODEL 5
REMARK VINA RESULT:    -7.066      2.074      8.231
REMARK INTER + INTRA:         -11.046
REMARK INTER:                 -10.386
REMARK INTRA:                  -0.660
REMARK UNBOUND:                -1.089
REMARK  Name = 
REMARK  7 active torsions:
REMARK  status: ('A' for Active; 'I' for Inactive)
REMARK    1  A    between atoms: C_2  and  C_4
REMARK    2  A    between atoms: C_7  and  O_8
REMARK    3  A    between atoms: O_8  and  C_9
REMARK    4  A    between atoms: C_9  and  C_10
REMARK    5  A    between atoms: C_10  and  C_13
REMARK    6  A    between atoms: C_17  and  O_18
REMARK    7  A    between atoms: O_18  and  C_19
REMARK                            x       y       z     vdW  Elec       q    Type
REMARK                         _______ _______ _______ _____ _____    ______ ____
ROOT
ATOM      1  C   UNL     1      45.566   5.971  11.438  0.00  0.00    +0.000 C 
ATOM      2  F   UNL     1      44.512   6.832  11.568  0.00  0.00    +0.000 F 
ATOM      3  F   UNL     1      46.589   6.726  10.938  0.00  0.00    +0.000 F 
ENDROOT
BRANCH   1   4
ATOM      4  C   UNL     1      45.226   4.805  10.524  0.00  0.00    +0.000 A 
ATOM      5  C   UNL     1      44.409   3.757  10.972  0.00  0.00    +0.000 A 
ATOM      6  C   UNL     1      44.104   2.686  10.127  0.00  0.00    +0.000 A 
ATOM      7  C   UNL     1      44.615   2.646   8.826  0.00  0.00    +0.000 A 
ATOM      8  C   UNL     1      45.438   3.673   8.374  0.00  0.00    +0.000 A 
ATOM      9  C   UNL     1      45.737   4.747   9.218  0.00  0.00    +0.000 A 
BRANCH   8  10
ATOM     10  O   UNL     1      45.973   3.756   7.114  0.00  0.00    +0.000 OA
BRANCH  10  11
ATOM     11  C   UNL     1      46.474   2.555   6.476  0.00  0.00    +0.000 C 
ATOM     12  C   UNL     1      47.841   2.014   6.935  0.00  0.00    +0.000 C 
ATOM     13  N   UNL     1      48.329   2.018   5.548  0.00  0.00    +0.000 NA
ATOM     14  C   UNL     1      47.155   2.788   5.113  0.00  0.00    +0.000 C 
ATOM     15  H   UNL     1      48.402   1.095   5.124  0.00  0.00    +0.000 HD
ENDBRANCH  10  11
ENDBRANCH   8  10
ENDBRANCH   1   4
BRANCH   1  16
ATOM     16  C   UNL     1      45.961   5.464  12.831  0.00  0.00    +0.000 C 
BRANCH  16  17
ATOM     17  O   UNL     1      47.286   5.902  13.192  0.00  0.00    +0.000 OA
BRANCH  17  21
ATOM     18  C   UNL     1      48.273   4.694  17.006  0.00  0.00    +0.000 A 
ATOM     19  C   UNL     1      47.309   3.983  16.287  0.00  0.00    +0.000 A 
ATOM     20  C   UNL     1      46.975   4.403  14.996  0.00  0.00    +0.000 A 
ATOM     21  C   UNL     1      47.622   5.515  14.473  0.00  0.00    +0.000 A 
ATOM     22  N   UNL     1      48.551   6.222  15.151  0.00  0.00    +0.000 NA
ATOM     23  C   UNL     1      48.846   5.805  16.405  0.00  0.00    +0.000 A 
BRANCH  18  25
ATOM     24  N   UNL     1      48.287   3.143  18.877  0.00  0.00    +0.000 N 
ATOM     25  C   UNL     1      48.704   4.342  18.374  0.00  0.00    +0.000 C 
ATOM     26  O   UNL     1      49.446   5.073  19.017  0.00  0.00    +0.000 OA
ATOM     27  H   UNL     1      48.697   2.869  19.762  0.00  0.00    +0.000 HD
ATOM     28  H   UNL     1      47.907   2.410  18.294  0.00  0.00    +0.000 HD
ENDBRANCH  18  25
ENDBRANCH  17  21
ENDBRANCH  16  17
ENDBRANCH   1  16
TORSDOF 7
ENDMDL
MODEL 6
REMARK VINA RESULT:    -6.974      2.704      6.895
REMARK INTER + INTRA:         -10.917
REMARK INTER:                 -10.804
REMARK INTRA:                  -0.114
REMARK UNBOUND:                -1.089
REMARK  Name = 
REMARK  7 active torsions:
REMARK  status: ('A' for Active; 'I' for Inactive)
REMARK    1  A    between atoms: C_2  and  C_4
REMARK    2  A    between atoms: C_7  and  O_8
REMARK    3  A    between atoms: O_8  and  C_9
REMARK    4  A    between atoms: C_9  and  C_10
REMARK    5  A    between atoms: C_10  and  C_13
REMARK    6  A    between atoms: C_17  and  O_18
REMARK    7  A    between atoms: O_18  and  C_19
REMARK                            x       y       z     vdW  Elec       q    Type
REMARK                         _______ _______ _______ _____ _____    ______ ____
ROOT
ATOM      1  C   UNL     1      43.509   3.395  11.463  0.00  0.00    +0.000 C 
ATOM      2  F   UNL     1      42.944   2.150  11.516  0.00  0.00    +0.000 F 
ATOM      3  F   UNL     1      42.457   4.266  11.422  0.00  0.00    +0.000 F 
ENDROOT
BRANCH   1   4
ATOM      4  C   UNL     1      44.415   3.546  10.252  0.00  0.00    +0.000 A 
ATOM      5  C   UNL     1      44.888   4.807   9.863  0.00  0.00    +0.000 A 
ATOM      6  C   UNL     1      45.718   4.938   8.746  0.00  0.00    +0.000 A 
ATOM      7  C   UNL     1      46.083   3.813   8.002  0.00  0.00    +0.000 A 
ATOM      8  C   UNL     1      45.610   2.557   8.369  0.00  0.00    +0.000 A 
ATOM      9  C   UNL     1      44.784   2.426   9.491  0.00  0.00    +0.000 A 
BRANCH   8  10
ATOM     10  O   UNL     1      45.920   1.382   7.735  0.00  0.00    +0.000 OA
BRANCH  10  11
ATOM     11  C   UNL     1      47.271   1.172   7.253  0.00  0.00    +0.000 C 
ATOM     12  C   UNL     1      48.037   2.391   6.707  0.00  0.00    +0.000 C 
ATOM     13  N   UNL     1      48.310   1.681   5.450  0.00  0.00    +0.000 NA
ATOM     14  C   UNL     1      47.362   0.619   5.817  0.00  0.00    +0.000 C 
ATOM     15  H   UNL     1      49.272   1.362   5.346  0.00  0.00    +0.000 HD
ENDBRANCH  10  11
ENDBRANCH   8  10
ENDBRANCH   1   4
BRANCH   1  16
ATOM     16  C   UNL     1      44.297   3.631  12.757  0.00  0.00    +0.000 C 
BRANCH  16  17
ATOM     17  O   UNL     1      44.133   4.983  13.231  0.00  0.00    +0.000 OA
BRANCH  17  21
ATOM     18  C   UNL     1      47.604   7.152  12.756  0.00  0.00    +0.000 A 
ATOM     19  C   UNL     1      47.680   5.796  13.087  0.00  0.00    +0.000 A 
ATOM     20  C   UNL     1      46.497   5.069  13.252  0.00  0.00    +0.000 A 
ATOM     21  C   UNL     1      45.286   5.725  13.076  0.00  0.00    +0.000 A 
ATOM     22  N   UNL     1      45.187   7.034  12.763  0.00  0.00    +0.000 NA
ATOM     23  C   UNL     1      46.346   7.721  12.623  0.00  0.00    +0.000 A 
BRANCH  18  25
ATOM     24  N   UNL     1      50.016   7.443  12.694  0.00  0.00    +0.000 N 
ATOM     25  C   UNL     1      48.784   8.016  12.555  0.00  0.00    +0.000 C 
ATOM     26  O   UNL     1      48.667   9.191  12.230  0.00  0.00    +0.000 OA
ATOM     27  H   UNL     1      50.805   8.022  12.430  0.00  0.00    +0.000 HD
ATOM     28  H   UNL     1      50.154   6.442  12.697  0.00  0.00    +0.000 HD
ENDBRANCH  18  25
ENDBRANCH  17  21
ENDBRANCH  16  17
ENDBRANCH   1  16
TORSDOF 7
ENDMDL
MODEL 7
REMARK VINA RESULT:    -6.639      3.794      6.042
REMARK INTER + INTRA:         -10.445
REMARK INTER:                  -9.956
REMARK INTRA:                  -0.489
REMARK UNBOUND:                -1.089
REMARK  Name = 
REMARK  7 active torsions:
REMARK  status: ('A' for Active; 'I' for Inactive)
REMARK    1  A    between atoms: C_2  and  C_4
REMARK    2  A    between atoms: C_7  and  O_8
REMARK    3  A    between atoms: O_8  and  C_9
REMARK    4  A    between atoms: C_9  and  C_10
REMARK    5  A    between atoms: C_10  and  C_13
REMARK    6  A    between atoms: C_17  and  O_18
REMARK    7  A    between atoms: O_18  and  C_19
REMARK                            x       y       z     vdW  Elec       q    Type
REMARK                         _______ _______ _______ _____ _____    ______ ____
ROOT
ATOM      1  C   UNL     1      48.208   2.899  16.814  0.00  0.00    +0.000 C 
ATOM      2  F   UNL     1      47.242   2.353  17.614  0.00  0.00    +0.000 F 
ATOM      3  F   UNL     1      48.760   1.843  16.144  0.00  0.00    +0.000 F 
ENDROOT
BRANCH   1   4
ATOM      4  C   UNL     1      49.246   3.656  17.627  0.00  0.00    +0.000 A 
ATOM      5  C   UNL     1      50.593   3.268  17.611  0.00  0.00    +0.000 A 
ATOM      6  C   UNL     1      51.540   3.967  18.364  0.00  0.00    +0.000 A 
ATOM      7  C   UNL     1      51.154   5.058  19.147  0.00  0.00    +0.000 A 
ATOM      8  C   UNL     1      49.818   5.445  19.182  0.00  0.00    +0.000 A 
ATOM      9  C   UNL     1      48.872   4.749  18.423  0.00  0.00    +0.000 A 
BRANCH   8  10
ATOM     10  O   UNL     1      49.326   6.513  19.889  0.00  0.00    +0.000 OA
BRANCH  10  11
ATOM     11  C   UNL     1      48.845   6.307  21.241  0.00  0.00    +0.000 C 
ATOM     12  C   UNL     1      48.827   4.867  21.785  0.00  0.00    +0.000 C 
ATOM     13  N   UNL     1      47.404   4.995  22.129  0.00  0.00    +0.000 NA
ATOM     14  C   UNL     1      47.310   6.252  21.374  0.00  0.00    +0.000 C 
ATOM     15  H   UNL     1      47.218   5.093  23.126  0.00  0.00    +0.000 HD
ENDBRANCH  10  11
ENDBRANCH   8  10
ENDBRANCH   1   4
BRANCH   1  16
ATOM     16  C   UNL     1      47.536   3.832  15.799  0.00  0.00    +0.000 C 
BRANCH  16  17
ATOM     17  O   UNL     1      47.516   3.247  14.482  0.00  0.00    +0.000 OA
BRANCH  17  21
ATOM     18  C   UNL     1      44.775   5.117  12.039  0.00  0.00    +0.000 A 
ATOM     19  C   UNL     1      45.611   5.887  12.851  0.00  0.00    +0.000 A 
ATOM     20  C   UNL     1      46.534   5.245  13.681  0.00  0.00    +0.000 A 
ATOM     21  C   UNL     1      46.588   3.857  13.664  0.00  0.00    +0.000 A 
ATOM     22  N   UNL     1      45.785   3.092  12.895  0.00  0.00    +0.000 NA
ATOM     23  C   UNL     1      44.889   3.736  12.110  0.00  0.00    +0.000 A 
BRANCH  18  25
ATOM     24  N   UNL     1      43.473   7.013  11.255  0.00  0.00    +0.000 N 
ATOM     25  C   UNL     1      43.765   5.686  11.123  0.00  0.00    +0.000 C 
ATOM     26  O   UNL     1      43.243   5.007  10.248  0.00  0.00    +0.000 OA
ATOM     27  H   UNL     1      42.874   7.407  10.538  0.00  0.00    +0.000 HD
ATOM     28  H   UNL     1      44.061   7.652  11.771  0.00  0.00    +0.000 HD
ENDBRANCH  18  25
ENDBRANCH  17  21
ENDBRANCH  16  17
ENDBRANCH   1  16
TORSDOF 7
ENDMDL
MODEL 8
REMARK VINA RESULT:    -6.409      3.647      7.650
REMARK INTER + INTRA:         -10.121
REMARK INTER:                  -9.167
REMARK INTRA:                  -0.953
REMARK UNBOUND:                -1.089
REMARK  Name = 
REMARK  7 active torsions:
REMARK  status: ('A' for Active; 'I' for Inactive)
REMARK    1  A    between atoms: C_2  and  C_4
REMARK    2  A    between atoms: C_7  and  O_8
REMARK    3  A    between atoms: O_8  and  C_9
REMARK    4  A    between atoms: C_9  and  C_10
REMARK    5  A    between atoms: C_10  and  C_13
REMARK    6  A    between atoms: C_17  and  O_18
REMARK    7  A    between atoms: O_18  and  C_19
REMARK                            x       y       z     vdW  Elec       q    Type
REMARK                         _______ _______ _______ _____ _____    ______ ____
ROOT
ATOM      1  C   UNL     1      48.964   8.085  12.124  0.00  0.00    +0.000 C 
ATOM      2  F   UNL     1      49.335   9.378  12.368  0.00  0.00    +0.000 F 
ATOM      3  F   UNL     1      49.590   7.745  10.958  0.00  0.00    +0.000 F 
ENDROOT
BRANCH   1   4
ATOM      4  C   UNL     1      47.455   7.946  12.016  0.00  0.00    +0.000 A 
ATOM      5  C   UNL     1      46.605   8.952  12.498  0.00  0.00    +0.000 A 
ATOM      6  C   UNL     1      45.218   8.815  12.399  0.00  0.00    +0.000 A 
ATOM      7  C   UNL     1      44.661   7.670  11.821  0.00  0.00    +0.000 A 
ATOM      8  C   UNL     1      45.493   6.659  11.351  0.00  0.00    +0.000 A 
ATOM      9  C   UNL     1      46.881   6.799  11.445  0.00  0.00    +0.000 A 
BRANCH   8  10
ATOM     10  O   UNL     1      45.065   5.506  10.742  0.00  0.00    +0.000 OA
BRANCH  10  11
ATOM     11  C   UNL     1      44.596   4.405  11.560  0.00  0.00    +0.000 C 
ATOM     12  C   UNL     1      44.321   3.059  10.864  0.00  0.00    +0.000 C 
ATOM     13  N   UNL     1      42.960   3.030  11.418  0.00  0.00    +0.000 NA
ATOM     14  C   UNL     1      43.085   4.426  11.860  0.00  0.00    +0.000 C 
ATOM     15  H   UNL     1      42.828   2.363  12.177  0.00  0.00    +0.000 HD
ENDBRANCH  10  11
ENDBRANCH   8  10
ENDBRANCH   1   4
BRANCH   1  16
ATOM     16  C   UNL     1      49.506   7.198  13.252  0.00  0.00    +0.000 C 
BRANCH  16  17
ATOM     17  O   UNL     1      49.061   7.662  14.543  0.00  0.00    +0.000 OA
BRANCH  17  21
ATOM     18  C   UNL     1      47.920   4.578  17.026  0.00  0.00    +0.000 A 
ATOM     19  C   UNL     1      48.622   5.664  17.556  0.00  0.00    +0.000 A 
ATOM     20  C   UNL     1      49.011   6.703  16.705  0.00  0.00    +0.000 A 
ATOM     21  C   UNL     1      48.678   6.618  15.360  0.00  0.00    +0.000 A 
ATOM     22  N   UNL     1      48.008   5.577  14.824  0.00  0.00    +0.000 NA
ATOM     23  C   UNL     1      47.655   4.576  15.664  0.00  0.00    +0.000 A 
BRANCH  18  25
ATOM     24  N   UNL     1      48.211   3.071  18.910  0.00  0.00    +0.000 N 
ATOM     25  C   UNL     1      47.459   3.427  17.828  0.00  0.00    +0.000 C 
ATOM     26  O   UNL     1      46.416   2.842  17.563  0.00  0.00    +0.000 OA
ATOM     27  H   UNL     1      47.810   2.363  19.514  0.00  0.00    +0.000 HD
ATOM     28  H   UNL     1      48.913   3.679  19.310  0.00  0.00    +0.000 HD
ENDBRANCH  18  25
ENDBRANCH  17  21
ENDBRANCH  16  17
ENDBRANCH   1  16
TORSDOF 7
ENDMDL
MODEL 9
REMARK VINA RESULT:    -6.397      3.195      4.638
REMARK INTER + INTRA:         -10.103
REMARK INTER:                  -9.090
REMARK INTRA:                  -1.013
REMARK UNBOUND:                -1.089
REMARK  Name = 
REMARK  7 active torsions:
REMARK  status: ('A' for Active; 'I' for Inactive)
REMARK    1  A    between atoms: C_2  and  C_4
REMARK    2  A    between atoms: C_7  and  O_8
REMARK    3  A    between atoms: O_8  and  C_9
REMARK    4  A    between atoms: C_9  and  C_10
REMARK    5  A    between atoms: C_10  and  C_13
REMARK    6  A    between atoms: C_17  and  O_18
REMARK    7  A    between atoms: O_18  and  C_19
REMARK                            x       y       z     vdW  Elec       q    Type
REMARK                         _______ _______ _______ _____ _____    ______ ____
ROOT
ATOM      1  C   UNL     1      48.355   8.083  12.443  0.00  0.00    +0.000 C 
ATOM      2  F   UNL     1      48.731   6.952  11.774  0.00  0.00    +0.000 F 
ATOM      3  F   UNL     1      49.116   9.086  11.910  0.00  0.00    +0.000 F 
ENDROOT
BRANCH   1   4
ATOM      4  C   UNL     1      48.571   7.945  13.941  0.00  0.00    +0.000 A 
ATOM      5  C   UNL     1      48.655   9.079  14.762  0.00  0.00    +0.000 A 
ATOM      6  C   UNL     1      48.858   8.944  16.138  0.00  0.00    +0.000 A 
ATOM      7  C   UNL     1      48.984   7.676  16.712  0.00  0.00    +0.000 A 
ATOM      8  C   UNL     1      48.916   6.543  15.907  0.00  0.00    +0.000 A 
ATOM      9  C   UNL     1      48.707   6.679  14.530  0.00  0.00    +0.000 A 
BRANCH   8  10
ATOM     10  O   UNL     1      48.998   5.250  16.358  0.00  0.00    +0.000 OA
BRANCH  10  11
ATOM     11  C   UNL     1      47.807   4.424  16.361  0.00  0.00    +0.000 C 
ATOM     12  C   UNL     1      46.947   4.409  17.639  0.00  0.00    +0.000 C 
ATOM     13  N   UNL     1      47.021   2.942  17.693  0.00  0.00    +0.000 NA
ATOM     14  C   UNL     1      48.061   2.932  16.655  0.00  0.00    +0.000 C 
ATOM     15  H   UNL     1      46.161   2.466  17.425  0.00  0.00    +0.000 HD
ENDBRANCH  10  11
ENDBRANCH   8  10
ENDBRANCH   1   4
BRANCH   1  16
ATOM     16  C   UNL     1      46.879   8.367  12.137  0.00  0.00    +0.000 C 
BRANCH  16  17
ATOM     17  O   UNL     1      46.011   7.689  13.067  0.00  0.00    +0.000 OA
BRANCH  17  21
ATOM     18  C   UNL     1      44.513   4.217  11.430  0.00  0.00    +0.000 A 
ATOM     19  C   UNL     1      44.907   5.260  10.588  0.00  0.00    +0.000 A 
ATOM     20  C   UNL     1      45.409   6.437  11.152  0.00  0.00    +0.000 A 
ATOM     21  C   UNL     1      45.501   6.522  12.535  0.00  0.00    +0.000 A 
ATOM     22  N   UNL     1      45.119   5.532  13.369  0.00  0.00    +0.000 NA
ATOM     23  C   UNL     1      44.623   4.408  12.800  0.00  0.00    +0.000 A 
BRANCH  18  25
ATOM     24  N   UNL     1      44.557   2.374   9.847  0.00  0.00    +0.000 N 
ATOM     25  C   UNL     1      43.971   2.930  10.947  0.00  0.00    +0.000 C 
ATOM     26  O   UNL     1      43.062   2.360  11.537  0.00  0.00    +0.000 OA
ATOM     27  H   UNL     1      44.253   1.436   9.611  0.00  0.00    +0.000 HD
ATOM     28  H   UNL     1      45.459   2.670   9.501  0.00  0.00    +0.000 HD
ENDBRANCH  18  25
ENDBRANCH  17  21
ENDBRANCH  16  17
ENDBRANCH   1  16
TORSDOF 7
ENDMDL
