MODEL 1
REMARK VINA RESULT:    -7.634      0.000      0.000
REMARK INTER + INTRA:          -9.847
REMARK INTER:                  -9.420
REMARK INTRA:                  -0.427
REMARK UNBOUND:                -0.427
REMARK  Name = 
REMARK  4 active torsions:
REMARK  status: ('A' for Active; 'I' for Inactive)
REMARK    1  A    between atoms: C_5  and  O_6
REMARK    2  A    between atoms: O_6  and  C_7
REMARK    3  A    between atoms: C_7  and  C_8
REMARK    4  A    between atoms: C_12  and  C_13
REMARK                            x       y       z     vdW  Elec       q    Type
REMARK                         _______ _______ _______ _____ _____    ______ ____
ROOT
ATOM      1  C   UNL     1      45.366   5.133  12.104  0.00  0.00    +0.000 A 
ATOM      2  C   UNL     1      46.114   6.231  11.644  0.00  0.00    +0.000 A 
ATOM      3  C   UNL     1      47.259   6.659  12.311  0.00  0.00    +0.000 A 
ATOM      4  C   UNL     1      47.669   6.005  13.470  0.00  0.00    +0.000 A 
ATOM      5  C   UNL     1      46.975   4.883  13.955  0.00  0.00    +0.000 A 
ATOM      6  C   UNL     1      45.855   4.443  13.226  0.00  0.00    +0.000 A 
ENDROOT
BRANCH   5   7
ATOM      7  C   UNL     1      47.344   4.264  15.234  0.00  0.00    +0.000 A 
ATOM      8  C   UNL     1      47.382   4.967  16.428  0.00  0.00    +0.000 A 
ATOM      9  C   UNL     1      47.849   4.284  17.527  0.00  0.00    +0.000 A 
ATOM     10  N   UNL     1      48.250   3.003  17.490  0.00  0.00    +0.000 NA
ATOM     11  C   UNL     1      48.163   2.404  16.294  0.00  0.00    +0.000 A 
ATOM     12  N   UNL     1      47.721   2.968  15.161  0.00  0.00    +0.000 NA
ENDBRANCH   5   7
BRANCH   1  13
ATOM     13  C   UNL     1      44.025   4.788  11.475  0.00  0.00    +0.000 C 
ATOM     14  C   UNL     1      42.721   5.143  12.187  0.00  0.00    +0.000 C 
ATOM     15  C   UNL     1      43.171   5.971  11.035  0.00  0.00    +0.000 C 
BRANCH  13  16
ATOM     16  O   UNL     1      43.926   3.507  10.802  0.00  0.00    +0.000 OA
BRANCH  16  21
ATOM     17 CL   UNL     1      46.984   2.435   6.025  0.00  0.00    +0.000 Cl
ATOM     18  C   UNL     1      46.187   2.780   7.496  0.00  0.00    +0.000 A 
ATOM     19  C   UNL     1      45.812   4.056   7.839  0.00  0.00    +0.000 A 
ATOM     20  N   UNL     1      45.123   4.350   8.957  0.00  0.00    +0.000 NA
ATOM     21  C   UNL     1      44.793   3.310   9.747  0.00  0.00    +0.000 A 
ATOM     22  N   UNL     1      45.153   2.034   9.535  0.00  0.00    +0.000 NA
ATOM     23  C   UNL     1      45.848   1.799   8.401  0.00  0.00    +0.000 A 
ENDBRANCH  16  21
ENDBRANCH  13  16
ENDBRANCH   1  13
TORSDOF 4
ENDMDL
MODEL 2
REMARK VINA RESULT:    -6.994      2.183      3.535
REMARK INTER + INTRA:          -9.057
REMARK INTER:                  -8.424
REMARK INTRA:                  -0.633
REMARK UNBOUND:                -0.427
REMARK  Name = 
REMARK  4 active torsions:
REMARK  status: ('A' for Active; 'I' for Inactive)
REMARK    1  A    between atoms: C_5  and  O_6
REMARK    2  A    between atoms: O_6  and  C_7
REMARK    3  A    between atoms: C_7  and  C_8
REMARK    4  A    between atoms: C_12  and  C_13
REMARK                            x       y       z     vdW  Elec       q    Type
REMARK                         _______ _______ _______ _____ _____    ______ ____
ROOT
ATOM      1  C   UNL     1      45.064   4.940  12.252  0.00  0.00    +0.000 A 
ATOM      2  C   UNL     1      45.533   3.884  13.053  0.00  0.00    +0.000 A 
ATOM      3  C   UNL     1      46.773   3.946  13.683  0.00  0.00    +0.000 A 
ATOM      4  C   UNL     1      47.582   5.065  13.506  0.00  0.00    +0.000 A 
ATOM      5  C   UNL     1      47.149   6.162  12.741  0.00  0.00    +0.000 A 
ATOM      6  C   UNL     1      45.867   6.089  12.164  0.00  0.00    +0.000 A 
ENDROOT
BRANCH   5   7
ATOM      7  C   UNL     1      48.046   7.291  12.467  0.00  0.00    +0.000 A 
ATOM      8  C   UNL     1      47.588   8.542  12.089  0.00  0.00    +0.000 A 
ATOM      9  C   UNL     1      48.548   9.473  11.760  0.00  0.00    +0.000 A 
ATOM     10  N   UNL     1      49.867   9.224  11.797  0.00  0.00    +0.000 NA
ATOM     11  C   UNL     1      50.211   7.989  12.188  0.00  0.00    +0.000 A 
ATOM     12  N   UNL     1      49.367   7.008  12.534  0.00  0.00    +0.000 NA
ENDBRANCH   5   7
BRANCH   1  13
ATOM     13  C   UNL     1      43.795   4.787  11.428  0.00  0.00    +0.000 C 
ATOM     14  C   UNL     1      42.447   5.232  11.991  0.00  0.00    +0.000 C 
ATOM     15  C   UNL     1      43.131   6.082  10.979  0.00  0.00    +0.000 C 
BRANCH  13  16
ATOM     16  O   UNL     1      43.665   3.573  10.644  0.00  0.00    +0.000 OA
BRANCH  16  21
ATOM     17 CL   UNL     1      47.199   2.459   6.219  0.00  0.00    +0.000 Cl
ATOM     18  C   UNL     1      46.255   2.814   7.597  0.00  0.00    +0.000 A 
ATOM     19  C   UNL     1      45.867   4.096   7.903  0.00  0.00    +0.000 A 
ATOM     20  N   UNL     1      45.067   4.400   8.942  0.00  0.00    +0.000 NA
ATOM     21  C   UNL     1      44.636   3.364   9.688  0.00  0.00    +0.000 A 
ATOM     22  N   UNL     1      44.995   2.082   9.511  0.00  0.00    +0.000 NA
ATOM     23  C   UNL     1      45.804   1.838   8.456  0.00  0.00    +0.000 A 
ENDBRANCH  16  21
ENDBRANCH  13  16
ENDBRANCH   1  13
TORSDOF 4
ENDMDL
MODEL 3
REMARK VINA RESULT:    -6.904      3.177      7.055
REMARK INTER + INTRA:          -8.946
REMARK INTER:                  -8.331
REMARK INTRA:                  -0.615
REMARK UNBOUND:                -0.427
REMARK  Name = 
REMARK  4 active torsions:
REMARK  status: ('A' for Active; 'I' for Inactive)
REMARK    1  A    between atoms: C_5  and  O_6
REMARK    2  A    between atoms: O_6  and  C_7
REMARK    3  A    between atoms: C_7  and  C_8
REMARK    4  A    between atoms: C_12  and  C_13
REMARK                            x       y       z     vdW  Elec       q    Type
REMARK                         _______ _______ _______ _____ _____    ______ ____
ROOT
ATOM      1  C   UNL     1      45.478   6.219  11.807  0.00  0.00    +0.000 A 
ATOM      2  C   UNL     1      44.095   6.394  11.993  0.00  0.00    +0.000 A 
ATOM      3  C   UNL     1      43.166   5.662  11.258  0.00  0.00    +0.000 A 
ATOM      4  C   UNL     1      43.605   4.751  10.302  0.00  0.00    +0.000 A 
ATOM      5  C   UNL     1      44.976   4.515  10.097  0.00  0.00    +0.000 A 
ATOM      6  C   UNL     1      45.887   5.231  10.896  0.00  0.00    +0.000 A 
ENDROOT
BRANCH   5   7
ATOM      7  C   UNL     1      45.436   3.637   9.015  0.00  0.00    +0.000 A 
ATOM      8  C   UNL     1      45.456   2.256   9.123  0.00  0.00    +0.000 A 
ATOM      9  C   UNL     1      46.014   1.567   8.070  0.00  0.00    +0.000 A 
ATOM     10  N   UNL     1      46.516   2.161   6.976  0.00  0.00    +0.000 NA
ATOM     11  C   UNL     1      46.439   3.499   6.959  0.00  0.00    +0.000 A 
ATOM     12  N   UNL     1      45.915   4.271   7.921  0.00  0.00    +0.000 NA
ENDBRANCH   5   7
BRANCH   1  13
ATOM     13  C   UNL     1      46.476   7.147  12.482  0.00  0.00    +0.000 C 
ATOM     14  C   UNL     1      46.669   8.577  11.979  0.00  0.00    +0.000 C 
ATOM     15  C   UNL     1      45.884   8.340  13.221  0.00  0.00    +0.000 C 
BRANCH  13  16
ATOM     16  O   UNL     1      47.735   6.562  12.902  0.00  0.00    +0.000 OA
BRANCH  16  21
ATOM     17 CL   UNL     1      48.391   4.051  18.058  0.00  0.00    +0.000 Cl
ATOM     18  C   UNL     1      48.102   4.860  16.582  0.00  0.00    +0.000 A 
ATOM     19  C   UNL     1      48.657   6.085  16.302  0.00  0.00    +0.000 A 
ATOM     20  N   UNL     1      48.505   6.715  15.123  0.00  0.00    +0.000 NA
ATOM     21  C   UNL     1      47.774   6.073  14.191  0.00  0.00    +0.000 A 
ATOM     22  N   UNL     1      47.144   4.901  14.376  0.00  0.00    +0.000 NA
ATOM     23  C   UNL     1      47.328   4.318  15.581  0.00  0.00    +0.000 A 
ENDBRANCH  16  21
ENDBRANCH  13  16
ENDBRANCH   1  13
TORSDOF 4
ENDMDL
MODEL 4
REMARK VINA RESULT:    -6.666      4.265      7.019
REMARK INTER + INTRA:          -8.652
REMARK INTER:                  -8.080
REMARK INTRA:                  -0.572
REMARK UNBOUND:                -0.427
REMARK  Name = 
REMARK  4 active torsions:
REMARK  status: ('A' for Active; 'I' for Inactive)
REMARK    1  A    between atoms: C_5  and  O_6
REMARK    2  A    between atoms: O_6  and  C_7
REMARK    3  A    between atoms: C_7  and  C_8
REMARK    4  A    between atoms: C_12  and  C_13
REMARK                            x       y       z     vdW  Elec       q    Type
REMARK                         _______ _______ _______ _____ _____    ______ ____
ROOT
ATOM      1  C   UNL     1      45.107   6.347  11.889  0.00  0.00    +0.000 A 
ATOM      2  C   UNL     1      43.761   6.166  12.253  0.00  0.00    +0.000 A 
ATOM      3  C   UNL     1      42.971   5.190  11.651  0.00  0.00    +0.000 A 
ATOM      4  C   UNL     1      43.511   4.385  10.652  0.00  0.00    +0.000 A 
ATOM      5  C   UNL     1      44.859   4.502  10.272  0.00  0.00    +0.000 A 
ATOM      6  C   UNL     1      45.643   5.461  10.939  0.00  0.00    +0.000 A 
ENDROOT
BRANCH   5   7
ATOM      7  C   UNL     1      45.394   3.729   9.145  0.00  0.00    +0.000 A 
ATOM      8  C   UNL     1      45.432   2.344   9.132  0.00  0.00    +0.000 A 
ATOM      9  C   UNL     1      46.059   1.757   8.057  0.00  0.00    +0.000 A 
ATOM     10  N   UNL     1      46.612   2.452   7.050  0.00  0.00    +0.000 NA
ATOM     11  C   UNL     1      46.513   3.786   7.146  0.00  0.00    +0.000 A 
ATOM     12  N   UNL     1      45.923   4.463   8.140  0.00  0.00    +0.000 NA
ENDBRANCH   5   7
BRANCH   1  13
ATOM     13  C   UNL     1      45.904   7.527  12.420  0.00  0.00    +0.000 C 
ATOM     14  C   UNL     1      47.139   7.300  13.292  0.00  0.00    +0.000 C 
ATOM     15  C   UNL     1      47.315   7.684  11.865  0.00  0.00    +0.000 C 
BRANCH  13  16
ATOM     16  O   UNL     1      45.149   8.682  12.868  0.00  0.00    +0.000 OA
BRANCH  16  21
ATOM     17 CL   UNL     1      44.751  12.486   8.545  0.00  0.00    +0.000 Cl
ATOM     18  C   UNL     1      44.781  11.427   9.885  0.00  0.00    +0.000 A 
ATOM     19  C   UNL     1      43.903  10.377  10.003  0.00  0.00    +0.000 A 
ATOM     20  N   UNL     1      43.945   9.485  11.009  0.00  0.00    +0.000 NA
ATOM     21  C   UNL     1      44.921   9.659  11.921  0.00  0.00    +0.000 A 
ATOM     22  N   UNL     1      45.797  10.677  11.932  0.00  0.00    +0.000 NA
ATOM     23  C   UNL     1      45.703  11.544  10.900  0.00  0.00    +0.000 A 
ENDBRANCH  16  21
ENDBRANCH  13  16
ENDBRANCH   1  13
TORSDOF 4
ENDMDL
MODEL 5
REMARK VINA RESULT:    -6.504      3.608      7.310
REMARK INTER + INTRA:          -8.452
REMARK INTER:                  -7.732
REMARK INTRA:                  -0.720
REMARK UNBOUND:                -0.427
REMARK  Name = 
REMARK  4 active torsions:
REMARK  status: ('A' for Active; 'I' for Inactive)
REMARK    1  A    between atoms: C_5  and  O_6
REMARK    2  A    between atoms: O_6  and  C_7
REMARK    3  A    between atoms: C_7  and  C_8
REMARK    4  A    between atoms: C_12  and  C_13
REMARK                            x       y       z     vdW  Elec       q    Type
REMARK                         _______ _______ _______ _____ _____    ______ ____
ROOT
ATOM      1  C   UNL     1      47.076   7.367  12.383  0.00  0.00    +0.000 A 
ATOM      2  C   UNL     1      46.080   8.334  12.604  0.00  0.00    +0.000 A 
ATOM      3  C   UNL     1      44.790   8.175  12.101  0.00  0.00    +0.000 A 
ATOM      4  C   UNL     1      44.478   7.049  11.346  0.00  0.00    +0.000 A 
ATOM      5  C   UNL     1      45.427   6.037  11.121  0.00  0.00    +0.000 A 
ATOM      6  C   UNL     1      46.704   6.202  11.690  0.00  0.00    +0.000 A 
ENDROOT
BRANCH   5   7
ATOM      7  C   UNL     1      45.128   4.906  10.234  0.00  0.00    +0.000 A 
ATOM      8  C   UNL     1      44.473   3.764  10.666  0.00  0.00    +0.000 A 
ATOM      9  C   UNL     1      44.357   2.741   9.751  0.00  0.00    +0.000 A 
ATOM     10  N   UNL     1      44.832   2.808   8.498  0.00  0.00    +0.000 NA
ATOM     11  C   UNL     1      45.439   3.959   8.171  0.00  0.00    +0.000 A 
ATOM     12  N   UNL     1      45.604   5.019   8.974  0.00  0.00    +0.000 NA
ENDBRANCH   5   7
BRANCH   1  13
ATOM     13  C   UNL     1      48.519   7.633  12.780  0.00  0.00    +0.000 C 
ATOM     14  C   UNL     1      49.468   8.348  11.819  0.00  0.00    +0.000 C 
ATOM     15  C   UNL     1      48.899   9.097  12.972  0.00  0.00    +0.000 C 
BRANCH  13  16
ATOM     16  O   UNL     1      49.203   6.585  13.513  0.00  0.00    +0.000 OA
BRANCH  16  21
ATOM     17 CL   UNL     1      47.915   5.199  18.966  0.00  0.00    +0.000 Cl
ATOM     18  C   UNL     1      48.192   5.679  17.351  0.00  0.00    +0.000 A 
ATOM     19  C   UNL     1      48.840   6.849  17.039  0.00  0.00    +0.000 A 
ATOM     20  N   UNL     1      49.134   7.221  15.780  0.00  0.00    +0.000 NA
ATOM     21  C   UNL     1      48.768   6.368  14.804  0.00  0.00    +0.000 A 
ATOM     22  N   UNL     1      48.085   5.227  14.990  0.00  0.00    +0.000 NA
ATOM     23  C   UNL     1      47.813   4.908  16.275  0.00  0.00    +0.000 A 
ENDBRANCH  16  21
ENDBRANCH  13  16
ENDBRANCH   1  13
TORSDOF 4
ENDMDL
MODEL 6
REMARK VINA RESULT:    -6.384      4.134      7.382
REMARK INTER + INTRA:          -8.305
REMARK INTER:                  -7.519
REMARK INTRA:                  -0.786
REMARK UNBOUND:                -0.427
REMARK  Name = 
REMARK  4 active torsions:
REMARK  status: ('A' for Active; 'I' for Inactive)
REMARK    1  A    between atoms: C_5  and  O_6
REMARK    2  A    between atoms: O_6  and  C_7
REMARK    3  A    between atoms: C_7  and  C_8
REMARK    4  A    between atoms: C_12  and  C_13
REMARK                            x       y       z     vdW  Elec       q    Type
REMARK                         _______ _______ _______ _____ _____    ______ ____
ROOT
ATOM      1  C   UNL     1      47.531   7.561  12.653  0.00  0.00    +0.000 A 
ATOM      2  C   UNL     1      46.723   8.707  12.755  0.00  0.00    +0.000 A 
ATOM      3  C   UNL     1      45.350   8.648  12.534  0.00  0.00    +0.000 A 
ATOM      4  C   UNL     1      44.758   7.437  12.185  0.00  0.00    +0.000 A 
ATOM      5  C   UNL     1      45.514   6.256  12.100  0.00  0.00    +0.000 A 
ATOM      6  C   UNL     1      46.890   6.340  12.384  0.00  0.00    +0.000 A 
ENDROOT
BRANCH   5   7
ATOM      7  C   UNL     1      44.909   5.005  11.626  0.00  0.00    +0.000 A 
ATOM      8  C   UNL     1      44.959   4.598  10.303  0.00  0.00    +0.000 A 
ATOM      9  C   UNL     1      44.255   3.459   9.985  0.00  0.00    +0.000 A 
ATOM     10  N   UNL     1      43.551   2.747  10.879  0.00  0.00    +0.000 NA
ATOM     11  C   UNL     1      43.574   3.213  12.136  0.00  0.00    +0.000 A 
ATOM     12  N   UNL     1      44.226   4.305  12.560  0.00  0.00    +0.000 NA
ENDBRANCH   5   7
BRANCH   1  13
ATOM     13  C   UNL     1      49.047   7.670  12.719  0.00  0.00    +0.000 C 
ATOM     14  C   UNL     1      49.876   7.731  11.437  0.00  0.00    +0.000 C 
ATOM     15  C   UNL     1      49.644   8.979  12.215  0.00  0.00    +0.000 C 
BRANCH  13  16
ATOM     16  O   UNL     1      49.717   6.893  13.744  0.00  0.00    +0.000 OA
BRANCH  16  21
ATOM     17 CL   UNL     1      48.331   7.255  19.335  0.00  0.00    +0.000 Cl
ATOM     18  C   UNL     1      48.623   7.181  17.654  0.00  0.00    +0.000 A 
ATOM     19  C   UNL     1      48.972   8.292  16.926  0.00  0.00    +0.000 A 
ATOM     20  N   UNL     1      49.275   8.254  15.616  0.00  0.00    +0.000 NA
ATOM     21  C   UNL     1      49.235   7.042  15.027  0.00  0.00    +0.000 A 
ATOM     22  N   UNL     1      48.856   5.903  15.630  0.00  0.00    +0.000 NA
ATOM     23  C   UNL     1      48.558   6.004  16.944  0.00  0.00    +0.000 A 
ENDBRANCH  16  21
ENDBRANCH  13  16
ENDBRANCH   1  13
TORSDOF 4
ENDMDL
MODEL 7
REMARK VINA RESULT:    -6.075      4.196      6.559
REMARK INTER + INTRA:          -7.923
REMARK INTER:                  -7.311
REMARK INTRA:                  -0.612
REMARK UNBOUND:                -0.427
REMARK  Name = 
REMARK  4 active torsions:
REMARK  status: ('A' for Active; 'I' for Inactive)
REMARK    1  A    between atoms: C_5  and  O_6
REMARK    2  A    between atoms: O_6  and  C_7
REMARK    3  A    between atoms: C_7  and  C_8
REMARK    4  A    between atoms: C_12  and  C_13
REMARK                            x       y       z     vdW  Elec       q    Type
REMARK                         _______ _______ _______ _____ _____    ______ ____
ROOT
ATOM      1  C   UNL     1      47.901   6.975  13.217  0.00  0.00    +0.000 A 
ATOM      2  C   UNL     1      48.227   6.513  14.505  0.00  0.00    +0.000 A 
ATOM      3  C   UNL     1      47.656   5.355  15.026  0.00  0.00    +0.000 A 
ATOM      4  C   UNL     1      46.726   4.644  14.272  0.00  0.00    +0.000 A 
ATOM      5  C   UNL     1      46.388   5.044  12.968  0.00  0.00    +0.000 A 
ATOM      6  C   UNL     1      47.026   6.188  12.451  0.00  0.00    +0.000 A 
ENDROOT
BRANCH   5   7
ATOM      7  C   UNL     1      45.329   4.357  12.219  0.00  0.00    +0.000 A 
ATOM      8  C   UNL     1      44.993   4.686  10.916  0.00  0.00    +0.000 A 
ATOM      9  C   UNL     1      43.909   4.030  10.379  0.00  0.00    +0.000 A 
ATOM     10  N   UNL     1      43.192   3.111  11.044  0.00  0.00    +0.000 NA
ATOM     11  C   UNL     1      43.603   2.851  12.294  0.00  0.00    +0.000 A 
ATOM     12  N   UNL     1      44.643   3.422  12.916  0.00  0.00    +0.000 NA
ENDBRANCH   5   7
BRANCH   1  13
ATOM     13  C   UNL     1      48.390   8.330  12.731  0.00  0.00    +0.000 C 
ATOM     14  C   UNL     1      49.886   8.629  12.644  0.00  0.00    +0.000 C 
ATOM     15  C   UNL     1      49.128   8.334  11.398  0.00  0.00    +0.000 C 
BRANCH  13  16
ATOM     16  O   UNL     1      47.646   9.494  13.173  0.00  0.00    +0.000 OA
BRANCH  16  21
ATOM     17 CL   UNL     1      43.456  11.903  10.017  0.00  0.00    +0.000 Cl
ATOM     18  C   UNL     1      44.728  11.124  10.849  0.00  0.00    +0.000 A 
ATOM     19  C   UNL     1      46.018  11.594  10.811  0.00  0.00    +0.000 A 
ATOM     20  N   UNL     1      47.028  11.044  11.509  0.00  0.00    +0.000 NA
ATOM     21  C   UNL     1      46.713   9.987  12.284  0.00  0.00    +0.000 A 
ATOM     22  N   UNL     1      45.500   9.415  12.355  0.00  0.00    +0.000 NA
ATOM     23  C   UNL     1      44.527  10.007  11.628  0.00  0.00    +0.000 A 
ENDBRANCH  16  21
ENDBRANCH  13  16
ENDBRANCH   1  13
TORSDOF 4
ENDMDL
MODEL 8
REMARK VINA RESULT:    -5.979      4.545      8.550
REMARK INTER + INTRA:          -7.804
REMARK INTER:                  -7.259
REMARK INTRA:                  -0.545
REMARK UNBOUND:                -0.427
REMARK  Name = 
REMARK  4 active torsions:
REMARK  status: ('A' for Active; 'I' for Inactive)
REMARK    1  A    between atoms: C_5  and  O_6
REMARK    2  A    between atoms: O_6  and  C_7
REMARK    3  A    between atoms: C_7  and  C_8
REMARK    4  A    between atoms: C_12  and  C_13
REMARK                            x       y       z     vdW  Elec       q    Type
REMARK                         _______ _______ _______ _____ _____    ______ ____
ROOT
ATOM      1  C   UNL     1      47.493   5.011  15.518  0.00  0.00    +0.000 A 
ATOM      2  C   UNL     1      48.342   6.026  15.044  0.00  0.00    +0.000 A 
ATOM      3  C   UNL     1      48.205   6.545  13.759  0.00  0.00    +0.000 A 
ATOM      4  C   UNL     1      47.222   6.041  12.912  0.00  0.00    +0.000 A 
ATOM      5  C   UNL     1      46.327   5.048  13.346  0.00  0.00    +0.000 A 
ATOM      6  C   UNL     1      46.458   4.585  14.669  0.00  0.00    +0.000 A 
ENDROOT
BRANCH   5   7
ATOM      7  C   UNL     1      45.365   4.442  12.417  0.00  0.00    +0.000 A 
ATOM      8  C   UNL     1      45.178   4.899  11.123  0.00  0.00    +0.000 A 
ATOM      9  C   UNL     1      44.166   4.303  10.403  0.00  0.00    +0.000 A 
ATOM     10  N   UNL     1      43.385   3.326  10.889  0.00  0.00    +0.000 NA
ATOM     11  C   UNL     1      43.652   2.943  12.146  0.00  0.00    +0.000 A 
ATOM     12  N   UNL     1      44.611   3.446  12.936  0.00  0.00    +0.000 NA
ENDBRANCH   5   7
BRANCH   1  13
ATOM     13  C   UNL     1      47.765   4.330  16.850  0.00  0.00    +0.000 C 
ATOM     14  C   UNL     1      48.129   2.847  16.902  0.00  0.00    +0.000 C 
ATOM     15  C   UNL     1      49.198   3.866  17.082  0.00  0.00    +0.000 C 
BRANCH  13  16
ATOM     16  O   UNL     1      46.914   4.703  17.964  0.00  0.00    +0.000 OA
BRANCH  16  21
ATOM     17 CL   UNL     1      48.510   8.567  21.944  0.00  0.00    +0.000 Cl
ATOM     18  C   UNL     1      48.158   7.419  20.730  0.00  0.00    +0.000 A 
ATOM     19  C   UNL     1      48.286   6.068  20.946  0.00  0.00    +0.000 A 
ATOM     20  N   UNL     1      47.952   5.137  20.034  0.00  0.00    +0.000 NA
ATOM     21  C   UNL     1      47.457   5.593  18.867  0.00  0.00    +0.000 A 
ATOM     22  N   UNL     1      47.340   6.888  18.531  0.00  0.00    +0.000 NA
ATOM     23  C   UNL     1      47.696   7.778  19.484  0.00  0.00    +0.000 A 
ENDBRANCH  16  21
ENDBRANCH  13  16
ENDBRANCH   1  13
TORSDOF 4
ENDMDL
MODEL 9
REMARK VINA RESULT:    -5.894      2.947      4.423
REMARK INTER + INTRA:          -7.699
REMARK INTER:                  -7.066
REMARK INTRA:                  -0.633
REMARK UNBOUND:                -0.427
REMARK  Name = 
REMARK  4 active torsions:
REMARK  status: ('A' for Active; 'I' for Inactive)
REMARK    1  A    between atoms: C_5  and  O_6
REMARK    2  A    between atoms: O_6  and  C_7
REMARK    3  A    between atoms: C_7  and  C_8
REMARK    4  A    between atoms: C_12  and  C_13
REMARK                            x       y       z     vdW  Elec       q    Type
REMARK                         _______ _______ _______ _____ _____    ______ ____
ROOT
ATOM      1  C   UNL     1      48.199   7.939  14.295  0.00  0.00    +0.000 A 
ATOM      2  C   UNL     1      48.062   9.048  15.148  0.00  0.00    +0.000 A 
ATOM      3  C   UNL     1      48.372   8.963  16.503  0.00  0.00    +0.000 A 
ATOM      4  C   UNL     1      48.808   7.754  17.037  0.00  0.00    +0.000 A 
ATOM      5  C   UNL     1      48.993   6.623  16.222  0.00  0.00    +0.000 A 
ATOM      6  C   UNL     1      48.723   6.759  14.848  0.00  0.00    +0.000 A 
ENDROOT
BRANCH   5   7
ATOM      7  C   UNL     1      49.347   5.324  16.806  0.00  0.00    +0.000 A 
ATOM      8  C   UNL     1      50.555   5.087  17.441  0.00  0.00    +0.000 A 
ATOM      9  C   UNL     1      50.793   3.793  17.844  0.00  0.00    +0.000 A 
ATOM     10  N   UNL     1      49.926   2.786  17.657  0.00  0.00    +0.000 NA
ATOM     11  C   UNL     1      48.779   3.116  17.045  0.00  0.00    +0.000 A 
ATOM     12  N   UNL     1      48.439   4.339  16.616  0.00  0.00    +0.000 NA
ENDBRANCH   5   7
BRANCH   1  13
ATOM     13  C   UNL     1      47.690   7.993  12.863  0.00  0.00    +0.000 C 
ATOM     14  C   UNL     1      48.337   8.929  11.844  0.00  0.00    +0.000 C 
ATOM     15  C   UNL     1      48.645   7.474  11.794  0.00  0.00    +0.000 C 
BRANCH  13  16
ATOM     16  O   UNL     1      46.253   7.922  12.674  0.00  0.00    +0.000 OA
BRANCH  16  21
ATOM     17 CL   UNL     1      43.518   2.979  11.486  0.00  0.00    +0.000 Cl
ATOM     18  C   UNL     1      44.434   4.385  11.804  0.00  0.00    +0.000 A 
ATOM     19  C   UNL     1      44.734   5.297  10.820  0.00  0.00    +0.000 A 
ATOM     20  N   UNL     1      45.393   6.446  11.052  0.00  0.00    +0.000 NA
ATOM     21  C   UNL     1      45.750   6.685  12.329  0.00  0.00    +0.000 A 
ATOM     22  N   UNL     1      45.556   5.841  13.356  0.00  0.00    +0.000 NA
ATOM     23  C   UNL     1      44.894   4.700  13.062  0.00  0.00    +0.000 A 
ENDBRANCH  16  21
ENDBRANCH  13  16
ENDBRANCH   1  13
TORSDOF 4
ENDMDL
