MODEL 1
REMARK VINA RESULT:    -8.205      0.000      0.000
REMARK INTER + INTRA:         -12.813
REMARK INTER:                 -11.803
REMARK INTRA:                  -1.010
REMARK UNBOUND:                -1.010
REMARK  Name = 
REMARK  8 active torsions:
REMARK  status: ('A' for Active; 'I' for Inactive)
REMARK    1  A    between atoms: C_2  and  C_4
REMARK    2  A    between atoms: C_7  and  N_8
REMARK    3  A    between atoms: N_8  and  C_9
REMARK    4  A    between atoms: C_9  and  C_10
REMARK    5  A    between atoms: C_10  and  C_11
REMARK    6  A    between atoms: C_14  and  O_15
REMARK    7  A    between atoms: C_16  and  O_17
REMARK    8  A    between atoms: O_17  and  C_18
REMARK                            x       y       z     vdW  Elec       q    Type
REMARK                         _______ _______ _______ _____ _____    ______ ____
ROOT
ATOM      1  C   UNL     1      43.232   4.053  11.356  0.00  0.00    +0.000 C 
ENDROOT
BRANCH   1   2
ATOM      2  N   UNL     1      43.599   4.567  10.039  0.00  0.00    +0.000 N 
ATOM      3  H   UNL     1      42.817   4.848   9.449  0.00  0.00    +0.000 HD
BRANCH   2   7
ATOM      4  C   UNL     1      46.494   2.504   7.752  0.00  0.00    +0.000 A 
ATOM      5  C   UNL     1      46.408   3.892   7.658  0.00  0.00    +0.000 A 
ATOM      6  C   UNL     1      45.466   4.587   8.425  0.00  0.00    +0.000 A 
ATOM      7  C   UNL     1      44.612   3.925   9.318  0.00  0.00    +0.000 A 
ATOM      8  C   UNL     1      44.700   2.528   9.384  0.00  0.00    +0.000 A 
ATOM      9  C   UNL     1      45.627   1.820   8.607  0.00  0.00    +0.000 A 
BRANCH   4  11
ATOM     10  N   UNL     1      48.540   2.398   6.436  0.00  0.00    +0.000 N 
ATOM     11  C   UNL     1      47.455   1.727   6.928  0.00  0.00    +0.000 C 
ATOM     12  O   UNL     1      47.306   0.530   6.721  0.00  0.00    +0.000 OA
ATOM     13  H   UNL     1      49.237   1.832   5.965  0.00  0.00    +0.000 HD
ATOM     14  H   UNL     1      48.829   3.296   6.793  0.00  0.00    +0.000 HD
ENDBRANCH   4  11
ENDBRANCH   2   7
ENDBRANCH   1   2
BRANCH   1  15
ATOM     15  C   UNL     1      43.401   5.114  12.445  0.00  0.00    +0.000 C 
BRANCH  15  16
ATOM     16  C   UNL     1      44.868   5.397  12.673  0.00  0.00    +0.000 A 
ATOM     17  C   UNL     1      45.478   6.517  12.099  0.00  0.00    +0.000 A 
ATOM     18  C   UNL     1      46.817   6.806  12.370  0.00  0.00    +0.000 A 
ATOM     19  C   UNL     1      47.560   5.981  13.220  0.00  0.00    +0.000 A 
ATOM     20  C   UNL     1      46.962   4.873  13.820  0.00  0.00    +0.000 A 
ATOM     21  C   UNL     1      45.619   4.589  13.539  0.00  0.00    +0.000 A 
BRANCH  19  22
ATOM     22  O   UNL     1      48.867   6.301  13.461  0.00  0.00    +0.000 OA
ATOM     23  H   UNL     1      48.914   6.841  14.266  0.00  0.00    +0.000 HD
ENDBRANCH  19  22
BRANCH  20  24
ATOM     24  O   UNL     1      47.525   4.013  14.733  0.00  0.00    +0.000 OA
BRANCH  24  25
ATOM     25  C   UNL     1      47.348   4.233  16.148  0.00  0.00    +0.000 C 
ATOM     26  C   UNL     1      48.453   5.029  16.880  0.00  0.00    +0.000 C 
ATOM     27  C   UNL     1      48.548   3.915  17.931  0.00  0.00    +0.000 C 
ATOM     28  C   UNL     1      47.726   3.006  17.013  0.00  0.00    +0.000 C 
ENDBRANCH  24  25
ENDBRANCH  20  24
ENDBRANCH  15  16
ENDBRANCH   1  15
TORSDOF 8
ENDMDL
MODEL 2
REMARK VINA RESULT:    -7.418      1.632      3.629
REMARK INTER + INTRA:         -11.681
REMARK INTER:                 -10.737
REMARK INTRA:                  -0.944
REMARK UNBOUND:                -1.010
REMARK  Name = 
REMARK  8 active torsions:
REMARK  status: ('A' for Active; 'I' for Inactive)
REMARK    1  A    between atoms: C_2  and  C_4
REMARK    2  A    between atoms: C_7  and  N_8
REMARK    3  A    between atoms: N_8  and  C_9
REMARK    4  A    between atoms: C_9  and  C_10
REMARK    5  A    between atoms: C_10  and  C_11
REMARK    6  A    between atoms: C_14  and  O_15
REMARK    7  A    between atoms: C_16  and  O_17
REMARK    8  A    between atoms: O_17  and  C_18
REMARK                            x       y       z     vdW  Elec       q    Type
REMARK                         _______ _______ _______ _____ _____    ______ ____
ROOT
ATOM      1  C   UNL     1      43.257   3.902  11.469  0.00  0.00    +0.000 C 
ENDROOT
BRANCH   1   2
ATOM      2  N   UNL     1      43.665   4.495  10.197  0.00  0.00    +0.000 N 
ATOM      3  H   UNL     1      42.931   4.986   9.690  0.00  0.00    +0.000 HD
BRANCH   2   7
ATOM      4  C   UNL     1      46.391   2.417   7.723  0.00  0.00    +0.000 A 
ATOM      5  C   UNL     1      45.615   1.706   8.636  0.00  0.00    +0.000 A 
ATOM      6  C   UNL     1      44.695   2.381   9.447  0.00  0.00    +0.000 A 
ATOM      7  C   UNL     1      44.508   3.767   9.350  0.00  0.00    +0.000 A 
ATOM      8  C   UNL     1      45.312   4.467   8.440  0.00  0.00    +0.000 A 
ATOM      9  C   UNL     1      46.249   3.804   7.637  0.00  0.00    +0.000 A 
BRANCH   4  11
ATOM     10  N   UNL     1      48.507   2.467   6.519  0.00  0.00    +0.000 N 
ATOM     11  C   UNL     1      47.404   1.741   6.872  0.00  0.00    +0.000 C 
ATOM     12  O   UNL     1      47.278   0.574   6.525  0.00  0.00    +0.000 OA
ATOM     13  H   UNL     1      49.234   1.960   6.027  0.00  0.00    +0.000 HD
ATOM     14  H   UNL     1      48.767   3.321   6.988  0.00  0.00    +0.000 HD
ENDBRANCH   4  11
ENDBRANCH   2   7
ENDBRANCH   1   2
BRANCH   1  15
ATOM     15  C   UNL     1      43.350   4.908  12.618  0.00  0.00    +0.000 C 
BRANCH  15  16
ATOM     16  C   UNL     1      44.791   5.291  12.858  0.00  0.00    +0.000 A 
ATOM     17  C   UNL     1      45.661   4.420  13.523  0.00  0.00    +0.000 A 
ATOM     18  C   UNL     1      47.008   4.756  13.681  0.00  0.00    +0.000 A 
ATOM     19  C   UNL     1      47.500   5.963  13.174  0.00  0.00    +0.000 A 
ATOM     20  C   UNL     1      46.652   6.833  12.489  0.00  0.00    +0.000 A 
ATOM     21  C   UNL     1      45.302   6.489  12.339  0.00  0.00    +0.000 A 
BRANCH  19  22
ATOM     22  O   UNL     1      48.825   6.251  13.348  0.00  0.00    +0.000 OA
ATOM     23  H   UNL     1      49.288   5.443  13.622  0.00  0.00    +0.000 HD
ENDBRANCH  19  22
BRANCH  20  24
ATOM     24  O   UNL     1      46.990   8.010  11.867  0.00  0.00    +0.000 OA
BRANCH  24  25
ATOM     25  C   UNL     1      47.084   9.236  12.624  0.00  0.00    +0.000 C 
ATOM     26  C   UNL     1      46.704  10.545  11.894  0.00  0.00    +0.000 C 
ATOM     27  C   UNL     1      48.032  11.169  12.339  0.00  0.00    +0.000 C 
ATOM     28  C   UNL     1      48.529   9.778  12.741  0.00  0.00    +0.000 C 
ENDBRANCH  24  25
ENDBRANCH  20  24
ENDBRANCH  15  16
ENDBRANCH   1  15
TORSDOF 8
ENDMDL
MODEL 3
REMARK VINA RESULT:    -7.097      2.875      7.573
REMARK INTER + INTRA:         -11.219
REMARK INTER:                 -10.144
REMARK INTRA:                  -1.075
REMARK UNBOUND:                -1.010
REMARK  Name = 
REMARK  8 active torsions:
REMARK  status: ('A' for Active; 'I' for Inactive)
REMARK    1  A    between atoms: C_2  and  C_4
REMARK    2  A    between atoms: C_7  and  N_8
REMARK    3  A    between atoms: N_8  and  C_9
REMARK    4  A    between atoms: C_9  and  C_10
REMARK    5  A    between atoms: C_10  and  C_11
REMARK    6  A    between atoms: C_14  and  O_15
REMARK    7  A    between atoms: C_16  and  O_17
REMARK    8  A    between atoms: O_17  and  C_18
REMARK                            x       y       z     vdW  Elec       q    Type
REMARK                         _______ _______ _______ _____ _____    ______ ____
ROOT
ATOM      1  C   UNL     1      45.998   7.429  12.716  0.00  0.00    +0.000 C 
ENDROOT
BRANCH   1   2
ATOM      2  N   UNL     1      47.281   6.738  12.822  0.00  0.00    +0.000 N 
ATOM      3  H   UNL     1      47.605   6.288  11.967  0.00  0.00    +0.000 HD
BRANCH   2   7
ATOM      4  C   UNL     1      47.997   4.607  16.402  0.00  0.00    +0.000 A 
ATOM      5  C   UNL     1      47.179   4.046  15.422  0.00  0.00    +0.000 A 
ATOM      6  C   UNL     1      46.951   4.735  14.225  0.00  0.00    +0.000 A 
ATOM      7  C   UNL     1      47.549   5.976  13.965  0.00  0.00    +0.000 A 
ATOM      8  C   UNL     1      48.351   6.532  14.970  0.00  0.00    +0.000 A 
ATOM      9  C   UNL     1      48.572   5.860  16.180  0.00  0.00    +0.000 A 
BRANCH   4  11
ATOM     10  N   UNL     1      47.270   3.058  18.134  0.00  0.00    +0.000 N 
ATOM     11  C   UNL     1      48.234   3.924  17.700  0.00  0.00    +0.000 C 
ATOM     12  O   UNL     1      49.261   4.099  18.341  0.00  0.00    +0.000 OA
ATOM     13  H   UNL     1      47.494   2.524  18.967  0.00  0.00    +0.000 HD
ATOM     14  H   UNL     1      46.552   2.696  17.526  0.00  0.00    +0.000 HD
ENDBRANCH   4  11
ENDBRANCH   2   7
ENDBRANCH   1   2
BRANCH   1  15
ATOM     15  C   UNL     1      45.271   7.078  11.417  0.00  0.00    +0.000 C 
BRANCH  15  16
ATOM     16  C   UNL     1      44.684   5.689  11.507  0.00  0.00    +0.000 A 
ATOM     17  C   UNL     1      43.840   5.337  12.566  0.00  0.00    +0.000 A 
ATOM     18  C   UNL     1      43.249   4.072  12.604  0.00  0.00    +0.000 A 
ATOM     19  C   UNL     1      43.492   3.147  11.585  0.00  0.00    +0.000 A 
ATOM     20  C   UNL     1      44.313   3.488  10.509  0.00  0.00    +0.000 A 
ATOM     21  C   UNL     1      44.904   4.758  10.482  0.00  0.00    +0.000 A 
BRANCH  19  22
ATOM     22  O   UNL     1      42.892   1.921  11.660  0.00  0.00    +0.000 OA
ATOM     23  H   UNL     1      43.328   1.321  11.034  0.00  0.00    +0.000 HD
ENDBRANCH  19  22
BRANCH  20  24
ATOM     24  O   UNL     1      44.590   2.730   9.398  0.00  0.00    +0.000 OA
BRANCH  24  25
ATOM     25  C   UNL     1      45.870   2.837   8.740  0.00  0.00    +0.000 C 
ATOM     26  C   UNL     1      45.897   3.536   7.361  0.00  0.00    +0.000 C 
ATOM     27  C   UNL     1      46.655   2.337   6.777  0.00  0.00    +0.000 C 
ATOM     28  C   UNL     1      46.309   1.532   8.033  0.00  0.00    +0.000 C 
ENDBRANCH  24  25
ENDBRANCH  20  24
ENDBRANCH  15  16
ENDBRANCH   1  15
TORSDOF 8
ENDMDL
MODEL 4
REMARK VINA RESULT:    -6.892      2.013      3.568
REMARK INTER + INTRA:         -10.923
REMARK INTER:                 -10.097
REMARK INTRA:                  -0.826
REMARK UNBOUND:                -1.010
REMARK  Name = 
REMARK  8 active torsions:
REMARK  status: ('A' for Active; 'I' for Inactive)
REMARK    1  A    between atoms: C_2  and  C_4
REMARK    2  A    between atoms: C_7  and  N_8
REMARK    3  A    between atoms: N_8  and  C_9
REMARK    4  A    between atoms: C_9  and  C_10
REMARK    5  A    between atoms: C_10  and  C_11
REMARK    6  A    between atoms: C_14  and  O_15
REMARK    7  A    between atoms: C_16  and  O_17
REMARK    8  A    between atoms: O_17  and  C_18
REMARK                            x       y       z     vdW  Elec       q    Type
REMARK                         _______ _______ _______ _____ _____    ______ ____
ROOT
ATOM      1  C   UNL     1      43.992   5.234  11.294  0.00  0.00    +0.000 C 
ENDROOT
BRANCH   1   2
ATOM      2  N   UNL     1      43.674   4.894   9.909  0.00  0.00    +0.000 N 
ATOM      3  H   UNL     1      42.683   4.782   9.705  0.00  0.00    +0.000 HD
BRANCH   2   7
ATOM      4  C   UNL     1      46.262   2.155   7.993  0.00  0.00    +0.000 A 
ATOM      5  C   UNL     1      45.274   1.678   8.852  0.00  0.00    +0.000 A 
ATOM      6  C   UNL     1      44.399   2.575   9.477  0.00  0.00    +0.000 A 
ATOM      7  C   UNL     1      44.469   3.955   9.242  0.00  0.00    +0.000 A 
ATOM      8  C   UNL     1      45.483   4.417   8.391  0.00  0.00    +0.000 A 
ATOM      9  C   UNL     1      46.375   3.530   7.774  0.00  0.00    +0.000 A 
BRANCH   4  11
ATOM     10  N   UNL     1      46.996  -0.103   7.451  0.00  0.00    +0.000 N 
ATOM     11  C   UNL     1      47.232   1.239   7.340  0.00  0.00    +0.000 C 
ATOM     12  O   UNL     1      48.186   1.661   6.699  0.00  0.00    +0.000 OA
ATOM     13  H   UNL     1      47.606  -0.708   6.914  0.00  0.00    +0.000 HD
ATOM     14  H   UNL     1      46.103  -0.474   7.739  0.00  0.00    +0.000 HD
ENDBRANCH   4  11
ENDBRANCH   2   7
ENDBRANCH   1   2
BRANCH   1  15
ATOM     15  C   UNL     1      44.827   6.512  11.387  0.00  0.00    +0.000 C 
BRANCH  15  16
ATOM     16  C   UNL     1      45.887   6.365  12.453  0.00  0.00    +0.000 A 
ATOM     17  C   UNL     1      45.966   5.204  13.228  0.00  0.00    +0.000 A 
ATOM     18  C   UNL     1      46.990   5.050  14.166  0.00  0.00    +0.000 A 
ATOM     19  C   UNL     1      47.949   6.054  14.335  0.00  0.00    +0.000 A 
ATOM     20  C   UNL     1      47.900   7.210  13.555  0.00  0.00    +0.000 A 
ATOM     21  C   UNL     1      46.866   7.356  12.621  0.00  0.00    +0.000 A 
BRANCH  19  22
ATOM     22  O   UNL     1      48.936   5.863  15.261  0.00  0.00    +0.000 OA
ATOM     23  H   UNL     1      49.790   5.812  14.803  0.00  0.00    +0.000 HD
ENDBRANCH  19  22
BRANCH  20  24
ATOM     24  O   UNL     1      48.801   8.247  13.543  0.00  0.00    +0.000 OA
BRANCH  24  25
ATOM     25  C   UNL     1      50.116   8.065  12.977  0.00  0.00    +0.000 C 
ATOM     26  C   UNL     1      50.888   9.340  12.567  0.00  0.00    +0.000 C 
ATOM     27  C   UNL     1      51.141   8.733  11.182  0.00  0.00    +0.000 C 
ATOM     28  C   UNL     1      50.092   7.658  11.484  0.00  0.00    +0.000 C 
ENDBRANCH  24  25
ENDBRANCH  20  24
ENDBRANCH  15  16
ENDBRANCH   1  15
TORSDOF 8
ENDMDL
MODEL 5
REMARK VINA RESULT:    -6.720      4.082      8.195
REMARK INTER + INTRA:         -10.676
REMARK INTER:                 -10.166
REMARK INTRA:                  -0.510
REMARK UNBOUND:                -1.010
REMARK  Name = 
REMARK  8 active torsions:
REMARK  status: ('A' for Active; 'I' for Inactive)
REMARK    1  A    between atoms: C_2  and  C_4
REMARK    2  A    between atoms: C_7  and  N_8
REMARK    3  A    between atoms: N_8  and  C_9
REMARK    4  A    between atoms: C_9  and  C_10
REMARK    5  A    between atoms: C_10  and  C_11
REMARK    6  A    between atoms: C_14  and  O_15
REMARK    7  A    between atoms: C_16  and  O_17
REMARK    8  A    between atoms: O_17  and  C_18
REMARK                            x       y       z     vdW  Elec       q    Type
REMARK                         _______ _______ _______ _____ _____    ______ ____
ROOT
ATOM      1  C   UNL     1      46.998   4.437  15.218  0.00  0.00    +0.000 C 
ENDROOT
BRANCH   1   2
ATOM      2  N   UNL     1      47.205   3.518  16.334  0.00  0.00    +0.000 N 
ATOM      3  H   UNL     1      46.501   3.560  17.069  0.00  0.00    +0.000 HD
BRANCH   2   7
ATOM      4  C   UNL     1      51.183   2.940  17.646  0.00  0.00    +0.000 A 
ATOM      5  C   UNL     1      50.588   4.193  17.790  0.00  0.00    +0.000 A 
ATOM      6  C   UNL     1      49.265   4.390  17.377  0.00  0.00    +0.000 A 
ATOM      7  C   UNL     1      48.499   3.347  16.840  0.00  0.00    +0.000 A 
ATOM      8  C   UNL     1      49.121   2.100  16.684  0.00  0.00    +0.000 A 
ATOM      9  C   UNL     1      50.450   1.896  17.078  0.00  0.00    +0.000 A 
BRANCH   4  11
ATOM     10  N   UNL     1      53.164   3.596  18.901  0.00  0.00    +0.000 N 
ATOM     11  C   UNL     1      52.595   2.701  18.039  0.00  0.00    +0.000 C 
ATOM     12  O   UNL     1      53.218   1.726  17.638  0.00  0.00    +0.000 OA
ATOM     13  H   UNL     1      54.090   3.362  19.239  0.00  0.00    +0.000 HD
ATOM     14  H   UNL     1      52.618   4.247  19.444  0.00  0.00    +0.000 HD
ENDBRANCH   4  11
ENDBRANCH   2   7
ENDBRANCH   1   2
BRANCH   1  15
ATOM     15  C   UNL     1      47.015   3.708  13.873  0.00  0.00    +0.000 C 
BRANCH  15  16
ATOM     16  C   UNL     1      45.931   4.252  12.972  0.00  0.00    +0.000 A 
ATOM     17  C   UNL     1      45.634   5.618  12.955  0.00  0.00    +0.000 A 
ATOM     18  C   UNL     1      44.677   6.120  12.070  0.00  0.00    +0.000 A 
ATOM     19  C   UNL     1      44.009   5.262  11.191  0.00  0.00    +0.000 A 
ATOM     20  C   UNL     1      44.308   3.899  11.178  0.00  0.00    +0.000 A 
ATOM     21  C   UNL     1      45.267   3.405  12.072  0.00  0.00    +0.000 A 
BRANCH  19  22
ATOM     22  O   UNL     1      43.081   5.794  10.340  0.00  0.00    +0.000 OA
ATOM     23  H   UNL     1      42.196   5.639  10.706  0.00  0.00    +0.000 HD
ENDBRANCH  19  22
BRANCH  20  24
ATOM     24  O   UNL     1      43.803   2.942  10.331  0.00  0.00    +0.000 OA
BRANCH  24  25
ATOM     25  C   UNL     1      44.314   2.812   8.988  0.00  0.00    +0.000 C 
ATOM     26  C   UNL     1      45.425   1.762   8.756  0.00  0.00    +0.000 C 
ATOM     27  C   UNL     1      46.281   2.831   8.066  0.00  0.00    +0.000 C 
ATOM     28  C   UNL     1      45.340   3.909   8.612  0.00  0.00    +0.000 C 
ENDBRANCH  24  25
ENDBRANCH  20  24
ENDBRANCH  15  16
ENDBRANCH   1  15
TORSDOF 8
ENDMDL
MODEL 6
REMARK VINA RESULT:    -6.319      3.937      6.913
REMARK INTER + INTRA:         -10.100
REMARK INTER:                  -9.281
REMARK INTRA:                  -0.819
REMARK UNBOUND:                -1.010
REMARK  Name = 
REMARK  8 active torsions:
REMARK  status: ('A' for Active; 'I' for Inactive)
REMARK    1  A    between atoms: C_2  and  C_4
REMARK    2  A    between atoms: C_7  and  N_8
REMARK    3  A    between atoms: N_8  and  C_9
REMARK    4  A    between atoms: C_9  and  C_10
REMARK    5  A    between atoms: C_10  and  C_11
REMARK    6  A    between atoms: C_14  and  O_15
REMARK    7  A    between atoms: C_16  and  O_17
REMARK    8  A    between atoms: O_17  and  C_18
REMARK                            x       y       z     vdW  Elec       q    Type
REMARK                         _______ _______ _______ _____ _____    ______ ____
ROOT
ATOM      1  C   UNL     1      45.630   7.748  12.812  0.00  0.00    +0.000 C 
ENDROOT
BRANCH   1   2
ATOM      2  N   UNL     1      46.451   8.927  12.545  0.00  0.00    +0.000 N 
ATOM      3  H   UNL     1      46.005   9.649  11.982  0.00  0.00    +0.000 HD
BRANCH   2   7
ATOM      4  C   UNL     1      50.466   8.268  11.396  0.00  0.00    +0.000 A 
ATOM      5  C   UNL     1      49.964   9.568  11.423  0.00  0.00    +0.000 A 
ATOM      6  C   UNL     1      48.642   9.799  11.820  0.00  0.00    +0.000 A 
ATOM      7  C   UNL     1      47.802   8.753  12.224  0.00  0.00    +0.000 A 
ATOM      8  C   UNL     1      48.317   7.451  12.170  0.00  0.00    +0.000 A 
ATOM      9  C   UNL     1      49.633   7.205  11.757  0.00  0.00    +0.000 A 
BRANCH   4  11
ATOM     10  N   UNL     1      52.858   8.705  11.516  0.00  0.00    +0.000 N 
ATOM     11  C   UNL     1      51.851   7.978  10.946  0.00  0.00    +0.000 C 
ATOM     12  O   UNL     1      52.091   7.103  10.124  0.00  0.00    +0.000 OA
ATOM     13  H   UNL     1      53.801   8.424  11.275  0.00  0.00    +0.000 HD
ATOM     14  H   UNL     1      52.729   9.236  12.363  0.00  0.00    +0.000 HD
ENDBRANCH   4  11
ENDBRANCH   2   7
ENDBRANCH   1   2
BRANCH   1  15
ATOM     15  C   UNL     1      44.676   7.448  11.654  0.00  0.00    +0.000 C 
BRANCH  15  16
ATOM     16  C   UNL     1      44.273   5.992  11.675  0.00  0.00    +0.000 A 
ATOM     17  C   UNL     1      43.575   5.459  12.763  0.00  0.00    +0.000 A 
ATOM     18  C   UNL     1      43.150   4.128  12.743  0.00  0.00    +0.000 A 
ATOM     19  C   UNL     1      43.414   3.318  11.634  0.00  0.00    +0.000 A 
ATOM     20  C   UNL     1      44.089   3.840  10.530  0.00  0.00    +0.000 A 
ATOM     21  C   UNL     1      44.515   5.174  10.562  0.00  0.00    +0.000 A 
BRANCH  19  22
ATOM     22  O   UNL     1      42.978   2.023  11.654  0.00  0.00    +0.000 OA
ATOM     23  H   UNL     1      42.008   2.019  11.620  0.00  0.00    +0.000 HD
ENDBRANCH  19  22
BRANCH  20  24
ATOM     24  O   UNL     1      44.358   3.206   9.341  0.00  0.00    +0.000 OA
BRANCH  24  25
ATOM     25  C   UNL     1      45.720   3.025   8.901  0.00  0.00    +0.000 C 
ATOM     26  C   UNL     1      46.083   3.560   7.497  0.00  0.00    +0.000 C 
ATOM     27  C   UNL     1      46.687   2.196   7.141  0.00  0.00    +0.000 C 
ATOM     28  C   UNL     1      46.013   1.597   8.379  0.00  0.00    +0.000 C 
ENDBRANCH  24  25
ENDBRANCH  20  24
ENDBRANCH  15  16
ENDBRANCH   1  15
TORSDOF 8
ENDMDL
MODEL 7
REMARK VINA RESULT:    -6.232      2.968      4.437
REMARK INTER + INTRA:          -9.975
REMARK INTER:                  -8.797
REMARK INTRA:                  -1.178
REMARK UNBOUND:                -1.010
REMARK  Name = 
REMARK  8 active torsions:
REMARK  status: ('A' for Active; 'I' for Inactive)
REMARK    1  A    between atoms: C_2  and  C_4
REMARK    2  A    between atoms: C_7  and  N_8
REMARK    3  A    between atoms: N_8  and  C_9
REMARK    4  A    between atoms: C_9  and  C_10
REMARK    5  A    between atoms: C_10  and  C_11
REMARK    6  A    between atoms: C_14  and  O_15
REMARK    7  A    between atoms: C_16  and  O_17
REMARK    8  A    between atoms: O_17  and  C_18
REMARK                            x       y       z     vdW  Elec       q    Type
REMARK                         _______ _______ _______ _____ _____    ______ ____
ROOT
ATOM      1  C   UNL     1      46.558   8.613  12.313  0.00  0.00    +0.000 C 
ENDROOT
BRANCH   1   2
ATOM      2  N   UNL     1      45.621   7.883  13.164  0.00  0.00    +0.000 N 
ATOM      3  H   UNL     1      45.831   7.902  14.160  0.00  0.00    +0.000 HD
BRANCH   2   7
ATOM      4  C   UNL     1      44.309   4.149  11.677  0.00  0.00    +0.000 A 
ATOM      5  C   UNL     1      45.082   4.193  12.836  0.00  0.00    +0.000 A 
ATOM      6  C   UNL     1      45.505   5.425  13.348  0.00  0.00    +0.000 A 
ATOM      7  C   UNL     1      45.149   6.636  12.738  0.00  0.00    +0.000 A 
ATOM      8  C   UNL     1      44.389   6.571  11.562  0.00  0.00    +0.000 A 
ATOM      9  C   UNL     1      43.975   5.342  11.031  0.00  0.00    +0.000 A 
BRANCH   4  11
ATOM     10  N   UNL     1      44.607   2.372  10.039  0.00  0.00    +0.000 N 
ATOM     11  C   UNL     1      43.871   2.860  11.083  0.00  0.00    +0.000 C 
ATOM     12  O   UNL     1      42.913   2.239  11.525  0.00  0.00    +0.000 OA
ATOM     13  H   UNL     1      44.358   1.444   9.715  0.00  0.00    +0.000 HD
ATOM     14  H   UNL     1      45.532   2.711   9.823  0.00  0.00    +0.000 HD
ENDBRANCH   4  11
ENDBRANCH   2   7
ENDBRANCH   1   2
BRANCH   1  15
ATOM     15  C   UNL     1      47.987   8.088  12.465  0.00  0.00    +0.000 C 
BRANCH  15  16
ATOM     16  C   UNL     1      48.348   7.978  13.928  0.00  0.00    +0.000 A 
ATOM     17  C   UNL     1      48.305   9.100  14.762  0.00  0.00    +0.000 A 
ATOM     18  C   UNL     1      48.576   8.974  16.127  0.00  0.00    +0.000 A 
ATOM     19  C   UNL     1      48.889   7.725  16.673  0.00  0.00    +0.000 A 
ATOM     20  C   UNL     1      48.915   6.591  15.860  0.00  0.00    +0.000 A 
ATOM     21  C   UNL     1      48.646   6.728  14.493  0.00  0.00    +0.000 A 
BRANCH  19  22
ATOM     22  O   UNL     1      49.145   7.646  18.013  0.00  0.00    +0.000 OA
ATOM     23  H   UNL     1      48.358   7.299  18.462  0.00  0.00    +0.000 HD
ENDBRANCH  19  22
BRANCH  20  24
ATOM     24  O   UNL     1      49.126   5.291  16.250  0.00  0.00    +0.000 OA
BRANCH  24  25
ATOM     25  C   UNL     1      48.032   4.349  16.279  0.00  0.00    +0.000 C 
ATOM     26  C   UNL     1      47.099   4.393  17.511  0.00  0.00    +0.000 C 
ATOM     27  C   UNL     1      47.283   2.882  17.694  0.00  0.00    +0.000 C 
ATOM     28  C   UNL     1      48.458   2.926  16.713  0.00  0.00    +0.000 C 
ENDBRANCH  24  25
ENDBRANCH  20  24
ENDBRANCH  15  16
ENDBRANCH   1  15
TORSDOF 8
ENDMDL
MODEL 8
REMARK VINA RESULT:    -6.109      4.057      9.070
REMARK INTER + INTRA:          -9.797
REMARK INTER:                  -9.339
REMARK INTRA:                  -0.457
REMARK UNBOUND:                -1.010
REMARK  Name = 
REMARK  8 active torsions:
REMARK  status: ('A' for Active; 'I' for Inactive)
REMARK    1  A    between atoms: C_2  and  C_4
REMARK    2  A    between atoms: C_7  and  N_8
REMARK    3  A    between atoms: N_8  and  C_9
REMARK    4  A    between atoms: C_9  and  C_10
REMARK    5  A    between atoms: C_10  and  C_11
REMARK    6  A    between atoms: C_14  and  O_15
REMARK    7  A    between atoms: C_16  and  O_17
REMARK    8  A    between atoms: O_17  and  C_18
REMARK                            x       y       z     vdW  Elec       q    Type
REMARK                         _______ _______ _______ _____ _____    ______ ____
ROOT
ATOM      1  C   UNL     1      47.195   4.406  15.121  0.00  0.00    +0.000 C 
ENDROOT
BRANCH   1   2
ATOM      2  N   UNL     1      46.955   3.556  16.284  0.00  0.00    +0.000 N 
ATOM      3  H   UNL     1      46.030   3.131  16.329  0.00  0.00    +0.000 HD
BRANCH   2   7
ATOM      4  C   UNL     1      48.560   4.814  19.987  0.00  0.00    +0.000 A 
ATOM      5  C   UNL     1      47.671   5.645  19.307  0.00  0.00    +0.000 A 
ATOM      6  C   UNL     1      47.119   5.230  18.090  0.00  0.00    +0.000 A 
ATOM      7  C   UNL     1      47.414   3.976  17.538  0.00  0.00    +0.000 A 
ATOM      8  C   UNL     1      48.325   3.163  18.226  0.00  0.00    +0.000 A 
ATOM      9  C   UNL     1      48.898   3.576  19.436  0.00  0.00    +0.000 A 
BRANCH   4  11
ATOM     10  N   UNL     1      48.483   6.081  22.066  0.00  0.00    +0.000 N 
ATOM     11  C   UNL     1      49.195   5.234  21.263  0.00  0.00    +0.000 C 
ATOM     12  O   UNL     1      50.294   4.817  21.603  0.00  0.00    +0.000 OA
ATOM     13  H   UNL     1      48.884   6.274  22.976  0.00  0.00    +0.000 HD
ATOM     14  H   UNL     1      47.493   6.234  21.948  0.00  0.00    +0.000 HD
ENDBRANCH   4  11
ENDBRANCH   2   7
ENDBRANCH   1   2
BRANCH   1  15
ATOM     15  C   UNL     1      47.056   3.626  13.812  0.00  0.00    +0.000 C 
BRANCH  15  16
ATOM     16  C   UNL     1      45.911   4.180  12.996  0.00  0.00    +0.000 A 
ATOM     17  C   UNL     1      45.544   5.526  13.099  0.00  0.00    +0.000 A 
ATOM     18  C   UNL     1      44.528   6.043  12.292  0.00  0.00    +0.000 A 
ATOM     19  C   UNL     1      43.870   5.222  11.371  0.00  0.00    +0.000 A 
ATOM     20  C   UNL     1      44.237   3.882  11.239  0.00  0.00    +0.000 A 
ATOM     21  C   UNL     1      45.255   3.372  12.056  0.00  0.00    +0.000 A 
BRANCH  19  22
ATOM     22  O   UNL     1      42.884   5.768  10.599  0.00  0.00    +0.000 OA
ATOM     23  H   UNL     1      42.045   5.322  10.801  0.00  0.00    +0.000 HD
ENDBRANCH  19  22
BRANCH  20  24
ATOM     24  O   UNL     1      43.748   2.969  10.336  0.00  0.00    +0.000 OA
BRANCH  24  25
ATOM     25  C   UNL     1      44.269   2.920   8.991  0.00  0.00    +0.000 C 
ATOM     26  C   UNL     1      45.486   1.999   8.740  0.00  0.00    +0.000 C 
ATOM     27  C   UNL     1      46.221   3.167   8.071  0.00  0.00    +0.000 C 
ATOM     28  C   UNL     1      45.171   4.127   8.636  0.00  0.00    +0.000 C 
ENDBRANCH  24  25
ENDBRANCH  20  24
ENDBRANCH  15  16
ENDBRANCH   1  15
TORSDOF 8
ENDMDL
MODEL 9
REMARK VINA RESULT:    -6.107      3.752      7.312
REMARK INTER + INTRA:          -9.794
REMARK INTER:                  -8.563
REMARK INTRA:                  -1.231
REMARK UNBOUND:                -1.010
REMARK  Name = 
REMARK  8 active torsions:
REMARK  status: ('A' for Active; 'I' for Inactive)
REMARK    1  A    between atoms: C_2  and  C_4
REMARK    2  A    between atoms: C_7  and  N_8
REMARK    3  A    between atoms: N_8  and  C_9
REMARK    4  A    between atoms: C_9  and  C_10
REMARK    5  A    between atoms: C_10  and  C_11
REMARK    6  A    between atoms: C_14  and  O_15
REMARK    7  A    between atoms: C_16  and  O_17
REMARK    8  A    between atoms: O_17  and  C_18
REMARK                            x       y       z     vdW  Elec       q    Type
REMARK                         _______ _______ _______ _____ _____    ______ ____
ROOT
ATOM      1  C   UNL     1      49.504   7.468  12.872  0.00  0.00    +0.000 C 
ENDROOT
BRANCH   1   2
ATOM      2  N   UNL     1      49.263   7.667  14.299  0.00  0.00    +0.000 N 
ATOM      3  H   UNL     1      49.948   8.249  14.779  0.00  0.00    +0.000 HD
BRANCH   2   7
ATOM      4  C   UNL     1      47.943   4.531  16.809  0.00  0.00    +0.000 A 
ATOM      5  C   UNL     1      47.344   4.711  15.563  0.00  0.00    +0.000 A 
ATOM      6  C   UNL     1      47.787   5.734  14.716  0.00  0.00    +0.000 A 
ATOM      7  C   UNL     1      48.846   6.579  15.074  0.00  0.00    +0.000 A 
ATOM      8  C   UNL     1      49.422   6.396  16.339  0.00  0.00    +0.000 A 
ATOM      9  C   UNL     1      48.975   5.387  17.203  0.00  0.00    +0.000 A 
BRANCH   4  11
ATOM     10  N   UNL     1      48.133   3.380  18.946  0.00  0.00    +0.000 N 
ATOM     11  C   UNL     1      47.478   3.481  17.750  0.00  0.00    +0.000 C 
ATOM     12  O   UNL     1      46.527   2.756  17.488  0.00  0.00    +0.000 OA
ATOM     13  H   UNL     1      47.738   2.730  19.616  0.00  0.00    +0.000 HD
ATOM     14  H   UNL     1      48.733   4.110  19.298  0.00  0.00    +0.000 HD
ENDBRANCH   4  11
ENDBRANCH   2   7
ENDBRANCH   1   2
BRANCH   1  15
ATOM     15  C   UNL     1      48.784   8.519  12.025  0.00  0.00    +0.000 C 
BRANCH  15  16
ATOM     16  C   UNL     1      47.325   8.157  11.876  0.00  0.00    +0.000 A 
ATOM     17  C   UNL     1      46.324   9.094  12.150  0.00  0.00    +0.000 A 
ATOM     18  C   UNL     1      44.980   8.770  11.946  0.00  0.00    +0.000 A 
ATOM     19  C   UNL     1      44.623   7.508  11.461  0.00  0.00    +0.000 A 
ATOM     20  C   UNL     1      45.610   6.568  11.160  0.00  0.00    +0.000 A 
ATOM     21  C   UNL     1      46.954   6.901  11.373  0.00  0.00    +0.000 A 
BRANCH  19  22
ATOM     22  O   UNL     1      43.298   7.232  11.273  0.00  0.00    +0.000 OA
ATOM     23  H   UNL     1      42.824   7.394  12.104  0.00  0.00    +0.000 HD
ENDBRANCH  19  22
BRANCH  20  24
ATOM     24  O   UNL     1      45.435   5.322  10.608  0.00  0.00    +0.000 OA
BRANCH  24  25
ATOM     25  C   UNL     1      45.067   4.200  11.439  0.00  0.00    +0.000 C 
ATOM     26  C   UNL     1      43.614   3.686  11.323  0.00  0.00    +0.000 C 
ATOM     27  C   UNL     1      43.471   3.768  12.848  0.00  0.00    +0.000 C 
ATOM     28  C   UNL     1      44.760   4.594  12.904  0.00  0.00    +0.000 C 
ENDBRANCH  24  25
ENDBRANCH  20  24
ENDBRANCH  15  16
ENDBRANCH   1  15
TORSDOF 8
ENDMDL
