MODEL 1
REMARK VINA RESULT:    -7.131      0.000      0.000
REMARK INTER + INTRA:         -10.663
REMARK INTER:                  -9.841
REMARK INTRA:                  -0.822
REMARK UNBOUND:                -0.822
REMARK  Name = 
REMARK  7 active torsions:
REMARK  status: ('A' for Active; 'I' for Inactive)
REMARK    1  A    between atoms: N_1  and  C_2
REMARK    2  A    between atoms: C_2  and  C_3
REMARK    3  A    between atoms: C_7  and  O_8
REMARK    4  A    between atoms: O_8  and  C_9
REMARK    5  A    between atoms: C_9  and  C_10
REMARK    6  A    between atoms: C_10  and  C_11
REMARK    7  A    between atoms: C_15  and  C_16
REMARK                            x       y       z     vdW  Elec       q    Type
REMARK                         _______ _______ _______ _____ _____    ______ ____
ROOT
ATOM      1  C   UNL     1      43.565   3.339  10.932  0.00  0.00    +0.000 C 
ENDROOT
BRANCH   1   2
ATOM      2  O   UNL     1      44.144   2.337  10.086  0.00  0.00    +0.000 OA
BRANCH   2   7
ATOM      3  C   UNL     1      46.691   2.163   7.459  0.00  0.00    +0.000 A 
ATOM      4  C   UNL     1      46.850   3.518   7.138  0.00  0.00    +0.000 A 
ATOM      5  C   UNL     1      46.138   4.500   7.822  0.00  0.00    +0.000 A 
ATOM      6  C   UNL     1      45.235   4.142   8.821  0.00  0.00    +0.000 A 
ATOM      7  C   UNL     1      45.030   2.798   9.143  0.00  0.00    +0.000 A 
ATOM      8  C   UNL     1      45.764   1.817   8.462  0.00  0.00    +0.000 A 
BRANCH   3   9
ATOM      9  C   UNL     1      47.419   1.083   6.695  0.00  0.00    +0.000 C 
BRANCH   9  10
ATOM     10  N   UNL     1      48.418   1.606   5.763  0.00  0.00    +0.000 NA
ATOM     11  H   UNL     1      48.643   2.565   6.018  0.00  0.00    +0.000 HD
ATOM     12  H   UNL     1      48.005   1.643   4.832  0.00  0.00    +0.000 HD
ENDBRANCH   9  10
ENDBRANCH   3   9
ENDBRANCH   2   7
ENDBRANCH   1   2
BRANCH   1  13
ATOM     13  C   UNL     1      44.230   3.316  12.308  0.00  0.00    +0.000 C 
BRANCH  13  14
ATOM     14  C   UNL     1      45.063   4.556  12.543  0.00  0.00    +0.000 A 
ATOM     15  C   UNL     1      46.251   4.482  13.285  0.00  0.00    +0.000 A 
ATOM     16  C   UNL     1      47.010   5.628  13.529  0.00  0.00    +0.000 A 
ATOM     17  C   UNL     1      46.592   6.862  13.031  0.00  0.00    +0.000 A 
ATOM     18  C   UNL     1      45.411   6.955  12.285  0.00  0.00    +0.000 A 
ATOM     19  C   UNL     1      44.639   5.804  12.060  0.00  0.00    +0.000 A 
BRANCH  18  20
ATOM     20  C   UNL     1      45.015   8.293  11.770  0.00  0.00    +0.000 C 
ATOM     21  N   UNL     1      43.833   8.380  11.084  0.00  0.00    +0.000 N 
ATOM     22  O   UNL     1      45.730   9.275  11.909  0.00  0.00    +0.000 OA
ATOM     23  H   UNL     1      43.352   7.566  10.730  0.00  0.00    +0.000 HD
ATOM     24  H   UNL     1      43.650   9.265  10.629  0.00  0.00    +0.000 HD
ENDBRANCH  18  20
ENDBRANCH  13  14
ENDBRANCH   1  13
TORSDOF 7
ENDMDL
MODEL 2
REMARK VINA RESULT:    -6.595      2.957      7.551
REMARK INTER + INTRA:          -9.924
REMARK INTER:                  -9.482
REMARK INTRA:                  -0.442
REMARK UNBOUND:                -0.822
REMARK  Name = 
REMARK  7 active torsions:
REMARK  status: ('A' for Active; 'I' for Inactive)
REMARK    1  A    between atoms: N_1  and  C_2
REMARK    2  A    between atoms: C_2  and  C_3
REMARK    3  A    between atoms: C_7  and  O_8
REMARK    4  A    between atoms: O_8  and  C_9
REMARK    5  A    between atoms: C_9  and  C_10
REMARK    6  A    between atoms: C_10  and  C_11
REMARK    7  A    between atoms: C_15  and  C_16
REMARK                            x       y       z     vdW  Elec       q    Type
REMARK                         _______ _______ _______ _____ _____    ______ ____
ROOT
ATOM      1  C   UNL     1      45.650   4.223   8.324  0.00  0.00    +0.000 C 
ENDROOT
BRANCH   1   2
ATOM      2  O   UNL     1      45.840   5.466   9.012  0.00  0.00    +0.000 OA
BRANCH   2   7
ATOM      3  C   UNL     1      44.376   4.290  12.158  0.00  0.00    +0.000 A 
ATOM      4  C   UNL     1      44.954   5.174  13.079  0.00  0.00    +0.000 A 
ATOM      5  C   UNL     1      45.805   6.191  12.653  0.00  0.00    +0.000 A 
ATOM      6  C   UNL     1      46.113   6.326  11.301  0.00  0.00    +0.000 A 
ATOM      7  C   UNL     1      45.577   5.441  10.361  0.00  0.00    +0.000 A 
ATOM      8  C   UNL     1      44.708   4.431  10.796  0.00  0.00    +0.000 A 
BRANCH   3   9
ATOM      9  C   UNL     1      43.490   3.153  12.608  0.00  0.00    +0.000 C 
BRANCH   9  10
ATOM     10  N   UNL     1      43.058   2.287  11.510  0.00  0.00    +0.000 NA
ATOM     11  H   UNL     1      43.639   1.452  11.496  0.00  0.00    +0.000 HD
ATOM     12  H   UNL     1      43.225   2.771  10.629  0.00  0.00    +0.000 HD
ENDBRANCH   9  10
ENDBRANCH   3   9
ENDBRANCH   2   7
ENDBRANCH   1   2
BRANCH   1  13
ATOM     13  C   UNL     1      46.631   4.113   7.157  0.00  0.00    +0.000 C 
BRANCH  13  14
ATOM     14  C   UNL     1      46.757   2.686   6.670  0.00  0.00    +0.000 A 
ATOM     15  C   UNL     1      46.976   1.643   7.581  0.00  0.00    +0.000 A 
ATOM     16  C   UNL     1      47.120   0.328   7.136  0.00  0.00    +0.000 A 
ATOM     17  C   UNL     1      47.042   0.040   5.773  0.00  0.00    +0.000 A 
ATOM     18  C   UNL     1      46.820   1.066   4.849  0.00  0.00    +0.000 A 
ATOM     19  C   UNL     1      46.697   2.391   5.299  0.00  0.00    +0.000 A 
BRANCH  18  20
ATOM     20  C   UNL     1      46.737   0.704   3.409  0.00  0.00    +0.000 C 
ATOM     21  N   UNL     1      45.545   0.925   2.771  0.00  0.00    +0.000 N 
ATOM     22  O   UNL     1      47.674   0.187   2.819  0.00  0.00    +0.000 OA
ATOM     23  H   UNL     1      44.688   1.103   3.272  0.00  0.00    +0.000 HD
ATOM     24  H   UNL     1      45.470   0.549   1.835  0.00  0.00    +0.000 HD
ENDBRANCH  18  20
ENDBRANCH  13  14
ENDBRANCH   1  13
TORSDOF 7
ENDMDL
MODEL 3
REMARK VINA RESULT:    -6.470      1.609      2.090
REMARK INTER + INTRA:          -9.751
REMARK INTER:                  -9.066
REMARK INTRA:                  -0.685
REMARK UNBOUND:                -0.822
REMARK  Name = 
REMARK  7 active torsions:
REMARK  status: ('A' for Active; 'I' for Inactive)
REMARK    1  A    between atoms: N_1  and  C_2
REMARK    2  A    between atoms: C_2  and  C_3
REMARK    3  A    between atoms: C_7  and  O_8
REMARK    4  A    between atoms: O_8  and  C_9
REMARK    5  A    between atoms: C_9  and  C_10
REMARK    6  A    between atoms: C_10  and  C_11
REMARK    7  A    between atoms: C_15  and  C_16
REMARK                            x       y       z     vdW  Elec       q    Type
REMARK                         _______ _______ _______ _____ _____    ______ ____
ROOT
ATOM      1  C   UNL     1      43.790   3.433  10.900  0.00  0.00    +0.000 C 
ENDROOT
BRANCH   1   2
ATOM      2  O   UNL     1      44.304   2.396  10.055  0.00  0.00    +0.000 OA
BRANCH   2   7
ATOM      3  C   UNL     1      46.789   2.097   7.380  0.00  0.00    +0.000 A 
ATOM      4  C   UNL     1      46.919   3.431   6.972  0.00  0.00    +0.000 A 
ATOM      5  C   UNL     1      46.207   4.444   7.612  0.00  0.00    +0.000 A 
ATOM      6  C   UNL     1      45.335   4.135   8.654  0.00  0.00    +0.000 A 
ATOM      7  C   UNL     1      45.160   2.811   9.063  0.00  0.00    +0.000 A 
ATOM      8  C   UNL     1      45.892   1.800   8.425  0.00  0.00    +0.000 A 
BRANCH   3   9
ATOM      9  C   UNL     1      47.516   0.982   6.666  0.00  0.00    +0.000 C 
BRANCH   9  10
ATOM     10  N   UNL     1      48.258   1.436   5.489  0.00  0.00    +0.000 NA
ATOM     11  H   UNL     1      48.013   0.850   4.694  0.00  0.00    +0.000 HD
ATOM     12  H   UNL     1      49.253   1.294   5.658  0.00  0.00    +0.000 HD
ENDBRANCH   9  10
ENDBRANCH   3   9
ENDBRANCH   2   7
ENDBRANCH   1   2
BRANCH   1  13
ATOM     13  C   UNL     1      44.807   3.778  11.988  0.00  0.00    +0.000 C 
BRANCH  13  14
ATOM     14  C   UNL     1      45.160   5.249  11.971  0.00  0.00    +0.000 A 
ATOM     15  C   UNL     1      44.202   6.204  11.600  0.00  0.00    +0.000 A 
ATOM     16  C   UNL     1      44.530   7.560  11.557  0.00  0.00    +0.000 A 
ATOM     17  C   UNL     1      45.820   7.978  11.887  0.00  0.00    +0.000 A 
ATOM     18  C   UNL     1      46.787   7.041  12.263  0.00  0.00    +0.000 A 
ATOM     19  C   UNL     1      46.461   5.675  12.285  0.00  0.00    +0.000 A 
BRANCH  18  20
ATOM     20  C   UNL     1      48.144   7.540  12.613  0.00  0.00    +0.000 C 
ATOM     21  N   UNL     1      49.121   6.606  12.836  0.00  0.00    +0.000 N 
ATOM     22  O   UNL     1      48.378   8.732  12.745  0.00  0.00    +0.000 OA
ATOM     23  H   UNL     1      48.913   5.631  12.990  0.00  0.00    +0.000 HD
ATOM     24  H   UNL     1      49.995   6.961  13.202  0.00  0.00    +0.000 HD
ENDBRANCH  18  20
ENDBRANCH  13  14
ENDBRANCH   1  13
TORSDOF 7
ENDMDL
MODEL 4
REMARK VINA RESULT:    -6.305      5.832      7.519
REMARK INTER + INTRA:          -9.523
REMARK INTER:                  -9.141
REMARK INTRA:                  -0.382
REMARK UNBOUND:                -0.822
REMARK  Name = 
REMARK  7 active torsions:
REMARK  status: ('A' for Active; 'I' for Inactive)
REMARK    1  A    between atoms: N_1  and  C_2
REMARK    2  A    between atoms: C_2  and  C_3
REMARK    3  A    between atoms: C_7  and  O_8
REMARK    4  A    between atoms: O_8  and  C_9
REMARK    5  A    between atoms: C_9  and  C_10
REMARK    6  A    between atoms: C_10  and  C_11
REMARK    7  A    between atoms: C_15  and  C_16
REMARK                            x       y       z     vdW  Elec       q    Type
REMARK                         _______ _______ _______ _____ _____    ______ ____
ROOT
ATOM      1  C   UNL     1      47.366   4.188  15.746  0.00  0.00    +0.000 C 
ENDROOT
BRANCH   1   2
ATOM      2  O   UNL     1      47.142   3.404  14.567  0.00  0.00    +0.000 OA
BRANCH   2   7
ATOM      3  C   UNL     1      45.063   3.922  11.595  0.00  0.00    +0.000 A 
ATOM      4  C   UNL     1      45.304   5.275  11.321  0.00  0.00    +0.000 A 
ATOM      5  C   UNL     1      46.189   6.013  12.103  0.00  0.00    +0.000 A 
ATOM      6  C   UNL     1      46.831   5.416  13.187  0.00  0.00    +0.000 A 
ATOM      7  C   UNL     1      46.588   4.078  13.505  0.00  0.00    +0.000 A 
ATOM      8  C   UNL     1      45.708   3.338  12.703  0.00  0.00    +0.000 A 
BRANCH   3   9
ATOM      9  C   UNL     1      44.070   3.120  10.788  0.00  0.00    +0.000 C 
BRANCH   9  10
ATOM     10  N   UNL     1      42.895   2.710  11.558  0.00  0.00    +0.000 NA
ATOM     11  H   UNL     1      42.153   3.392  11.423  0.00  0.00    +0.000 HD
ATOM     12  H   UNL     1      43.132   2.732  12.549  0.00  0.00    +0.000 HD
ENDBRANCH   9  10
ENDBRANCH   3   9
ENDBRANCH   2   7
ENDBRANCH   1   2
BRANCH   1  13
ATOM     13  C   UNL     1      47.767   3.283  16.911  0.00  0.00    +0.000 C 
BRANCH  13  14
ATOM     14  C   UNL     1      49.239   3.415  17.235  0.00  0.00    +0.000 A 
ATOM     15  C   UNL     1      49.808   4.680  17.440  0.00  0.00    +0.000 A 
ATOM     16  C   UNL     1      51.172   4.809  17.712  0.00  0.00    +0.000 A 
ATOM     17  C   UNL     1      51.981   3.675  17.786  0.00  0.00    +0.000 A 
ATOM     18  C   UNL     1      51.429   2.405  17.588  0.00  0.00    +0.000 A 
ATOM     19  C   UNL     1      50.062   2.279  17.293  0.00  0.00    +0.000 A 
BRANCH  18  20
ATOM     20  C   UNL     1      52.333   1.228  17.686  0.00  0.00    +0.000 C 
ATOM     21  N   UNL     1      51.801   0.063  18.170  0.00  0.00    +0.000 N 
ATOM     22  O   UNL     1      53.518   1.299  17.391  0.00  0.00    +0.000 OA
ATOM     23  H   UNL     1      50.919   0.032  18.657  0.00  0.00    +0.000 HD
ATOM     24  H   UNL     1      52.462  -0.681  18.354  0.00  0.00    +0.000 HD
ENDBRANCH  18  20
ENDBRANCH  13  14
ENDBRANCH   1  13
TORSDOF 7
ENDMDL
MODEL 5
REMARK VINA RESULT:    -6.304      2.628      3.518
REMARK INTER + INTRA:          -9.521
REMARK INTER:                  -9.073
REMARK INTRA:                  -0.449
REMARK UNBOUND:                -0.822
REMARK  Name = 
REMARK  7 active torsions:
REMARK  status: ('A' for Active; 'I' for Inactive)
REMARK    1  A    between atoms: N_1  and  C_2
REMARK    2  A    between atoms: C_2  and  C_3
REMARK    3  A    between atoms: C_7  and  O_8
REMARK    4  A    between atoms: O_8  and  C_9
REMARK    5  A    between atoms: C_9  and  C_10
REMARK    6  A    between atoms: C_10  and  C_11
REMARK    7  A    between atoms: C_15  and  C_16
REMARK                            x       y       z     vdW  Elec       q    Type
REMARK                         _______ _______ _______ _____ _____    ______ ____
ROOT
ATOM      1  C   UNL     1      46.019   5.838   9.859  0.00  0.00    +0.000 C 
ENDROOT
BRANCH   1   2
ATOM      2  O   UNL     1      45.245   5.237   8.813  0.00  0.00    +0.000 OA
BRANCH   2   7
ATOM      3  C   UNL     1      46.948   2.353   7.330  0.00  0.00    +0.000 A 
ATOM      4  C   UNL     1      46.278   1.288   7.946  0.00  0.00    +0.000 A 
ATOM      5  C   UNL     1      45.228   1.525   8.831  0.00  0.00    +0.000 A 
ATOM      6  C   UNL     1      44.848   2.831   9.134  0.00  0.00    +0.000 A 
ATOM      7  C   UNL     1      45.518   3.915   8.560  0.00  0.00    +0.000 A 
ATOM      8  C   UNL     1      46.562   3.668   7.658  0.00  0.00    +0.000 A 
BRANCH   3   9
ATOM      9  C   UNL     1      48.120   2.116   6.406  0.00  0.00    +0.000 C 
BRANCH   9  10
ATOM     10  N   UNL     1      47.898   2.620   5.051  0.00  0.00    +0.000 NA
ATOM     11  H   UNL     1      48.790   2.899   4.649  0.00  0.00    +0.000 HD
ATOM     12  H   UNL     1      47.329   3.463   5.106  0.00  0.00    +0.000 HD
ENDBRANCH   9  10
ENDBRANCH   3   9
ENDBRANCH   2   7
ENDBRANCH   1   2
BRANCH   1  13
ATOM     13  C   UNL     1      45.344   5.609  11.212  0.00  0.00    +0.000 C 
BRANCH  13  14
ATOM     14  C   UNL     1      46.302   5.845  12.358  0.00  0.00    +0.000 A 
ATOM     15  C   UNL     1      47.162   6.953  12.345  0.00  0.00    +0.000 A 
ATOM     16  C   UNL     1      48.068   7.162  13.387  0.00  0.00    +0.000 A 
ATOM     17  C   UNL     1      48.122   6.267  14.456  0.00  0.00    +0.000 A 
ATOM     18  C   UNL     1      47.270   5.158  14.487  0.00  0.00    +0.000 A 
ATOM     19  C   UNL     1      46.375   4.939  13.427  0.00  0.00    +0.000 A 
BRANCH  18  20
ATOM     20  C   UNL     1      47.363   4.239  15.653  0.00  0.00    +0.000 C 
ATOM     21  N   UNL     1      47.097   4.761  16.891  0.00  0.00    +0.000 N 
ATOM     22  O   UNL     1      47.705   3.072  15.528  0.00  0.00    +0.000 OA
ATOM     23  H   UNL     1      47.067   5.755  17.063  0.00  0.00    +0.000 HD
ATOM     24  H   UNL     1      47.296   4.157  17.677  0.00  0.00    +0.000 HD
ENDBRANCH  18  20
ENDBRANCH  13  14
ENDBRANCH   1  13
TORSDOF 7
ENDMDL
MODEL 6
REMARK VINA RESULT:    -6.002      3.500      4.808
REMARK INTER + INTRA:          -9.105
REMARK INTER:                  -8.563
REMARK INTRA:                  -0.542
REMARK UNBOUND:                -0.822
REMARK  Name = 
REMARK  7 active torsions:
REMARK  status: ('A' for Active; 'I' for Inactive)
REMARK    1  A    between atoms: N_1  and  C_2
REMARK    2  A    between atoms: C_2  and  C_3
REMARK    3  A    between atoms: C_7  and  O_8
REMARK    4  A    between atoms: O_8  and  C_9
REMARK    5  A    between atoms: C_9  and  C_10
REMARK    6  A    between atoms: C_10  and  C_11
REMARK    7  A    between atoms: C_15  and  C_16
REMARK                            x       y       z     vdW  Elec       q    Type
REMARK                         _______ _______ _______ _____ _____    ______ ____
ROOT
ATOM      1  C   UNL     1      45.799   6.399  12.721  0.00  0.00    +0.000 C 
ENDROOT
BRANCH   1   2
ATOM      2  O   UNL     1      45.350   6.445  11.360  0.00  0.00    +0.000 OA
BRANCH   2   7
ATOM      3  C   UNL     1      45.145   3.778   8.857  0.00  0.00    +0.000 A 
ATOM      4  C   UNL     1      44.398   2.811   9.543  0.00  0.00    +0.000 A 
ATOM      5  C   UNL     1      43.927   3.057  10.830  0.00  0.00    +0.000 A 
ATOM      6  C   UNL     1      44.215   4.266  11.463  0.00  0.00    +0.000 A 
ATOM      7  C   UNL     1      44.983   5.238  10.817  0.00  0.00    +0.000 A 
ATOM      8  C   UNL     1      45.440   4.988   9.515  0.00  0.00    +0.000 A 
BRANCH   3   9
ATOM      9  C   UNL     1      45.704   3.509   7.480  0.00  0.00    +0.000 C 
BRANCH   9  10
ATOM     10  N   UNL     1      46.897   4.299   7.176  0.00  0.00    +0.000 NA
ATOM     11  H   UNL     1      46.817   4.675   6.234  0.00  0.00    +0.000 HD
ATOM     12  H   UNL     1      47.706   3.679   7.173  0.00  0.00    +0.000 HD
ENDBRANCH   9  10
ENDBRANCH   3   9
ENDBRANCH   2   7
ENDBRANCH   1   2
BRANCH   1  13
ATOM     13  C   UNL     1      47.284   6.040  12.773  0.00  0.00    +0.000 C 
BRANCH  13  14
ATOM     14  C   UNL     1      47.779   5.932  14.198  0.00  0.00    +0.000 A 
ATOM     15  C   UNL     1      48.658   6.893  14.717  0.00  0.00    +0.000 A 
ATOM     16  C   UNL     1      49.140   6.785  16.023  0.00  0.00    +0.000 A 
ATOM     17  C   UNL     1      48.745   5.715  16.827  0.00  0.00    +0.000 A 
ATOM     18  C   UNL     1      47.866   4.748  16.328  0.00  0.00    +0.000 A 
ATOM     19  C   UNL     1      47.400   4.849  15.007  0.00  0.00    +0.000 A 
BRANCH  18  20
ATOM     20  C   UNL     1      47.470   3.633  17.228  0.00  0.00    +0.000 C 
ATOM     21  N   UNL     1      48.433   3.117  18.054  0.00  0.00    +0.000 N 
ATOM     22  O   UNL     1      46.344   3.157  17.209  0.00  0.00    +0.000 OA
ATOM     23  H   UNL     1      49.416   3.301  17.920  0.00  0.00    +0.000 HD
ATOM     24  H   UNL     1      48.179   2.277  18.557  0.00  0.00    +0.000 HD
ENDBRANCH  18  20
ENDBRANCH  13  14
ENDBRANCH   1  13
TORSDOF 7
ENDMDL
MODEL 7
REMARK VINA RESULT:    -5.858      4.541      7.350
REMARK INTER + INTRA:          -8.907
REMARK INTER:                  -8.521
REMARK INTRA:                  -0.386
REMARK UNBOUND:                -0.822
REMARK  Name = 
REMARK  7 active torsions:
REMARK  status: ('A' for Active; 'I' for Inactive)
REMARK    1  A    between atoms: N_1  and  C_2
REMARK    2  A    between atoms: C_2  and  C_3
REMARK    3  A    between atoms: C_7  and  O_8
REMARK    4  A    between atoms: O_8  and  C_9
REMARK    5  A    between atoms: C_9  and  C_10
REMARK    6  A    between atoms: C_10  and  C_11
REMARK    7  A    between atoms: C_15  and  C_16
REMARK                            x       y       z     vdW  Elec       q    Type
REMARK                         _______ _______ _______ _____ _____    ______ ____
ROOT
ATOM      1  C   UNL     1      47.006   4.640  14.245  0.00  0.00    +0.000 C 
ENDROOT
BRANCH   1   2
ATOM      2  O   UNL     1      46.531   3.958  15.413  0.00  0.00    +0.000 OA
BRANCH   2   7
ATOM      3  C   UNL     1      49.460   2.781  17.272  0.00  0.00    +0.000 A 
ATOM      4  C   UNL     1      49.394   3.575  18.425  0.00  0.00    +0.000 A 
ATOM      5  C   UNL     1      48.351   4.480  18.606  0.00  0.00    +0.000 A 
ATOM      6  C   UNL     1      47.370   4.625  17.626  0.00  0.00    +0.000 A 
ATOM      7  C   UNL     1      47.425   3.870  16.452  0.00  0.00    +0.000 A 
ATOM      8  C   UNL     1      48.469   2.949  16.284  0.00  0.00    +0.000 A 
BRANCH   3   9
ATOM      9  C   UNL     1      50.609   1.830  17.037  0.00  0.00    +0.000 C 
BRANCH   9  10
ATOM     10  N   UNL     1      51.604   1.848  18.110  0.00  0.00    +0.000 NA
ATOM     11  H   UNL     1      51.375   2.592  18.765  0.00  0.00    +0.000 HD
ATOM     12  H   UNL     1      52.511   2.082  17.709  0.00  0.00    +0.000 HD
ENDBRANCH   9  10
ENDBRANCH   3   9
ENDBRANCH   2   7
ENDBRANCH   1   2
BRANCH   1  13
ATOM     13  C   UNL     1      45.886   5.483  13.636  0.00  0.00    +0.000 C 
BRANCH  13  14
ATOM     14  C   UNL     1      45.139   4.722  12.563  0.00  0.00    +0.000 A 
ATOM     15  C   UNL     1      44.117   3.827  12.911  0.00  0.00    +0.000 A 
ATOM     16  C   UNL     1      43.442   3.101  11.927  0.00  0.00    +0.000 A 
ATOM     17  C   UNL     1      43.779   3.265  10.583  0.00  0.00    +0.000 A 
ATOM     18  C   UNL     1      44.793   4.157  10.217  0.00  0.00    +0.000 A 
ATOM     19  C   UNL     1      45.485   4.869  11.210  0.00  0.00    +0.000 A 
BRANCH  18  20
ATOM     20  C   UNL     1      45.107   4.300   8.771  0.00  0.00    +0.000 C 
ATOM     21  N   UNL     1      44.396   3.529   7.891  0.00  0.00    +0.000 N 
ATOM     22  O   UNL     1      45.995   5.042   8.374  0.00  0.00    +0.000 OA
ATOM     23  H   UNL     1      43.851   2.734   8.187  0.00  0.00    +0.000 HD
ATOM     24  H   UNL     1      44.717   3.543   6.931  0.00  0.00    +0.000 HD
ENDBRANCH  18  20
ENDBRANCH  13  14
ENDBRANCH   1  13
TORSDOF 7
ENDMDL
MODEL 8
REMARK VINA RESULT:    -5.850      5.732      7.944
REMARK INTER + INTRA:          -8.895
REMARK INTER:                  -8.445
REMARK INTRA:                  -0.451
REMARK UNBOUND:                -0.822
REMARK  Name = 
REMARK  7 active torsions:
REMARK  status: ('A' for Active; 'I' for Inactive)
REMARK    1  A    between atoms: N_1  and  C_2
REMARK    2  A    between atoms: C_2  and  C_3
REMARK    3  A    between atoms: C_7  and  O_8
REMARK    4  A    between atoms: O_8  and  C_9
REMARK    5  A    between atoms: C_9  and  C_10
REMARK    6  A    between atoms: C_10  and  C_11
REMARK    7  A    between atoms: C_15  and  C_16
REMARK                            x       y       z     vdW  Elec       q    Type
REMARK                         _______ _______ _______ _____ _____    ______ ____
ROOT
ATOM      1  C   UNL     1      47.278   4.224  15.801  0.00  0.00    +0.000 C 
ENDROOT
BRANCH   1   2
ATOM      2  O   UNL     1      47.073   3.541  14.557  0.00  0.00    +0.000 OA
BRANCH   2   7
ATOM      3  C   UNL     1      46.328   6.528  12.570  0.00  0.00    +0.000 A 
ATOM      4  C   UNL     1      45.504   5.996  11.569  0.00  0.00    +0.000 A 
ATOM      5  C   UNL     1      45.161   4.646  11.573  0.00  0.00    +0.000 A 
ATOM      6  C   UNL     1      45.656   3.800  12.563  0.00  0.00    +0.000 A 
ATOM      7  C   UNL     1      46.506   4.293  13.557  0.00  0.00    +0.000 A 
ATOM      8  C   UNL     1      46.833   5.656  13.555  0.00  0.00    +0.000 A 
BRANCH   3   9
ATOM      9  C   UNL     1      46.749   7.978  12.554  0.00  0.00    +0.000 C 
BRANCH   9  10
ATOM     10  N   UNL     1      46.622   8.632  13.857  0.00  0.00    +0.000 NA
ATOM     11  H   UNL     1      47.144   9.505  13.844  0.00  0.00    +0.000 HD
ATOM     12  H   UNL     1      47.060   8.041  14.561  0.00  0.00    +0.000 HD
ENDBRANCH   9  10
ENDBRANCH   3   9
ENDBRANCH   2   7
ENDBRANCH   1   2
BRANCH   1  13
ATOM     13  C   UNL     1      47.727   3.234  16.876  0.00  0.00    +0.000 C 
BRANCH  13  14
ATOM     14  C   UNL     1      49.196   3.396  17.200  0.00  0.00    +0.000 A 
ATOM     15  C   UNL     1      49.747   4.673  17.373  0.00  0.00    +0.000 A 
ATOM     16  C   UNL     1      51.107   4.830  17.646  0.00  0.00    +0.000 A 
ATOM     17  C   UNL     1      51.932   3.710  17.752  0.00  0.00    +0.000 A 
ATOM     18  C   UNL     1      51.399   2.427  17.586  0.00  0.00    +0.000 A 
ATOM     19  C   UNL     1      50.035   2.274  17.291  0.00  0.00    +0.000 A 
BRANCH  18  20
ATOM     20  C   UNL     1      52.320   1.267  17.719  0.00  0.00    +0.000 C 
ATOM     21  N   UNL     1      51.787   0.086  18.162  0.00  0.00    +0.000 N 
ATOM     22  O   UNL     1      53.517   1.363  17.486  0.00  0.00    +0.000 OA
ATOM     23  H   UNL     1      50.881   0.033  18.603  0.00  0.00    +0.000 HD
ATOM     24  H   UNL     1      52.451  -0.647  18.372  0.00  0.00    +0.000 HD
ENDBRANCH  18  20
ENDBRANCH  13  14
ENDBRANCH   1  13
TORSDOF 7
ENDMDL
MODEL 9
REMARK VINA RESULT:    -5.818      4.633      7.656
REMARK INTER + INTRA:          -8.851
REMARK INTER:                  -8.350
REMARK INTRA:                  -0.501
REMARK UNBOUND:                -0.822
REMARK  Name = 
REMARK  7 active torsions:
REMARK  status: ('A' for Active; 'I' for Inactive)
REMARK    1  A    between atoms: N_1  and  C_2
REMARK    2  A    between atoms: C_2  and  C_3
REMARK    3  A    between atoms: C_7  and  O_8
REMARK    4  A    between atoms: O_8  and  C_9
REMARK    5  A    between atoms: C_9  and  C_10
REMARK    6  A    between atoms: C_10  and  C_11
REMARK    7  A    between atoms: C_15  and  C_16
REMARK                            x       y       z     vdW  Elec       q    Type
REMARK                         _______ _______ _______ _____ _____    ______ ____
ROOT
ATOM      1  C   UNL     1      47.069   3.762  14.860  0.00  0.00    +0.000 C 
ENDROOT
BRANCH   1   2
ATOM      2  O   UNL     1      46.660   3.891  16.228  0.00  0.00    +0.000 OA
BRANCH   2   7
ATOM      3  C   UNL     1      49.904   3.400  17.857  0.00  0.00    +0.000 A 
ATOM      4  C   UNL     1      49.878   4.404  18.834  0.00  0.00    +0.000 A 
ATOM      5  C   UNL     1      48.763   5.226  18.981  0.00  0.00    +0.000 A 
ATOM      6  C   UNL     1      47.665   5.073  18.136  0.00  0.00    +0.000 A 
ATOM      7  C   UNL     1      47.673   4.103  17.132  0.00  0.00    +0.000 A 
ATOM      8  C   UNL     1      48.793   3.269  17.002  0.00  0.00    +0.000 A 
BRANCH   3   9
ATOM      9  C   UNL     1      51.124   2.533  17.653  0.00  0.00    +0.000 C 
BRANCH   9  10
ATOM     10  N   UNL     1      50.877   1.384  16.781  0.00  0.00    +0.000 NA
ATOM     11  H   UNL     1      49.947   1.465  16.377  0.00  0.00    +0.000 HD
ATOM     12  H   UNL     1      50.874   0.539  17.350  0.00  0.00    +0.000 HD
ENDBRANCH   9  10
ENDBRANCH   3   9
ENDBRANCH   2   7
ENDBRANCH   1   2
BRANCH   1  13
ATOM     13  C   UNL     1      47.072   5.131  14.181  0.00  0.00    +0.000 C 
BRANCH  13  14
ATOM     14  C   UNL     1      46.299   5.109  12.882  0.00  0.00    +0.000 A 
ATOM     15  C   UNL     1      46.312   6.223  12.030  0.00  0.00    +0.000 A 
ATOM     16  C   UNL     1      45.579   6.218  10.842  0.00  0.00    +0.000 A 
ATOM     17  C   UNL     1      44.827   5.097  10.489  0.00  0.00    +0.000 A 
ATOM     18  C   UNL     1      44.805   3.975  11.324  0.00  0.00    +0.000 A 
ATOM     19  C   UNL     1      45.526   3.991  12.529  0.00  0.00    +0.000 A 
BRANCH  18  20
ATOM     20  C   UNL     1      43.994   2.803  10.898  0.00  0.00    +0.000 C 
ATOM     21  N   UNL     1      44.439   2.088   9.818  0.00  0.00    +0.000 N 
ATOM     22  O   UNL     1      42.946   2.507  11.454  0.00  0.00    +0.000 OA
ATOM     23  H   UNL     1      45.140   2.443   9.186  0.00  0.00    +0.000 HD
ATOM     24  H   UNL     1      43.806   1.382   9.465  0.00  0.00    +0.000 HD
ENDBRANCH  18  20
ENDBRANCH  13  14
ENDBRANCH   1  13
TORSDOF 7
ENDMDL
