MODEL 1
REMARK VINA RESULT:    -8.494      0.000      0.000
REMARK INTER + INTRA:         -12.694
REMARK INTER:                 -11.473
REMARK INTRA:                  -1.221
REMARK UNBOUND:                -1.221
REMARK  Name = 
REMARK  7 active torsions:
REMARK  status: ('A' for Active; 'I' for Inactive)
REMARK    1  A    between atoms: C_1  and  C_2
REMARK    2  A    between atoms: C_2  and  C_3
REMARK    3  A    between atoms: C_2  and  C_15
REMARK    4  A    between atoms: C_3  and  O_4
REMARK    5  A    between atoms: O_4  and  C_5
REMARK    6  A    between atoms: C_8  and  C_9
REMARK    7  A    between atoms: C_19  and  C_20
REMARK                            x       y       z     vdW  Elec       q    Type
REMARK                         _______ _______ _______ _____ _____    ______ ____
ROOT
ATOM      1  C   UNL     1      43.212   4.396  12.991  0.00  0.00    +0.000 C 
ATOM      2  C   UNL     1      43.803   5.543  12.159  0.00  0.00    +0.000 C 
ENDROOT
BRANCH   2   3
ATOM      3  C   UNL     1      45.276   5.720  12.488  0.00  0.00    +0.000 A 
ATOM      4  C   UNL     1      46.076   6.551  11.695  0.00  0.00    +0.000 A 
ATOM      5  C   UNL     1      47.410   6.768  12.028  0.00  0.00    +0.000 A 
ATOM      6  C   UNL     1      47.948   6.180  13.174  0.00  0.00    +0.000 A 
ATOM      7  C   UNL     1      47.167   5.373  14.019  0.00  0.00    +0.000 A 
ATOM      8  C   UNL     1      45.841   5.120  13.627  0.00  0.00    +0.000 A 
BRANCH   7   9
ATOM      9  C   UNL     1      47.675   4.910  15.335  0.00  0.00    +0.000 A 
ATOM     10  C   UNL     1      48.462   5.767  16.124  0.00  0.00    +0.000 A 
ATOM     11  C   UNL     1      48.868   5.410  17.408  0.00  0.00    +0.000 A 
ATOM     12  C   UNL     1      48.483   4.186  17.942  0.00  0.00    +0.000 A 
ATOM     13  C   UNL     1      47.712   3.312  17.181  0.00  0.00    +0.000 A 
ATOM     14  C   UNL     1      47.318   3.669  15.885  0.00  0.00    +0.000 A 
ENDBRANCH   7   9
ENDBRANCH   2   3
BRANCH   2  15
ATOM     15  C   UNL     1      43.564   5.315  10.655  0.00  0.00    +0.000 C 
BRANCH  15  16
ATOM     16  O   UNL     1      43.589   3.906  10.384  0.00  0.00    +0.000 OA
BRANCH  16  17
ATOM     17  C   UNL     1      44.523   3.457   9.499  0.00  0.00    +0.000 A 
ATOM     18  C   UNL     1      45.140   4.430   8.715  0.00  0.00    +0.000 A 
ATOM     19  N   UNL     1      46.082   4.178   7.767  0.00  0.00    +0.000 NA
ATOM     20  C   UNL     1      46.425   2.862   7.599  0.00  0.00    +0.000 A 
ATOM     21  C   UNL     1      45.863   1.830   8.341  0.00  0.00    +0.000 A 
ATOM     22  F   UNL     1      46.207   0.549   8.166  0.00  0.00    +0.000 F 
ATOM     23  C   UNL     1      44.901   2.135   9.303  0.00  0.00    +0.000 A 
BRANCH  20  24
ATOM     24  C   UNL     1      47.454   2.579   6.554  0.00  0.00    +0.000 C 
ATOM     25  N   UNL     1      47.195   3.114   5.318  0.00  0.00    +0.000 N 
ATOM     26  O   UNL     1      48.468   1.921   6.752  0.00  0.00    +0.000 OA
ATOM     27  H   UNL     1      46.353   3.661   5.170  0.00  0.00    +0.000 HD
ATOM     28  H   UNL     1      47.853   2.963   4.566  0.00  0.00    +0.000 HD
ENDBRANCH  20  24
ENDBRANCH  16  17
ENDBRANCH  15  16
ENDBRANCH   2  15
TORSDOF 6
ENDMDL
MODEL 2
REMARK VINA RESULT:    -8.361      1.775      3.567
REMARK INTER + INTRA:         -12.515
REMARK INTER:                 -11.308
REMARK INTRA:                  -1.207
REMARK UNBOUND:                -1.221
REMARK  Name = 
REMARK  7 active torsions:
REMARK  status: ('A' for Active; 'I' for Inactive)
REMARK    1  A    between atoms: C_1  and  C_2
REMARK    2  A    between atoms: C_2  and  C_3
REMARK    3  A    between atoms: C_2  and  C_15
REMARK    4  A    between atoms: C_3  and  O_4
REMARK    5  A    between atoms: O_4  and  C_5
REMARK    6  A    between atoms: C_8  and  C_9
REMARK    7  A    between atoms: C_19  and  C_20
REMARK                            x       y       z     vdW  Elec       q    Type
REMARK                         _______ _______ _______ _____ _____    ______ ____
ROOT
ATOM      1  C   UNL     1      42.854   4.764  12.916  0.00  0.00    +0.000 C 
ATOM      2  C   UNL     1      43.695   5.681  12.015  0.00  0.00    +0.000 C 
ENDROOT
BRANCH   2   3
ATOM      3  C   UNL     1      45.119   5.765  12.542  0.00  0.00    +0.000 A 
ATOM      4  C   UNL     1      45.651   4.712  13.294  0.00  0.00    +0.000 A 
ATOM      5  C   UNL     1      46.974   4.756  13.725  0.00  0.00    +0.000 A 
ATOM      6  C   UNL     1      47.784   5.838  13.382  0.00  0.00    +0.000 A 
ATOM      7  C   UNL     1      47.300   6.897  12.594  0.00  0.00    +0.000 A 
ATOM      8  C   UNL     1      45.944   6.858  12.224  0.00  0.00    +0.000 A 
BRANCH   7   9
ATOM      9  C   UNL     1      48.206   7.946  12.064  0.00  0.00    +0.000 A 
ATOM     10  C   UNL     1      47.777   9.283  12.008  0.00  0.00    +0.000 A 
ATOM     11  C   UNL     1      48.634  10.310  11.618  0.00  0.00    +0.000 A 
ATOM     12  C   UNL     1      49.953  10.023  11.285  0.00  0.00    +0.000 A 
ATOM     13  C   UNL     1      50.405   8.708  11.321  0.00  0.00    +0.000 A 
ATOM     14  C   UNL     1      49.536   7.676  11.700  0.00  0.00    +0.000 A 
ENDBRANCH   7   9
ENDBRANCH   2   3
BRANCH   2  15
ATOM     15  C   UNL     1      43.642   5.216  10.549  0.00  0.00    +0.000 C 
BRANCH  15  16
ATOM     16  O   UNL     1      43.944   3.814  10.489  0.00  0.00    +0.000 OA
BRANCH  16  17
ATOM     17  C   UNL     1      44.770   3.395   9.491  0.00  0.00    +0.000 A 
ATOM     18  C   UNL     1      45.258   4.389   8.643  0.00  0.00    +0.000 A 
ATOM     19  N   UNL     1      46.079   4.168   7.582  0.00  0.00    +0.000 NA
ATOM     20  C   UNL     1      46.433   2.862   7.361  0.00  0.00    +0.000 A 
ATOM     21  C   UNL     1      45.997   1.812   8.159  0.00  0.00    +0.000 A 
ATOM     22  F   UNL     1      46.351   0.542   7.932  0.00  0.00    +0.000 F 
ATOM     23  C   UNL     1      45.156   2.085   9.237  0.00  0.00    +0.000 A 
BRANCH  20  24
ATOM     24  C   UNL     1      47.329   2.613   6.193  0.00  0.00    +0.000 C 
ATOM     25  N   UNL     1      48.661   2.488   6.492  0.00  0.00    +0.000 N 
ATOM     26  O   UNL     1      46.936   2.522   5.036  0.00  0.00    +0.000 OA
ATOM     27  H   UNL     1      48.972   2.562   7.456  0.00  0.00    +0.000 HD
ATOM     28  H   UNL     1      49.323   2.316   5.748  0.00  0.00    +0.000 HD
ENDBRANCH  20  24
ENDBRANCH  16  17
ENDBRANCH  15  16
ENDBRANCH   2  15
TORSDOF 6
ENDMDL
MODEL 3
REMARK VINA RESULT:    -7.319      3.973      7.749
REMARK INTER + INTRA:         -11.107
REMARK INTER:                 -10.354
REMARK INTRA:                  -0.753
REMARK UNBOUND:                -1.221
REMARK  Name = 
REMARK  7 active torsions:
REMARK  status: ('A' for Active; 'I' for Inactive)
REMARK    1  A    between atoms: C_1  and  C_2
REMARK    2  A    between atoms: C_2  and  C_3
REMARK    3  A    between atoms: C_2  and  C_15
REMARK    4  A    between atoms: C_3  and  O_4
REMARK    5  A    between atoms: O_4  and  C_5
REMARK    6  A    between atoms: C_8  and  C_9
REMARK    7  A    between atoms: C_19  and  C_20
REMARK                            x       y       z     vdW  Elec       q    Type
REMARK                         _______ _______ _______ _____ _____    ______ ____
ROOT
ATOM      1  C   UNL     1      45.783   8.922  11.700  0.00  0.00    +0.000 C 
ATOM      2  C   UNL     1      46.074   7.536  12.293  0.00  0.00    +0.000 C 
ENDROOT
BRANCH   2   3
ATOM      3  C   UNL     1      45.166   6.495  11.659  0.00  0.00    +0.000 A 
ATOM      4  C   UNL     1      43.780   6.568  11.845  0.00  0.00    +0.000 A 
ATOM      5  C   UNL     1      42.939   5.656  11.215  0.00  0.00    +0.000 A 
ATOM      6  C   UNL     1      43.472   4.682  10.370  0.00  0.00    +0.000 A 
ATOM      7  C   UNL     1      44.854   4.601  10.124  0.00  0.00    +0.000 A 
ATOM      8  C   UNL     1      45.687   5.494  10.821  0.00  0.00    +0.000 A 
BRANCH   7   9
ATOM      9  C   UNL     1      45.404   3.701   9.080  0.00  0.00    +0.000 A 
ATOM     10  C   UNL     1      46.025   4.243   7.941  0.00  0.00    +0.000 A 
ATOM     11  C   UNL     1      46.646   3.433   6.993  0.00  0.00    +0.000 A 
ATOM     12  C   UNL     1      46.673   2.055   7.168  0.00  0.00    +0.000 A 
ATOM     13  C   UNL     1      46.058   1.488   8.280  0.00  0.00    +0.000 A 
ATOM     14  C   UNL     1      45.421   2.304   9.224  0.00  0.00    +0.000 A 
ENDBRANCH   7   9
ENDBRANCH   2   3
BRANCH   2  15
ATOM     15  C   UNL     1      47.564   7.175  12.151  0.00  0.00    +0.000 C 
BRANCH  15  16
ATOM     16  O   UNL     1      48.233   7.444  13.392  0.00  0.00    +0.000 OA
BRANCH  16  17
ATOM     17  C   UNL     1      48.162   6.488  14.359  0.00  0.00    +0.000 A 
ATOM     18  C   UNL     1      47.546   5.292  13.994  0.00  0.00    +0.000 A 
ATOM     19  N   UNL     1      47.365   4.228  14.822  0.00  0.00    +0.000 NA
ATOM     20  C   UNL     1      47.836   4.379  16.100  0.00  0.00    +0.000 A 
ATOM     21  C   UNL     1      48.467   5.534  16.546  0.00  0.00    +0.000 A 
ATOM     22  F   UNL     1      48.922   5.667  17.797  0.00  0.00    +0.000 F 
ATOM     23  C   UNL     1      48.631   6.599  15.662  0.00  0.00    +0.000 A 
BRANCH  20  24
ATOM     24  C   UNL     1      47.633   3.216  17.016  0.00  0.00    +0.000 C 
ATOM     25  N   UNL     1      48.764   2.500  17.312  0.00  0.00    +0.000 N 
ATOM     26  O   UNL     1      46.548   2.897  17.486  0.00  0.00    +0.000 OA
ATOM     27  H   UNL     1      49.657   2.779  16.918  0.00  0.00    +0.000 HD
ATOM     28  H   UNL     1      48.698   1.702  17.929  0.00  0.00    +0.000 HD
ENDBRANCH  20  24
ENDBRANCH  16  17
ENDBRANCH  15  16
ENDBRANCH   2  15
TORSDOF 6
ENDMDL
MODEL 4
REMARK VINA RESULT:    -7.090      3.963      7.914
REMARK INTER + INTRA:         -10.798
REMARK INTER:                  -9.720
REMARK INTRA:                  -1.078
REMARK UNBOUND:                -1.221
REMARK  Name = 
REMARK  7 active torsions:
REMARK  status: ('A' for Active; 'I' for Inactive)
REMARK    1  A    between atoms: C_1  and  C_2
REMARK    2  A    between atoms: C_2  and  C_3
REMARK    3  A    between atoms: C_2  and  C_15
REMARK    4  A    between atoms: C_3  and  O_4
REMARK    5  A    between atoms: O_4  and  C_5
REMARK    6  A    between atoms: C_8  and  C_9
REMARK    7  A    between atoms: C_19  and  C_20
REMARK                            x       y       z     vdW  Elec       q    Type
REMARK                         _______ _______ _______ _____ _____    ______ ____
ROOT
ATOM      1  C   UNL     1      43.602   4.026  12.888  0.00  0.00    +0.000 C 
ATOM      2  C   UNL     1      44.737   3.220  12.240  0.00  0.00    +0.000 C 
ENDROOT
BRANCH   2   3
ATOM      3  C   UNL     1      45.091   3.815  10.886  0.00  0.00    +0.000 A 
ATOM      4  C   UNL     1      45.234   5.200  10.745  0.00  0.00    +0.000 A 
ATOM      5  C   UNL     1      45.620   5.745   9.524  0.00  0.00    +0.000 A 
ATOM      6  C   UNL     1      45.894   4.909   8.441  0.00  0.00    +0.000 A 
ATOM      7  C   UNL     1      45.801   3.511   8.553  0.00  0.00    +0.000 A 
ATOM      8  C   UNL     1      45.351   2.990   9.778  0.00  0.00    +0.000 A 
BRANCH   7   9
ATOM      9  C   UNL     1      46.281   2.614   7.471  0.00  0.00    +0.000 A 
ATOM     10  C   UNL     1      46.520   3.130   6.186  0.00  0.00    +0.000 A 
ATOM     11  C   UNL     1      47.071   2.345   5.175  0.00  0.00    +0.000 A 
ATOM     12  C   UNL     1      47.409   1.022   5.431  0.00  0.00    +0.000 A 
ATOM     13  C   UNL     1      47.176   0.480   6.691  0.00  0.00    +0.000 A 
ATOM     14  C   UNL     1      46.608   1.268   7.701  0.00  0.00    +0.000 A 
ENDBRANCH   7   9
ENDBRANCH   2   3
BRANCH   2  15
ATOM     15  C   UNL     1      45.957   3.131  13.174  0.00  0.00    +0.000 C 
BRANCH  15  16
ATOM     16  O   UNL     1      45.825   4.112  14.214  0.00  0.00    +0.000 OA
BRANCH  16  17
ATOM     17  C   UNL     1      46.860   4.982  14.385  0.00  0.00    +0.000 A 
ATOM     18  C   UNL     1      47.578   4.852  15.572  0.00  0.00    +0.000 A 
ATOM     19  N   UNL     1      48.630   5.636  15.931  0.00  0.00    +0.000 NA
ATOM     20  C   UNL     1      48.981   6.612  15.035  0.00  0.00    +0.000 A 
ATOM     21  C   UNL     1      48.323   6.808  13.828  0.00  0.00    +0.000 A 
ATOM     22  F   UNL     1      48.676   7.765  12.963  0.00  0.00    +0.000 F 
ATOM     23  C   UNL     1      47.250   5.980  13.501  0.00  0.00    +0.000 A 
BRANCH  20  24
ATOM     24  C   UNL     1      50.132   7.480  15.428  0.00  0.00    +0.000 C 
ATOM     25  N   UNL     1      51.158   7.538  14.521  0.00  0.00    +0.000 N 
ATOM     26  O   UNL     1      50.187   8.110  16.478  0.00  0.00    +0.000 OA
ATOM     27  H   UNL     1      51.097   7.014  13.654  0.00  0.00    +0.000 HD
ATOM     28  H   UNL     1      51.966   8.110  14.723  0.00  0.00    +0.000 HD
ENDBRANCH  20  24
ENDBRANCH  16  17
ENDBRANCH  15  16
ENDBRANCH   2  15
TORSDOF 6
ENDMDL
MODEL 5
REMARK VINA RESULT:    -6.731      4.757      8.469
REMARK INTER + INTRA:         -10.313
REMARK INTER:                  -9.307
REMARK INTRA:                  -1.006
REMARK UNBOUND:                -1.221
REMARK  Name = 
REMARK  7 active torsions:
REMARK  status: ('A' for Active; 'I' for Inactive)
REMARK    1  A    between atoms: C_1  and  C_2
REMARK    2  A    between atoms: C_2  and  C_3
REMARK    3  A    between atoms: C_2  and  C_15
REMARK    4  A    between atoms: C_3  and  O_4
REMARK    5  A    between atoms: O_4  and  C_5
REMARK    6  A    between atoms: C_8  and  C_9
REMARK    7  A    between atoms: C_19  and  C_20
REMARK                            x       y       z     vdW  Elec       q    Type
REMARK                         _______ _______ _______ _____ _____    ______ ____
ROOT
ATOM      1  C   UNL     1      49.677   7.479  11.634  0.00  0.00    +0.000 C 
ATOM      2  C   UNL     1      48.704   8.174  12.595  0.00  0.00    +0.000 C 
ENDROOT
BRANCH   2   3
ATOM      3  C   UNL     1      47.271   7.805  12.245  0.00  0.00    +0.000 A 
ATOM      4  C   UNL     1      46.236   8.720  12.468  0.00  0.00    +0.000 A 
ATOM      5  C   UNL     1      44.933   8.412  12.091  0.00  0.00    +0.000 A 
ATOM      6  C   UNL     1      44.657   7.199  11.460  0.00  0.00    +0.000 A 
ATOM      7  C   UNL     1      45.674   6.270  11.180  0.00  0.00    +0.000 A 
ATOM      8  C   UNL     1      46.971   6.578  11.627  0.00  0.00    +0.000 A 
BRANCH   7   9
ATOM      9  C   UNL     1      45.421   5.074  10.337  0.00  0.00    +0.000 A 
ATOM     10  C   UNL     1      44.698   3.987  10.859  0.00  0.00    +0.000 A 
ATOM     11  C   UNL     1      44.348   2.895  10.067  0.00  0.00    +0.000 A 
ATOM     12  C   UNL     1      44.704   2.870   8.724  0.00  0.00    +0.000 A 
ATOM     13  C   UNL     1      45.427   3.927   8.181  0.00  0.00    +0.000 A 
ATOM     14  C   UNL     1      45.790   5.017   8.983  0.00  0.00    +0.000 A 
ENDBRANCH   7   9
ENDBRANCH   2   3
BRANCH   2  15
ATOM     15  C   UNL     1      49.047   7.851  14.061  0.00  0.00    +0.000 C 
BRANCH  15  16
ATOM     16  O   UNL     1      48.910   6.439  14.275  0.00  0.00    +0.000 OA
BRANCH  16  17
ATOM     17  C   UNL     1      48.614   6.025  15.539  0.00  0.00    +0.000 A 
ATOM     18  C   UNL     1      49.218   6.739  16.573  0.00  0.00    +0.000 A 
ATOM     19  N   UNL     1      49.060   6.468  17.897  0.00  0.00    +0.000 NA
ATOM     20  C   UNL     1      48.240   5.411  18.197  0.00  0.00    +0.000 A 
ATOM     21  C   UNL     1      47.596   4.650  17.229  0.00  0.00    +0.000 A 
ATOM     22  F   UNL     1      46.799   3.620  17.536  0.00  0.00    +0.000 F 
ATOM     23  C   UNL     1      47.787   4.964  15.884  0.00  0.00    +0.000 A 
BRANCH  20  24
ATOM     24  C   UNL     1      48.069   5.104  19.649  0.00  0.00    +0.000 C 
ATOM     25  N   UNL     1      48.666   3.947  20.077  0.00  0.00    +0.000 N 
ATOM     26  O   UNL     1      47.446   5.815  20.429  0.00  0.00    +0.000 OA
ATOM     27  H   UNL     1      49.182   3.371  19.420  0.00  0.00    +0.000 HD
ATOM     28  H   UNL     1      48.591   3.682  21.049  0.00  0.00    +0.000 HD
ENDBRANCH  20  24
ENDBRANCH  16  17
ENDBRANCH  15  16
ENDBRANCH   2  15
TORSDOF 6
ENDMDL
MODEL 6
REMARK VINA RESULT:    -6.717      2.990      4.363
REMARK INTER + INTRA:         -10.295
REMARK INTER:                  -9.074
REMARK INTRA:                  -1.221
REMARK UNBOUND:                -1.221
REMARK  Name = 
REMARK  7 active torsions:
REMARK  status: ('A' for Active; 'I' for Inactive)
REMARK    1  A    between atoms: C_1  and  C_2
REMARK    2  A    between atoms: C_2  and  C_3
REMARK    3  A    between atoms: C_2  and  C_15
REMARK    4  A    between atoms: C_3  and  O_4
REMARK    5  A    between atoms: O_4  and  C_5
REMARK    6  A    between atoms: C_8  and  C_9
REMARK    7  A    between atoms: C_19  and  C_20
REMARK                            x       y       z     vdW  Elec       q    Type
REMARK                         _______ _______ _______ _____ _____    ______ ____
ROOT
ATOM      1  C   UNL     1      49.102   8.884  11.720  0.00  0.00    +0.000 C 
ATOM      2  C   UNL     1      48.086   7.959  12.405  0.00  0.00    +0.000 C 
ENDROOT
BRANCH   2   3
ATOM      3  C   UNL     1      48.334   7.932  13.905  0.00  0.00    +0.000 A 
ATOM      4  C   UNL     1      48.262   9.115  14.649  0.00  0.00    +0.000 A 
ATOM      5  C   UNL     1      48.425   9.087  16.030  0.00  0.00    +0.000 A 
ATOM      6  C   UNL     1      48.632   7.872  16.684  0.00  0.00    +0.000 A 
ATOM      7  C   UNL     1      48.671   6.657  15.979  0.00  0.00    +0.000 A 
ATOM      8  C   UNL     1      48.565   6.720  14.578  0.00  0.00    +0.000 A 
BRANCH   7   9
ATOM      9  C   UNL     1      48.692   5.352  16.685  0.00  0.00    +0.000 A 
ATOM     10  C   UNL     1      49.871   4.909  17.309  0.00  0.00    +0.000 A 
ATOM     11  C   UNL     1      49.902   3.743  18.071  0.00  0.00    +0.000 A 
ATOM     12  C   UNL     1      48.743   2.995  18.239  0.00  0.00    +0.000 A 
ATOM     13  C   UNL     1      47.562   3.402  17.627  0.00  0.00    +0.000 A 
ATOM     14  C   UNL     1      47.539   4.566  16.849  0.00  0.00    +0.000 A 
ENDBRANCH   7   9
ENDBRANCH   2   3
BRANCH   2  15
ATOM     15  C   UNL     1      46.643   8.370  12.059  0.00  0.00    +0.000 C 
BRANCH  15  16
ATOM     16  O   UNL     1      45.735   7.654  12.909  0.00  0.00    +0.000 OA
BRANCH  16  17
ATOM     17  C   UNL     1      45.372   6.400  12.517  0.00  0.00    +0.000 A 
ATOM     18  C   UNL     1      44.313   6.323  11.614  0.00  0.00    +0.000 A 
ATOM     19  N   UNL     1      43.797   5.165  11.121  0.00  0.00    +0.000 NA
ATOM     20  C   UNL     1      44.387   4.011  11.567  0.00  0.00    +0.000 A 
ATOM     21  C   UNL     1      45.449   3.996  12.462  0.00  0.00    +0.000 A 
ATOM     22  F   UNL     1      46.015   2.862  12.889  0.00  0.00    +0.000 F 
ATOM     23  C   UNL     1      45.946   5.208  12.941  0.00  0.00    +0.000 A 
BRANCH  20  24
ATOM     24  C   UNL     1      43.819   2.736  11.034  0.00  0.00    +0.000 C 
ATOM     25  N   UNL     1      44.452   2.230   9.929  0.00  0.00    +0.000 N 
ATOM     26  O   UNL     1      42.857   2.158  11.526  0.00  0.00    +0.000 OA
ATOM     27  H   UNL     1      45.250   2.718   9.535  0.00  0.00    +0.000 HD
ATOM     28  H   UNL     1      44.120   1.368   9.519  0.00  0.00    +0.000 HD
ENDBRANCH  20  24
ENDBRANCH  16  17
ENDBRANCH  15  16
ENDBRANCH   2  15
TORSDOF 6
ENDMDL
MODEL 7
REMARK VINA RESULT:    -6.534      4.385      7.252
REMARK INTER + INTRA:         -10.047
REMARK INTER:                  -8.647
REMARK INTRA:                  -1.400
REMARK UNBOUND:                -1.221
REMARK  Name = 
REMARK  7 active torsions:
REMARK  status: ('A' for Active; 'I' for Inactive)
REMARK    1  A    between atoms: C_1  and  C_2
REMARK    2  A    between atoms: C_2  and  C_3
REMARK    3  A    between atoms: C_2  and  C_15
REMARK    4  A    between atoms: C_3  and  O_4
REMARK    5  A    between atoms: O_4  and  C_5
REMARK    6  A    between atoms: C_8  and  C_9
REMARK    7  A    between atoms: C_19  and  C_20
REMARK                            x       y       z     vdW  Elec       q    Type
REMARK                         _______ _______ _______ _____ _____    ______ ____
ROOT
ATOM      1  C   UNL     1      48.429  10.623  11.770  0.00  0.00    +0.000 C 
ATOM      2  C   UNL     1      47.863   9.539  12.696  0.00  0.00    +0.000 C 
ENDROOT
BRANCH   2   3
ATOM      3  C   UNL     1      46.474   9.130  12.232  0.00  0.00    +0.000 A 
ATOM      4  C   UNL     1      45.620  10.078  11.657  0.00  0.00    +0.000 A 
ATOM      5  C   UNL     1      44.372   9.697  11.173  0.00  0.00    +0.000 A 
ATOM      6  C   UNL     1      43.979   8.359  11.232  0.00  0.00    +0.000 A 
ATOM      7  C   UNL     1      44.824   7.370  11.765  0.00  0.00    +0.000 A 
ATOM      8  C   UNL     1      46.052   7.791  12.304  0.00  0.00    +0.000 A 
BRANCH   7   9
ATOM      9  C   UNL     1      44.494   5.927  11.651  0.00  0.00    +0.000 A 
ATOM     10  C   UNL     1      43.680   5.313  12.618  0.00  0.00    +0.000 A 
ATOM     11  C   UNL     1      43.261   3.991  12.489  0.00  0.00    +0.000 A 
ATOM     12  C   UNL     1      43.639   3.250  11.375  0.00  0.00    +0.000 A 
ATOM     13  C   UNL     1      44.452   3.827  10.405  0.00  0.00    +0.000 A 
ATOM     14  C   UNL     1      44.883   5.152  10.546  0.00  0.00    +0.000 A 
ENDBRANCH   7   9
ENDBRANCH   2   3
BRANCH   2  15
ATOM     15  C   UNL     1      48.822   8.339  12.795  0.00  0.00    +0.000 C 
BRANCH  15  16
ATOM     16  O   UNL     1      49.107   8.077  14.177  0.00  0.00    +0.000 OA
BRANCH  16  17
ATOM     17  C   UNL     1      48.642   6.908  14.700  0.00  0.00    +0.000 A 
ATOM     18  C   UNL     1      49.201   6.515  15.915  0.00  0.00    +0.000 A 
ATOM     19  N   UNL     1      48.881   5.375  16.583  0.00  0.00    +0.000 NA
ATOM     20  C   UNL     1      47.935   4.580  15.989  0.00  0.00    +0.000 A 
ATOM     21  C   UNL     1      47.324   4.897  14.783  0.00  0.00    +0.000 A 
ATOM     22  F   UNL     1      46.402   4.112  14.215  0.00  0.00    +0.000 F 
ATOM     23  C   UNL     1      47.683   6.077  14.133  0.00  0.00    +0.000 A 
BRANCH  20  24
ATOM     24  C   UNL     1      47.585   3.323  16.716  0.00  0.00    +0.000 C 
ATOM     25  N   UNL     1      48.572   2.371  16.749  0.00  0.00    +0.000 N 
ATOM     26  O   UNL     1      46.503   3.122  17.255  0.00  0.00    +0.000 OA
ATOM     27  H   UNL     1      49.465   2.553  16.302  0.00  0.00    +0.000 HD
ATOM     28  H   UNL     1      48.402   1.498  17.228  0.00  0.00    +0.000 HD
ENDBRANCH  20  24
ENDBRANCH  16  17
ENDBRANCH  15  16
ENDBRANCH   2  15
TORSDOF 6
ENDMDL
MODEL 8
REMARK VINA RESULT:    -6.518      4.457     10.040
REMARK INTER + INTRA:         -10.025
REMARK INTER:                  -9.192
REMARK INTRA:                  -0.833
REMARK UNBOUND:                -1.221
REMARK  Name = 
REMARK  7 active torsions:
REMARK  status: ('A' for Active; 'I' for Inactive)
REMARK    1  A    between atoms: C_1  and  C_2
REMARK    2  A    between atoms: C_2  and  C_3
REMARK    3  A    between atoms: C_2  and  C_15
REMARK    4  A    between atoms: C_3  and  O_4
REMARK    5  A    between atoms: O_4  and  C_5
REMARK    6  A    between atoms: C_8  and  C_9
REMARK    7  A    between atoms: C_19  and  C_20
REMARK                            x       y       z     vdW  Elec       q    Type
REMARK                         _______ _______ _______ _____ _____    ______ ____
ROOT
ATOM      1  C   UNL     1      47.412   0.932   7.435  0.00  0.00    +0.000 C 
ATOM      2  C   UNL     1      47.479   1.826   6.189  0.00  0.00    +0.000 C 
ENDROOT
BRANCH   2   3
ATOM      3  C   UNL     1      46.938   1.078   4.981  0.00  0.00    +0.000 A 
ATOM      4  C   UNL     1      46.361   1.785   3.919  0.00  0.00    +0.000 A 
ATOM      5  C   UNL     1      45.922   1.111   2.783  0.00  0.00    +0.000 A 
ATOM      6  C   UNL     1      46.083  -0.271   2.686  0.00  0.00    +0.000 A 
ATOM      7  C   UNL     1      46.694  -1.012   3.712  0.00  0.00    +0.000 A 
ATOM      8  C   UNL     1      47.072  -0.317   4.874  0.00  0.00    +0.000 A 
BRANCH   7   9
ATOM      9  C   UNL     1      47.045  -2.443   3.530  0.00  0.00    +0.000 A 
ATOM     10  C   UNL     1      47.960  -2.821   2.532  0.00  0.00    +0.000 A 
ATOM     11  C   UNL     1      48.395  -4.138   2.401  0.00  0.00    +0.000 A 
ATOM     12  C   UNL     1      47.932  -5.112   3.278  0.00  0.00    +0.000 A 
ATOM     13  C   UNL     1      47.019  -4.771   4.269  0.00  0.00    +0.000 A 
ATOM     14  C   UNL     1      46.572  -3.448   4.390  0.00  0.00    +0.000 A 
ENDBRANCH   7   9
ENDBRANCH   2   3
BRANCH   2  15
ATOM     15  C   UNL     1      46.747   3.160   6.425  0.00  0.00    +0.000 C 
BRANCH  15  16
ATOM     16  O   UNL     1      45.439   2.892   6.950  0.00  0.00    +0.000 OA
BRANCH  16  17
ATOM     17  C   UNL     1      45.167   3.342   8.207  0.00  0.00    +0.000 A 
ATOM     18  C   UNL     1      44.384   2.504   9.001  0.00  0.00    +0.000 A 
ATOM     19  N   UNL     1      43.993   2.785  10.272  0.00  0.00    +0.000 NA
ATOM     20  C   UNL     1      44.419   3.987  10.777  0.00  0.00    +0.000 A 
ATOM     21  C   UNL     1      45.204   4.878  10.057  0.00  0.00    +0.000 A 
ATOM     22  F   UNL     1      45.613   6.047  10.562  0.00  0.00    +0.000 F 
ATOM     23  C   UNL     1      45.582   4.548   8.757  0.00  0.00    +0.000 A 
BRANCH  20  24
ATOM     24  C   UNL     1      43.986   4.303  12.171  0.00  0.00    +0.000 C 
ATOM     25  N   UNL     1      42.899   5.133  12.273  0.00  0.00    +0.000 N 
ATOM     26  O   UNL     1      44.540   3.870  13.175  0.00  0.00    +0.000 OA
ATOM     27  H   UNL     1      42.448   5.481  11.432  0.00  0.00    +0.000 HD
ATOM     28  H   UNL     1      42.552   5.385  13.188  0.00  0.00    +0.000 HD
ENDBRANCH  20  24
ENDBRANCH  16  17
ENDBRANCH  15  16
ENDBRANCH   2  15
TORSDOF 6
ENDMDL
MODEL 9
REMARK VINA RESULT:    -6.494      3.240      5.691
REMARK INTER + INTRA:          -9.994
REMARK INTER:                  -8.871
REMARK INTRA:                  -1.122
REMARK UNBOUND:                -1.221
REMARK  Name = 
REMARK  7 active torsions:
REMARK  status: ('A' for Active; 'I' for Inactive)
REMARK    1  A    between atoms: C_1  and  C_2
REMARK    2  A    between atoms: C_2  and  C_3
REMARK    3  A    between atoms: C_2  and  C_15
REMARK    4  A    between atoms: C_3  and  O_4
REMARK    5  A    between atoms: O_4  and  C_5
REMARK    6  A    between atoms: C_8  and  C_9
REMARK    7  A    between atoms: C_19  and  C_20
REMARK                            x       y       z     vdW  Elec       q    Type
REMARK                         _______ _______ _______ _____ _____    ______ ____
ROOT
ATOM      1  C   UNL     1      48.881   8.231  17.184  0.00  0.00    +0.000 C 
ATOM      2  C   UNL     1      49.181   7.143  16.143  0.00  0.00    +0.000 C 
ENDROOT
BRANCH   2   3
ATOM      3  C   UNL     1      49.061   5.767  16.779  0.00  0.00    +0.000 A 
ATOM      4  C   UNL     1      47.800   5.198  16.987  0.00  0.00    +0.000 A 
ATOM      5  C   UNL     1      47.687   3.913  17.509  0.00  0.00    +0.000 A 
ATOM      6  C   UNL     1      48.834   3.174  17.801  0.00  0.00    +0.000 A 
ATOM      7  C   UNL     1      50.119   3.694  17.568  0.00  0.00    +0.000 A 
ATOM      8  C   UNL     1      50.206   5.016  17.098  0.00  0.00    +0.000 A 
BRANCH   7   9
ATOM      9  C   UNL     1      51.331   2.845  17.688  0.00  0.00    +0.000 A 
ATOM     10  C   UNL     1      52.509   3.377  18.240  0.00  0.00    +0.000 A 
ATOM     11  C   UNL     1      53.632   2.583  18.468  0.00  0.00    +0.000 A 
ATOM     12  C   UNL     1      53.598   1.229  18.160  0.00  0.00    +0.000 A 
ATOM     13  C   UNL     1      52.449   0.675  17.604  0.00  0.00    +0.000 A 
ATOM     14  C   UNL     1      51.327   1.478  17.363  0.00  0.00    +0.000 A 
ENDBRANCH   7   9
ENDBRANCH   2   3
BRANCH   2  15
ATOM     15  C   UNL     1      48.276   7.295  14.907  0.00  0.00    +0.000 C 
BRANCH  15  16
ATOM     16  O   UNL     1      48.532   6.212  14.001  0.00  0.00    +0.000 OA
BRANCH  16  17
ATOM     17  C   UNL     1      47.489   5.771  13.244  0.00  0.00    +0.000 A 
ATOM     18  C   UNL     1      47.138   6.573  12.159  0.00  0.00    +0.000 A 
ATOM     19  N   UNL     1      46.118   6.311  11.299  0.00  0.00    +0.000 NA
ATOM     20  C   UNL     1      45.405   5.167  11.549  0.00  0.00    +0.000 A 
ATOM     21  C   UNL     1      45.688   4.310  12.604  0.00  0.00    +0.000 A 
ATOM     22  F   UNL     1      44.984   3.197  12.836  0.00  0.00    +0.000 F 
ATOM     23  C   UNL     1      46.745   4.618  13.460  0.00  0.00    +0.000 A 
BRANCH  20  24
ATOM     24  C   UNL     1      44.277   4.879  10.612  0.00  0.00    +0.000 C 
ATOM     25  N   UNL     1      43.215   5.742  10.692  0.00  0.00    +0.000 N 
ATOM     26  O   UNL     1      44.270   3.947   9.817  0.00  0.00    +0.000 OA
ATOM     27  H   UNL     1      43.237   6.512  11.353  0.00  0.00    +0.000 HD
ATOM     28  H   UNL     1      42.420   5.606  10.083  0.00  0.00    +0.000 HD
ENDBRANCH  20  24
ENDBRANCH  16  17
ENDBRANCH  15  16
ENDBRANCH   2  15
TORSDOF 6
ENDMDL
