MODEL 1
REMARK VINA RESULT:    -8.725      0.000      0.000
REMARK INTER + INTRA:         -11.949
REMARK INTER:                 -11.275
REMARK INTRA:                  -0.674
REMARK UNBOUND:                -0.674
REMARK  Name = 
REMARK  5 active torsions:
REMARK  status: ('A' for Active; 'I' for Inactive)
REMARK    1  A    between atoms: C_2  and  C_4
REMARK    2  A    between atoms: C_9  and  C_10
REMARK    3  A    between atoms: C_10  and  N_11
REMARK    4  A    between atoms: N_11  and  C_12
REMARK    5  A    between atoms: C_16  and  C_17
REMARK                            x       y       z     vdW  Elec       q    Type
REMARK                         _______ _______ _______ _____ _____    ______ ____
ROOT
ATOM      1  N   UNL     1      43.451   6.078  10.659  0.00  0.00    +0.000 N 
ATOM      2  H   UNL     1      44.027   6.721  10.121  0.00  0.00    +0.000 HD
ENDROOT
BRANCH   1   3
ATOM      3  C   UNL     1      43.713   4.744  10.314  0.00  0.00    +0.000 A 
ATOM      4  C   UNL     1      43.231   3.707  11.116  0.00  0.00    +0.000 A 
ATOM      5  N   UNL     1      43.467   2.390  10.919  0.00  0.00    +0.000 NA
ATOM      6  C   UNL     1      44.282   2.079   9.886  0.00  0.00    +0.000 A 
ATOM      7  C   UNL     1      44.893   3.005   9.038  0.00  0.00    +0.000 A 
ATOM      8  C   UNL     1      44.578   4.360   9.282  0.00  0.00    +0.000 A 
BRANCH   7   9
ATOM      9  C   UNL     1      45.842   2.591   7.979  0.00  0.00    +0.000 A 
ATOM     10  C   UNL     1      46.479   1.336   8.006  0.00  0.00    +0.000 A 
ATOM     11  C   UNL     1      47.347   0.934   6.983  0.00  0.00    +0.000 A 
ATOM     12  C   UNL     1      47.608   1.785   5.914  0.00  0.00    +0.000 A 
ATOM     13  C   UNL     1      47.004   3.036   5.866  0.00  0.00    +0.000 A 
ATOM     14  C   UNL     1      46.129   3.430   6.884  0.00  0.00    +0.000 A 
ENDBRANCH   7   9
ENDBRANCH   1   3
BRANCH   1  15
ATOM     15  C   UNL     1      43.413   6.458  12.071  0.00  0.00    +0.000 C 
BRANCH  15  21
ATOM     16  C   UNL     1      46.606   5.372  13.862  0.00  0.00    +0.000 A 
ATOM     17  C   UNL     1      47.461   6.454  13.642  0.00  0.00    +0.000 A 
ATOM     18  C   UNL     1      47.007   7.559  12.918  0.00  0.00    +0.000 A 
ATOM     19  C   UNL     1      45.702   7.590  12.408  0.00  0.00    +0.000 A 
ATOM     20 CL   UNL     1      45.237   9.004  11.533  0.00  0.00    +0.000 Cl
ATOM     21  C   UNL     1      44.830   6.508  12.608  0.00  0.00    +0.000 A 
ATOM     22  C   UNL     1      45.308   5.394  13.336  0.00  0.00    +0.000 A 
BRANCH  16  24
ATOM     23  N   UNL     1      46.985   4.251  15.990  0.00  0.00    +0.000 N 
ATOM     24  C   UNL     1      47.044   4.175  14.626  0.00  0.00    +0.000 C 
ATOM     25  O   UNL     1      47.406   3.151  14.064  0.00  0.00    +0.000 OA
ATOM     26  H   UNL     1      47.173   3.391  16.491  0.00  0.00    +0.000 HD
ATOM     27  H   UNL     1      46.461   4.966  16.473  0.00  0.00    +0.000 HD
ENDBRANCH  16  24
ENDBRANCH  15  21
ENDBRANCH   1  15
TORSDOF 5
ENDMDL
MODEL 2
REMARK VINA RESULT:    -8.241      2.636      3.102
REMARK INTER + INTRA:         -11.323
REMARK INTER:                 -10.367
REMARK INTRA:                  -0.956
REMARK UNBOUND:                -0.674
REMARK  Name = 
REMARK  5 active torsions:
REMARK  status: ('A' for Active; 'I' for Inactive)
REMARK    1  A    between atoms: C_2  and  C_4
REMARK    2  A    between atoms: C_9  and  C_10
REMARK    3  A    between atoms: C_10  and  N_11
REMARK    4  A    between atoms: N_11  and  C_12
REMARK    5  A    between atoms: C_16  and  C_17
REMARK                            x       y       z     vdW  Elec       q    Type
REMARK                         _______ _______ _______ _____ _____    ______ ____
ROOT
ATOM      1  N   UNL     1      44.239   6.413  10.980  0.00  0.00    +0.000 N 
ATOM      2  H   UNL     1      44.761   6.998  10.332  0.00  0.00    +0.000 HD
ENDROOT
BRANCH   1   3
ATOM      3  C   UNL     1      44.211   5.077  10.556  0.00  0.00    +0.000 A 
ATOM      4  C   UNL     1      43.505   4.124  11.294  0.00  0.00    +0.000 A 
ATOM      5  N   UNL     1      43.453   2.801  11.017  0.00  0.00    +0.000 NA
ATOM      6  C   UNL     1      44.195   2.382   9.968  0.00  0.00    +0.000 A 
ATOM      7  C   UNL     1      45.002   3.201   9.177  0.00  0.00    +0.000 A 
ATOM      8  C   UNL     1      44.985   4.575   9.502  0.00  0.00    +0.000 A 
BRANCH   7   9
ATOM      9  C   UNL     1      45.852   2.654   8.094  0.00  0.00    +0.000 A 
ATOM     10  C   UNL     1      46.345   1.336   8.136  0.00  0.00    +0.000 A 
ATOM     11  C   UNL     1      47.118   0.811   7.093  0.00  0.00    +0.000 A 
ATOM     12  C   UNL     1      47.426   1.598   5.988  0.00  0.00    +0.000 A 
ATOM     13  C   UNL     1      46.965   2.907   5.925  0.00  0.00    +0.000 A 
ATOM     14  C   UNL     1      46.185   3.426   6.964  0.00  0.00    +0.000 A 
ENDBRANCH   7   9
ENDBRANCH   1   3
BRANCH   1  15
ATOM     15  C   UNL     1      44.594   6.716  12.366  0.00  0.00    +0.000 C 
BRANCH  15  21
ATOM     16  C   UNL     1      48.053   8.318  12.131  0.00  0.00    +0.000 A 
ATOM     17  C   UNL     1      48.886   7.317  12.636  0.00  0.00    +0.000 A 
ATOM     18  C   UNL     1      48.336   6.101  13.048  0.00  0.00    +0.000 A 
ATOM     19  C   UNL     1      46.955   5.877  12.963  0.00  0.00    +0.000 A 
ATOM     20 CL   UNL     1      46.378   4.339  13.491  0.00  0.00    +0.000 Cl
ATOM     21  C   UNL     1      46.098   6.874  12.469  0.00  0.00    +0.000 A 
ATOM     22  C   UNL     1      46.671   8.102  12.064  0.00  0.00    +0.000 A 
BRANCH  16  24
ATOM     23  N   UNL     1      49.952   9.754  11.623  0.00  0.00    +0.000 N 
ATOM     24  C   UNL     1      48.592   9.628  11.681  0.00  0.00    +0.000 C 
ATOM     25  O   UNL     1      47.856  10.542  11.340  0.00  0.00    +0.000 OA
ATOM     26  H   UNL     1      50.301  10.608  11.203  0.00  0.00    +0.000 HD
ATOM     27  H   UNL     1      50.574   8.959  11.646  0.00  0.00    +0.000 HD
ENDBRANCH  16  24
ENDBRANCH  15  21
ENDBRANCH   1  15
TORSDOF 5
ENDMDL
MODEL 3
REMARK VINA RESULT:    -8.091      1.655      1.890
REMARK INTER + INTRA:         -11.130
REMARK INTER:                 -10.433
REMARK INTRA:                  -0.697
REMARK UNBOUND:                -0.674
REMARK  Name = 
REMARK  5 active torsions:
REMARK  status: ('A' for Active; 'I' for Inactive)
REMARK    1  A    between atoms: C_2  and  C_4
REMARK    2  A    between atoms: C_9  and  C_10
REMARK    3  A    between atoms: C_10  and  N_11
REMARK    4  A    between atoms: N_11  and  C_12
REMARK    5  A    between atoms: C_16  and  C_17
REMARK                            x       y       z     vdW  Elec       q    Type
REMARK                         _______ _______ _______ _____ _____    ______ ____
ROOT
ATOM      1  N   UNL     1      44.079   6.402  10.771  0.00  0.00    +0.000 N 
ATOM      2  H   UNL     1      44.691   6.973  10.194  0.00  0.00    +0.000 HD
ENDROOT
BRANCH   1   3
ATOM      3  C   UNL     1      44.126   5.054  10.390  0.00  0.00    +0.000 A 
ATOM      4  C   UNL     1      43.479   4.085  11.162  0.00  0.00    +0.000 A 
ATOM      5  N   UNL     1      43.503   2.753  10.928  0.00  0.00    +0.000 NA
ATOM      6  C   UNL     1      44.263   2.345   9.887  0.00  0.00    +0.000 A 
ATOM      7  C   UNL     1      45.019   3.184   9.066  0.00  0.00    +0.000 A 
ATOM      8  C   UNL     1      44.923   4.564   9.348  0.00  0.00    +0.000 A 
BRANCH   7   9
ATOM      9  C   UNL     1      45.895   2.652   7.996  0.00  0.00    +0.000 A 
ATOM     10  C   UNL     1      46.402   1.340   8.040  0.00  0.00    +0.000 A 
ATOM     11  C   UNL     1      47.199   0.830   7.008  0.00  0.00    +0.000 A 
ATOM     12  C   UNL     1      47.519   1.626   5.913  0.00  0.00    +0.000 A 
ATOM     13  C   UNL     1      47.044   2.930   5.849  0.00  0.00    +0.000 A 
ATOM     14  C   UNL     1      46.238   3.434   6.876  0.00  0.00    +0.000 A 
ENDBRANCH   7   9
ENDBRANCH   1   3
BRANCH   1  15
ATOM     15  C   UNL     1      44.211   6.750  12.186  0.00  0.00    +0.000 C 
BRANCH  15  21
ATOM     16  C   UNL     1      47.784   7.746  13.096  0.00  0.00    +0.000 A 
ATOM     17  C   UNL     1      47.823   9.095  12.739  0.00  0.00    +0.000 A 
ATOM     18  C   UNL     1      46.684   9.704  12.207  0.00  0.00    +0.000 A 
ATOM     19  C   UNL     1      45.502   8.973  12.027  0.00  0.00    +0.000 A 
ATOM     20 CL   UNL     1      44.150   9.821  11.371  0.00  0.00    +0.000 Cl
ATOM     21  C   UNL     1      45.444   7.613  12.370  0.00  0.00    +0.000 A 
ATOM     22  C   UNL     1      46.609   7.010  12.899  0.00  0.00    +0.000 A 
BRANCH  16  24
ATOM     23  N   UNL     1      50.200   7.483  13.245  0.00  0.00    +0.000 N 
ATOM     24  C   UNL     1      48.970   7.055  13.664  0.00  0.00    +0.000 C 
ATOM     25  O   UNL     1      48.858   6.168  14.499  0.00  0.00    +0.000 OA
ATOM     26  H   UNL     1      50.996   7.084  13.729  0.00  0.00    +0.000 HD
ATOM     27  H   UNL     1      50.336   8.361  12.768  0.00  0.00    +0.000 HD
ENDBRANCH  16  24
ENDBRANCH  15  21
ENDBRANCH   1  15
TORSDOF 5
ENDMDL
MODEL 4
REMARK VINA RESULT:    -8.048      2.862      3.678
REMARK INTER + INTRA:         -11.074
REMARK INTER:                 -10.430
REMARK INTRA:                  -0.644
REMARK UNBOUND:                -0.674
REMARK  Name = 
REMARK  5 active torsions:
REMARK  status: ('A' for Active; 'I' for Inactive)
REMARK    1  A    between atoms: C_2  and  C_4
REMARK    2  A    between atoms: C_9  and  C_10
REMARK    3  A    between atoms: C_10  and  N_11
REMARK    4  A    between atoms: N_11  and  C_12
REMARK    5  A    between atoms: C_16  and  C_17
REMARK                            x       y       z     vdW  Elec       q    Type
REMARK                         _______ _______ _______ _____ _____    ______ ____
ROOT
ATOM      1  N   UNL     1      44.137   6.366  11.011  0.00  0.00    +0.000 N 
ATOM      2  H   UNL     1      44.538   6.988  10.313  0.00  0.00    +0.000 HD
ENDROOT
BRANCH   1   3
ATOM      3  C   UNL     1      44.148   5.033  10.577  0.00  0.00    +0.000 A 
ATOM      4  C   UNL     1      43.477   4.053  11.312  0.00  0.00    +0.000 A 
ATOM      5  N   UNL     1      43.465   2.731  11.027  0.00  0.00    +0.000 NA
ATOM      6  C   UNL     1      44.213   2.343   9.969  0.00  0.00    +0.000 A 
ATOM      7  C   UNL     1      44.989   3.193   9.180  0.00  0.00    +0.000 A 
ATOM      8  C   UNL     1      44.930   4.564   9.515  0.00  0.00    +0.000 A 
BRANCH   7   9
ATOM      9  C   UNL     1      45.848   2.681   8.088  0.00  0.00    +0.000 A 
ATOM     10  C   UNL     1      46.367   1.372   8.107  0.00  0.00    +0.000 A 
ATOM     11  C   UNL     1      47.149   0.880   7.054  0.00  0.00    +0.000 A 
ATOM     12  C   UNL     1      47.441   1.691   5.963  0.00  0.00    +0.000 A 
ATOM     13  C   UNL     1      46.955   2.992   5.922  0.00  0.00    +0.000 A 
ATOM     14  C   UNL     1      46.165   3.478   6.970  0.00  0.00    +0.000 A 
ENDBRANCH   7   9
ENDBRANCH   1   3
BRANCH   1  15
ATOM     15  C   UNL     1      44.632   6.688  12.349  0.00  0.00    +0.000 C 
BRANCH  15  21
ATOM     16  C   UNL     1      46.122  10.166  11.838  0.00  0.00    +0.000 A 
ATOM     17  C   UNL     1      47.486   9.946  12.045  0.00  0.00    +0.000 A 
ATOM     18  C   UNL     1      47.942   8.659  12.342  0.00  0.00    +0.000 A 
ATOM     19  C   UNL     1      47.044   7.588  12.437  0.00  0.00    +0.000 A 
ATOM     20 CL   UNL     1      47.710   6.038  12.800  0.00  0.00    +0.000 Cl
ATOM     21  C   UNL     1      45.667   7.790  12.243  0.00  0.00    +0.000 A 
ATOM     22  C   UNL     1      45.222   9.100  11.952  0.00  0.00    +0.000 A 
BRANCH  16  24
ATOM     23  N   UNL     1      45.801  12.502  12.446  0.00  0.00    +0.000 N 
ATOM     24  C   UNL     1      45.590  11.517  11.521  0.00  0.00    +0.000 C 
ATOM     25  O   UNL     1      45.022  11.752  10.464  0.00  0.00    +0.000 OA
ATOM     26  H   UNL     1      45.539  13.439  12.164  0.00  0.00    +0.000 HD
ATOM     27  H   UNL     1      46.474  12.412  13.192  0.00  0.00    +0.000 HD
ENDBRANCH  16  24
ENDBRANCH  15  21
ENDBRANCH   1  15
TORSDOF 5
ENDMDL
MODEL 5
REMARK VINA RESULT:    -7.899      1.228      1.797
REMARK INTER + INTRA:         -10.882
REMARK INTER:                 -10.213
REMARK INTRA:                  -0.668
REMARK UNBOUND:                -0.674
REMARK  Name = 
REMARK  5 active torsions:
REMARK  status: ('A' for Active; 'I' for Inactive)
REMARK    1  A    between atoms: C_2  and  C_4
REMARK    2  A    between atoms: C_9  and  C_10
REMARK    3  A    between atoms: C_10  and  N_11
REMARK    4  A    between atoms: N_11  and  C_12
REMARK    5  A    between atoms: C_16  and  C_17
REMARK                            x       y       z     vdW  Elec       q    Type
REMARK                         _______ _______ _______ _____ _____    ______ ____
ROOT
ATOM      1  N   UNL     1      45.040   6.261  11.611  0.00  0.00    +0.000 N 
ATOM      2  H   UNL     1      44.310   6.958  11.483  0.00  0.00    +0.000 HD
ENDROOT
BRANCH   1   3
ATOM      3  C   UNL     1      44.722   5.060  10.963  0.00  0.00    +0.000 A 
ATOM      4  C   UNL     1      43.755   4.208  11.504  0.00  0.00    +0.000 A 
ATOM      5  N   UNL     1      43.407   3.001  11.003  0.00  0.00    +0.000 NA
ATOM      6  C   UNL     1      44.101   2.582   9.921  0.00  0.00    +0.000 A 
ATOM      7  C   UNL     1      45.137   3.289   9.308  0.00  0.00    +0.000 A 
ATOM      8  C   UNL     1      45.428   4.554   9.864  0.00  0.00    +0.000 A 
BRANCH   7   9
ATOM      9  C   UNL     1      45.907   2.725   8.175  0.00  0.00    +0.000 A 
ATOM     10  C   UNL     1      46.219   3.493   7.038  0.00  0.00    +0.000 A 
ATOM     11  C   UNL     1      46.979   2.967   5.986  0.00  0.00    +0.000 A 
ATOM     12  C   UNL     1      47.434   1.654   6.042  0.00  0.00    +0.000 A 
ATOM     13  C   UNL     1      47.131   0.866   7.146  0.00  0.00    +0.000 A 
ATOM     14  C   UNL     1      46.380   1.398   8.201  0.00  0.00    +0.000 A 
ENDBRANCH   7   9
ENDBRANCH   1   3
BRANCH   1  15
ATOM     15  C   UNL     1      46.367   6.848  11.420  0.00  0.00    +0.000 C 
BRANCH  15  21
ATOM     16  C   UNL     1      47.650   5.525  14.765  0.00  0.00    +0.000 A 
ATOM     17  C   UNL     1      48.506   6.544  15.186  0.00  0.00    +0.000 A 
ATOM     18  C   UNL     1      48.669   7.683  14.394  0.00  0.00    +0.000 A 
ATOM     19  C   UNL     1      47.983   7.811  13.179  0.00  0.00    +0.000 A 
ATOM     20 CL   UNL     1      48.248   9.260  12.279  0.00  0.00    +0.000 Cl
ATOM     21  C   UNL     1      47.126   6.793  12.731  0.00  0.00    +0.000 A 
ATOM     22  C   UNL     1      46.979   5.643  13.541  0.00  0.00    +0.000 A 
BRANCH  16  24
ATOM     23  N   UNL     1      46.968   4.457  16.844  0.00  0.00    +0.000 N 
ATOM     24  C   UNL     1      47.445   4.295  15.573  0.00  0.00    +0.000 C 
ATOM     25  O   UNL     1      47.655   3.181  15.113  0.00  0.00    +0.000 OA
ATOM     26  H   UNL     1      46.722   3.607  17.338  0.00  0.00    +0.000 HD
ATOM     27  H   UNL     1      46.547   5.318  17.161  0.00  0.00    +0.000 HD
ENDBRANCH  16  24
ENDBRANCH  15  21
ENDBRANCH   1  15
TORSDOF 5
ENDMDL
MODEL 6
REMARK VINA RESULT:    -7.872      3.079      4.367
REMARK INTER + INTRA:         -10.848
REMARK INTER:                 -10.241
REMARK INTRA:                  -0.607
REMARK UNBOUND:                -0.674
REMARK  Name = 
REMARK  5 active torsions:
REMARK  status: ('A' for Active; 'I' for Inactive)
REMARK    1  A    between atoms: C_2  and  C_4
REMARK    2  A    between atoms: C_9  and  C_10
REMARK    3  A    between atoms: C_10  and  N_11
REMARK    4  A    between atoms: N_11  and  C_12
REMARK    5  A    between atoms: C_16  and  C_17
REMARK                            x       y       z     vdW  Elec       q    Type
REMARK                         _______ _______ _______ _____ _____    ______ ____
ROOT
ATOM      1  N   UNL     1      43.836   6.137  11.001  0.00  0.00    +0.000 N 
ATOM      2  H   UNL     1      43.253   6.692  10.379  0.00  0.00    +0.000 HD
ENDROOT
BRANCH   1   3
ATOM      3  C   UNL     1      43.963   4.818  10.543  0.00  0.00    +0.000 A 
ATOM      4  C   UNL     1      43.380   3.770  11.259  0.00  0.00    +0.000 A 
ATOM      5  N   UNL     1      43.483   2.457  10.949  0.00  0.00    +0.000 NA
ATOM      6  C   UNL     1      44.262   2.156   9.886  0.00  0.00    +0.000 A 
ATOM      7  C   UNL     1      44.961   3.084   9.113  0.00  0.00    +0.000 A 
ATOM      8  C   UNL     1      44.783   4.438   9.473  0.00  0.00    +0.000 A 
BRANCH   7   9
ATOM      9  C   UNL     1      45.862   2.669   8.013  0.00  0.00    +0.000 A 
ATOM     10  C   UNL     1      46.172   3.531   6.944  0.00  0.00    +0.000 A 
ATOM     11  C   UNL     1      47.053   3.147   5.927  0.00  0.00    +0.000 A 
ATOM     12  C   UNL     1      47.636   1.884   5.947  0.00  0.00    +0.000 A 
ATOM     13  C   UNL     1      47.338   1.005   6.982  0.00  0.00    +0.000 A 
ATOM     14  C   UNL     1      46.465   1.396   8.004  0.00  0.00    +0.000 A 
ENDBRANCH   7   9
ENDBRANCH   1   3
BRANCH   1  15
ATOM     15  C   UNL     1      45.035   6.875  11.398  0.00  0.00    +0.000 C 
BRANCH  15  21
ATOM     16  C   UNL     1      43.079  10.128  10.976  0.00  0.00    +0.000 A 
ATOM     17  C   UNL     1      43.996  11.091  11.402  0.00  0.00    +0.000 A 
ATOM     18  C   UNL     1      45.269  10.697  11.821  0.00  0.00    +0.000 A 
ATOM     19  C   UNL     1      45.634   9.344  11.821  0.00  0.00    +0.000 A 
ATOM     20 CL   UNL     1      47.232   8.964  12.350  0.00  0.00    +0.000 Cl
ATOM     21  C   UNL     1      44.724   8.358  11.407  0.00  0.00    +0.000 A 
ATOM     22  C   UNL     1      43.436   8.774  10.994  0.00  0.00    +0.000 A 
BRANCH  16  24
ATOM     23  N   UNL     1      40.663   9.882  11.143  0.00  0.00    +0.000 N 
ATOM     24  C   UNL     1      41.714  10.498  10.522  0.00  0.00    +0.000 C 
ATOM     25  O   UNL     1      41.532  11.345   9.658  0.00  0.00    +0.000 OA
ATOM     26  H   UNL     1      39.742  10.231  10.906  0.00  0.00    +0.000 HD
ATOM     27  H   UNL     1      40.762   9.385  12.015  0.00  0.00    +0.000 HD
ENDBRANCH  16  24
ENDBRANCH  15  21
ENDBRANCH   1  15
TORSDOF 5
ENDMDL
MODEL 7
REMARK VINA RESULT:    -7.763      1.398      1.870
REMARK INTER + INTRA:         -10.706
REMARK INTER:                  -9.954
REMARK INTRA:                  -0.752
REMARK UNBOUND:                -0.674
REMARK  Name = 
REMARK  5 active torsions:
REMARK  status: ('A' for Active; 'I' for Inactive)
REMARK    1  A    between atoms: C_2  and  C_4
REMARK    2  A    between atoms: C_9  and  C_10
REMARK    3  A    between atoms: C_10  and  N_11
REMARK    4  A    between atoms: N_11  and  C_12
REMARK    5  A    between atoms: C_16  and  C_17
REMARK                            x       y       z     vdW  Elec       q    Type
REMARK                         _______ _______ _______ _____ _____    ______ ____
ROOT
ATOM      1  N   UNL     1      43.597   6.139  11.937  0.00  0.00    +0.000 N 
ATOM      2  H   UNL     1      42.659   6.322  12.286  0.00  0.00    +0.000 HD
ENDROOT
BRANCH   1   3
ATOM      3  C   UNL     1      43.690   4.865  11.360  0.00  0.00    +0.000 A 
ATOM      4  C   UNL     1      43.091   3.769  11.985  0.00  0.00    +0.000 A 
ATOM      5  N   UNL     1      43.162   2.487  11.557  0.00  0.00    +0.000 NA
ATOM      6  C   UNL     1      43.925   2.267  10.462  0.00  0.00    +0.000 A 
ATOM      7  C   UNL     1      44.637   3.247   9.769  0.00  0.00    +0.000 A 
ATOM      8  C   UNL     1      44.493   4.566  10.252  0.00  0.00    +0.000 A 
BRANCH   7   9
ATOM      9  C   UNL     1      45.519   2.914   8.626  0.00  0.00    +0.000 A 
ATOM     10  C   UNL     1      45.910   3.885   7.685  0.00  0.00    +0.000 A 
ATOM     11  C   UNL     1      46.773   3.573   6.628  0.00  0.00    +0.000 A 
ATOM     12  C   UNL     1      47.257   2.277   6.480  0.00  0.00    +0.000 A 
ATOM     13  C   UNL     1      46.878   1.293   7.386  0.00  0.00    +0.000 A 
ATOM     14  C   UNL     1      46.023   1.610   8.448  0.00  0.00    +0.000 A 
ENDBRANCH   7   9
ENDBRANCH   1   3
BRANCH   1  15
ATOM     15  C   UNL     1      44.122   7.294  11.209  0.00  0.00    +0.000 C 
BRANCH  15  21
ATOM     16  C   UNL     1      47.222   7.401  13.438  0.00  0.00    +0.000 A 
ATOM     17  C   UNL     1      47.588   8.747  13.384  0.00  0.00    +0.000 A 
ATOM     18  C   UNL     1      46.825   9.643  12.631  0.00  0.00    +0.000 A 
ATOM     19  C   UNL     1      45.696   9.202  11.928  0.00  0.00    +0.000 A 
ATOM     20 CL   UNL     1      44.818  10.390  11.034  0.00  0.00    +0.000 Cl
ATOM     21  C   UNL     1      45.316   7.851  11.960  0.00  0.00    +0.000 A 
ATOM     22  C   UNL     1      46.105   6.956  12.719  0.00  0.00    +0.000 A 
BRANCH  16  24
ATOM     23  N   UNL     1      47.308   5.379  14.792  0.00  0.00    +0.000 N 
ATOM     24  C   UNL     1      48.003   6.411  14.224  0.00  0.00    +0.000 C 
ATOM     25  O   UNL     1      49.218   6.490  14.330  0.00  0.00    +0.000 OA
ATOM     26  H   UNL     1      47.867   4.652  15.222  0.00  0.00    +0.000 HD
ATOM     27  H   UNL     1      46.366   5.141  14.517  0.00  0.00    +0.000 HD
ENDBRANCH  16  24
ENDBRANCH  15  21
ENDBRANCH   1  15
TORSDOF 5
ENDMDL
MODEL 8
REMARK VINA RESULT:    -7.179      4.075      8.283
REMARK INTER + INTRA:          -9.952
REMARK INTER:                  -9.330
REMARK INTRA:                  -0.623
REMARK UNBOUND:                -0.674
REMARK  Name = 
REMARK  5 active torsions:
REMARK  status: ('A' for Active; 'I' for Inactive)
REMARK    1  A    between atoms: C_2  and  C_4
REMARK    2  A    between atoms: C_9  and  C_10
REMARK    3  A    between atoms: C_10  and  N_11
REMARK    4  A    between atoms: N_11  and  C_12
REMARK    5  A    between atoms: C_16  and  C_17
REMARK                            x       y       z     vdW  Elec       q    Type
REMARK                         _______ _______ _______ _____ _____    ______ ____
ROOT
ATOM      1  N   UNL     1      46.641   4.260  15.671  0.00  0.00    +0.000 N 
ATOM      2  H   UNL     1      45.703   3.953  15.916  0.00  0.00    +0.000 HD
ENDROOT
BRANCH   1   3
ATOM      3  C   UNL     1      47.506   4.196  16.773  0.00  0.00    +0.000 A 
ATOM      4  C   UNL     1      47.233   4.944  17.921  0.00  0.00    +0.000 A 
ATOM      5  N   UNL     1      48.020   5.008  19.019  0.00  0.00    +0.000 NA
ATOM      6  C   UNL     1      49.185   4.326  18.957  0.00  0.00    +0.000 A 
ATOM      7  C   UNL     1      49.627   3.589  17.857  0.00  0.00    +0.000 A 
ATOM      8  C   UNL     1      48.743   3.539  16.758  0.00  0.00    +0.000 A 
BRANCH   7   9
ATOM      9  C   UNL     1      50.957   2.936  17.835  0.00  0.00    +0.000 A 
ATOM     10  C   UNL     1      52.120   3.613  18.247  0.00  0.00    +0.000 A 
ATOM     11  C   UNL     1      53.369   2.981  18.258  0.00  0.00    +0.000 A 
ATOM     12  C   UNL     1      53.486   1.658  17.845  0.00  0.00    +0.000 A 
ATOM     13  C   UNL     1      52.357   0.968  17.419  0.00  0.00    +0.000 A 
ATOM     14  C   UNL     1      51.109   1.599  17.418  0.00  0.00    +0.000 A 
ENDBRANCH   7   9
ENDBRANCH   1   3
BRANCH   1  15
ATOM     15  C   UNL     1      47.066   3.687  14.394  0.00  0.00    +0.000 C 
BRANCH  15  21
ATOM     16  C   UNL     1      44.973   4.804  11.401  0.00  0.00    +0.000 A 
ATOM     17  C   UNL     1      45.469   6.084  11.144  0.00  0.00    +0.000 A 
ATOM     18  C   UNL     1      46.501   6.597  11.933  0.00  0.00    +0.000 A 
ATOM     19  C   UNL     1      47.041   5.841  12.982  0.00  0.00    +0.000 A 
ATOM     20 CL   UNL     1      48.318   6.564  13.892  0.00  0.00    +0.000 Cl
ATOM     21  C   UNL     1      46.549   4.556  13.265  0.00  0.00    +0.000 A 
ATOM     22  C   UNL     1      45.499   4.055  12.462  0.00  0.00    +0.000 A 
BRANCH  16  24
ATOM     23  N   UNL     1      43.850   4.528   9.259  0.00  0.00    +0.000 N 
ATOM     24  C   UNL     1      43.876   4.216  10.590  0.00  0.00    +0.000 C 
ATOM     25  O   UNL     1      43.053   3.454  11.078  0.00  0.00    +0.000 OA
ATOM     26  H   UNL     1      43.170   4.027   8.699  0.00  0.00    +0.000 HD
ATOM     27  H   UNL     1      44.640   4.932   8.779  0.00  0.00    +0.000 HD
ENDBRANCH  16  24
ENDBRANCH  15  21
ENDBRANCH   1  15
TORSDOF 5
ENDMDL
MODEL 9
REMARK VINA RESULT:    -7.035      2.644      3.535
REMARK INTER + INTRA:          -9.765
REMARK INTER:                  -8.991
REMARK INTRA:                  -0.774
REMARK UNBOUND:                -0.674
REMARK  Name = 
REMARK  5 active torsions:
REMARK  status: ('A' for Active; 'I' for Inactive)
REMARK    1  A    between atoms: C_2  and  C_4
REMARK    2  A    between atoms: C_9  and  C_10
REMARK    3  A    between atoms: C_10  and  N_11
REMARK    4  A    between atoms: N_11  and  C_12
REMARK    5  A    between atoms: C_16  and  C_17
REMARK                            x       y       z     vdW  Elec       q    Type
REMARK                         _______ _______ _______ _____ _____    ______ ____
ROOT
ATOM      1  N   UNL     1      45.150   7.332  12.949  0.00  0.00    +0.000 N 
ATOM      2  H   UNL     1      44.926   7.357  13.941  0.00  0.00    +0.000 HD
ENDROOT
BRANCH   1   3
ATOM      3  C   UNL     1      44.606   6.199  12.328  0.00  0.00    +0.000 A 
ATOM      4  C   UNL     1      43.547   5.514  12.929  0.00  0.00    +0.000 A 
ATOM      5  N   UNL     1      42.980   4.380  12.457  0.00  0.00    +0.000 NA
ATOM      6  C   UNL     1      43.535   3.857  11.340  0.00  0.00    +0.000 A 
ATOM      7  C   UNL     1      44.635   4.388  10.665  0.00  0.00    +0.000 A 
ATOM      8  C   UNL     1      45.157   5.588  11.195  0.00  0.00    +0.000 A 
BRANCH   7   9
ATOM      9  C   UNL     1      45.239   3.710   9.495  0.00  0.00    +0.000 A 
ATOM     10  C   UNL     1      45.820   4.435   8.438  0.00  0.00    +0.000 A 
ATOM     11  C   UNL     1      46.422   3.789   7.352  0.00  0.00    +0.000 A 
ATOM     12  C   UNL     1      46.445   2.400   7.290  0.00  0.00    +0.000 A 
ATOM     13  C   UNL     1      45.866   1.656   8.312  0.00  0.00    +0.000 A 
ATOM     14  C   UNL     1      45.275   2.305   9.402  0.00  0.00    +0.000 A 
ENDBRANCH   7   9
ENDBRANCH   1   3
BRANCH   1  15
ATOM     15  C   UNL     1      44.961   8.645  12.333  0.00  0.00    +0.000 C 
BRANCH  15  21
ATOM     16  C   UNL     1      48.755   9.063  12.210  0.00  0.00    +0.000 A 
ATOM     17  C   UNL     1      48.901  10.385  11.783  0.00  0.00    +0.000 A 
ATOM     18  C   UNL     1      47.767  11.164  11.542  0.00  0.00    +0.000 A 
ATOM     19  C   UNL     1      46.483  10.631  11.720  0.00  0.00    +0.000 A 
ATOM     20 CL   UNL     1      45.149  11.678  11.402  0.00  0.00    +0.000 Cl
ATOM     21  C   UNL     1      46.314   9.301  12.138  0.00  0.00    +0.000 A 
ATOM     22  C   UNL     1      47.472   8.524  12.370  0.00  0.00    +0.000 A 
BRANCH  16  24
ATOM     23  N   UNL     1      49.744   6.845  12.384  0.00  0.00    +0.000 N 
ATOM     24  C   UNL     1      49.931   8.197  12.479  0.00  0.00    +0.000 C 
ATOM     25  O   UNL     1      51.030   8.667  12.736  0.00  0.00    +0.000 OA
ATOM     26  H   UNL     1      50.578   6.276  12.453  0.00  0.00    +0.000 HD
ATOM     27  H   UNL     1      48.938   6.439  11.931  0.00  0.00    +0.000 HD
ENDBRANCH  16  24
ENDBRANCH  15  21
ENDBRANCH   1  15
TORSDOF 5
ENDMDL
