MODEL 1
REMARK VINA RESULT:    -8.310      0.000      0.000
REMARK INTER + INTRA:         -11.805
REMARK INTER:                 -10.739
REMARK INTRA:                  -1.065
REMARK UNBOUND:                -1.065
REMARK  Name = 
REMARK  5 active torsions:
REMARK  status: ('A' for Active; 'I' for Inactive)
REMARK    1  A    between atoms: C_2  and  C_4
REMARK    2  A    between atoms: C_7  and  C_8
REMARK    3  A    between atoms: C_8  and  C_9
REMARK    4  A    between atoms: C_9  and  C_10
REMARK    5  A    between atoms: C_14  and  C_15
REMARK                            x       y       z     vdW  Elec       q    Type
REMARK                         _______ _______ _______ _____ _____    ______ ____
ROOT
ATOM      1  C   UNL     1      43.927   3.792  11.587  0.00  0.00    +0.000 C 
ENDROOT
BRANCH   1   2
ATOM      2  C   UNL     1      45.217   4.301  12.181  0.00  0.00    +0.000 A 
ATOM      3  C   UNL     1      45.943   3.543  13.098  0.00  0.00    +0.000 A 
ATOM      4  C   UNL     1      47.096   4.088  13.637  0.00  0.00    +0.000 A 
ATOM      5  N   UNL     1      47.559   5.322  13.338  0.00  0.00    +0.000 NA
ATOM      6  C   UNL     1      46.857   6.064  12.445  0.00  0.00    +0.000 A 
ATOM      7  C   UNL     1      45.688   5.579  11.856  0.00  0.00    +0.000 A 
BRANCH   6   8
ATOM      8  C   UNL     1      47.372   7.425  12.176  0.00  0.00    +0.000 A 
ATOM      9  C   UNL     1      46.558   8.568  12.292  0.00  0.00    +0.000 A 
ATOM     10  C   UNL     1      47.073   9.853  12.087  0.00  0.00    +0.000 A 
ATOM     11  C   UNL     1      48.412  10.022  11.751  0.00  0.00    +0.000 A 
ATOM     12  C   UNL     1      49.234   8.909  11.607  0.00  0.00    +0.000 A 
ATOM     13  C   UNL     1      48.717   7.626  11.813  0.00  0.00    +0.000 A 
ENDBRANCH   6   8
ENDBRANCH   1   2
BRANCH   1  14
ATOM     14  C   UNL     1      43.756   4.258  10.139  0.00  0.00    +0.000 C 
BRANCH  14  18
ATOM     15  C   UNL     1      46.583   2.375   7.467  0.00  0.00    +0.000 A 
ATOM     16  C   UNL     1      45.893   1.610   8.415  0.00  0.00    +0.000 A 
ATOM     17  C   UNL     1      44.979   2.222   9.278  0.00  0.00    +0.000 A 
ATOM     18  C   UNL     1      44.740   3.601   9.203  0.00  0.00    +0.000 A 
ATOM     19  C   UNL     1      45.446   4.363   8.262  0.00  0.00    +0.000 A 
ATOM     20  C   UNL     1      46.364   3.755   7.401  0.00  0.00    +0.000 A 
BRANCH  15  22
ATOM     21  N   UNL     1      48.749   2.442   6.353  0.00  0.00    +0.000 N 
ATOM     22  C   UNL     1      47.575   1.766   6.544  0.00  0.00    +0.000 C 
ATOM     23  O   UNL     1      47.371   0.689   5.998  0.00  0.00    +0.000 OA
ATOM     24  H   UNL     1      49.452   1.968   5.800  0.00  0.00    +0.000 HD
ATOM     25  H   UNL     1      49.056   3.175   6.975  0.00  0.00    +0.000 HD
ENDBRANCH  15  22
ENDBRANCH  14  18
ENDBRANCH   1  14
TORSDOF 5
ENDMDL
MODEL 2
REMARK VINA RESULT:    -8.238      0.143      1.427
REMARK INTER + INTRA:         -11.711
REMARK INTER:                 -10.630
REMARK INTRA:                  -1.081
REMARK UNBOUND:                -1.065
REMARK  Name = 
REMARK  5 active torsions:
REMARK  status: ('A' for Active; 'I' for Inactive)
REMARK    1  A    between atoms: C_2  and  C_4
REMARK    2  A    between atoms: C_7  and  C_8
REMARK    3  A    between atoms: C_8  and  C_9
REMARK    4  A    between atoms: C_9  and  C_10
REMARK    5  A    between atoms: C_14  and  C_15
REMARK                            x       y       z     vdW  Elec       q    Type
REMARK                         _______ _______ _______ _____ _____    ______ ____
ROOT
ATOM      1  C   UNL     1      43.813   3.894  11.613  0.00  0.00    +0.000 C 
ENDROOT
BRANCH   1   2
ATOM      2  C   UNL     1      45.115   4.353  12.220  0.00  0.00    +0.000 A 
ATOM      3  C   UNL     1      45.822   3.549  13.113  0.00  0.00    +0.000 A 
ATOM      4  C   UNL     1      46.989   4.049  13.666  0.00  0.00    +0.000 A 
ATOM      5  N   UNL     1      47.482   5.279  13.405  0.00  0.00    +0.000 NA
ATOM      6  C   UNL     1      46.799   6.066  12.536  0.00  0.00    +0.000 A 
ATOM      7  C   UNL     1      45.618   5.628  11.934  0.00  0.00    +0.000 A 
BRANCH   6   8
ATOM      8  C   UNL     1      47.347   7.421  12.307  0.00  0.00    +0.000 A 
ATOM      9  C   UNL     1      48.691   7.633  11.945  0.00  0.00    +0.000 A 
ATOM     10  C   UNL     1      49.180   8.916  11.679  0.00  0.00    +0.000 A 
ATOM     11  C   UNL     1      48.338  10.018  11.780  0.00  0.00    +0.000 A 
ATOM     12  C   UNL     1      47.011   9.841  12.159  0.00  0.00    +0.000 A 
ATOM     13  C   UNL     1      46.524   8.557  12.424  0.00  0.00    +0.000 A 
ENDBRANCH   6   8
ENDBRANCH   1   2
BRANCH   1  14
ATOM     14  C   UNL     1      43.687   4.343  10.154  0.00  0.00    +0.000 C 
BRANCH  14  18
ATOM     15  C   UNL     1      46.587   2.434   7.581  0.00  0.00    +0.000 A 
ATOM     16  C   UNL     1      46.447   3.827   7.572  0.00  0.00    +0.000 A 
ATOM     17  C   UNL     1      45.507   4.442   8.405  0.00  0.00    +0.000 A 
ATOM     18  C   UNL     1      44.702   3.676   9.258  0.00  0.00    +0.000 A 
ATOM     19  C   UNL     1      44.837   2.280   9.251  0.00  0.00    +0.000 A 
ATOM     20  C   UNL     1      45.772   1.663   8.416  0.00  0.00    +0.000 A 
BRANCH  15  22
ATOM     21  N   UNL     1      48.694   2.427   6.357  0.00  0.00    +0.000 N 
ATOM     22  C   UNL     1      47.561   1.740   6.699  0.00  0.00    +0.000 C 
ATOM     23  O   UNL     1      47.380   0.591   6.317  0.00  0.00    +0.000 OA
ATOM     24  H   UNL     1      49.392   1.908   5.839  0.00  0.00    +0.000 HD
ATOM     25  H   UNL     1      48.997   3.249   6.857  0.00  0.00    +0.000 HD
ENDBRANCH  15  22
ENDBRANCH  14  18
ENDBRANCH   1  14
TORSDOF 5
ENDMDL
MODEL 3
REMARK VINA RESULT:    -7.925      1.815      3.699
REMARK INTER + INTRA:         -11.306
REMARK INTER:                 -10.410
REMARK INTRA:                  -0.896
REMARK UNBOUND:                -1.065
REMARK  Name = 
REMARK  5 active torsions:
REMARK  status: ('A' for Active; 'I' for Inactive)
REMARK    1  A    between atoms: C_2  and  C_4
REMARK    2  A    between atoms: C_7  and  C_8
REMARK    3  A    between atoms: C_8  and  C_9
REMARK    4  A    between atoms: C_9  and  C_10
REMARK    5  A    between atoms: C_14  and  C_15
REMARK                            x       y       z     vdW  Elec       q    Type
REMARK                         _______ _______ _______ _____ _____    ______ ____
ROOT
ATOM      1  C   UNL     1      44.179   4.017  11.696  0.00  0.00    +0.000 C 
ENDROOT
BRANCH   1   2
ATOM      2  C   UNL     1      45.253   4.862  12.334  0.00  0.00    +0.000 A 
ATOM      3  C   UNL     1      45.708   6.034  11.732  0.00  0.00    +0.000 A 
ATOM      4  C   UNL     1      46.726   6.739  12.351  0.00  0.00    +0.000 A 
ATOM      5  N   UNL     1      47.320   6.355  13.502  0.00  0.00    +0.000 NA
ATOM      6  C   UNL     1      46.880   5.216  14.094  0.00  0.00    +0.000 A 
ATOM      7  C   UNL     1      45.854   4.454  13.532  0.00  0.00    +0.000 A 
BRANCH   6   8
ATOM      8  C   UNL     1      47.582   4.806  15.329  0.00  0.00    +0.000 A 
ATOM      9  C   UNL     1      48.378   5.701  16.069  0.00  0.00    +0.000 A 
ATOM     10  C   UNL     1      48.992   5.313  17.266  0.00  0.00    +0.000 A 
ATOM     11  C   UNL     1      48.831   4.017  17.743  0.00  0.00    +0.000 A 
ATOM     12  C   UNL     1      48.069   3.104  17.021  0.00  0.00    +0.000 A 
ATOM     13  C   UNL     1      47.456   3.495  15.826  0.00  0.00    +0.000 A 
ENDBRANCH   6   8
ENDBRANCH   1   2
BRANCH   1  14
ATOM     14  C   UNL     1      43.942   4.421  10.238  0.00  0.00    +0.000 C 
BRANCH  14  18
ATOM     15  C   UNL     1      46.654   2.447   7.512  0.00  0.00    +0.000 A 
ATOM     16  C   UNL     1      46.517   3.840   7.484  0.00  0.00    +0.000 A 
ATOM     17  C   UNL     1      45.639   4.476   8.367  0.00  0.00    +0.000 A 
ATOM     18  C   UNL     1      44.892   3.731   9.289  0.00  0.00    +0.000 A 
ATOM     19  C   UNL     1      45.022   2.336   9.302  0.00  0.00    +0.000 A 
ATOM     20  C   UNL     1      45.896   1.697   8.418  0.00  0.00    +0.000 A 
BRANCH  15  22
ATOM     21  N   UNL     1      48.718   2.372   6.219  0.00  0.00    +0.000 N 
ATOM     22  C   UNL     1      47.564   1.732   6.581  0.00  0.00    +0.000 C 
ATOM     23  O   UNL     1      47.314   0.604   6.175  0.00  0.00    +0.000 OA
ATOM     24  H   UNL     1      49.372   1.834   5.664  0.00  0.00    +0.000 HD
ATOM     25  H   UNL     1      49.077   3.165   6.729  0.00  0.00    +0.000 HD
ENDBRANCH  15  22
ENDBRANCH  14  18
ENDBRANCH   1  14
TORSDOF 5
ENDMDL
MODEL 4
REMARK VINA RESULT:    -7.566      1.424      2.263
REMARK INTER + INTRA:         -10.843
REMARK INTER:                  -9.877
REMARK INTRA:                  -0.967
REMARK UNBOUND:                -1.065
REMARK  Name = 
REMARK  5 active torsions:
REMARK  status: ('A' for Active; 'I' for Inactive)
REMARK    1  A    between atoms: C_2  and  C_4
REMARK    2  A    between atoms: C_7  and  C_8
REMARK    3  A    between atoms: C_8  and  C_9
REMARK    4  A    between atoms: C_9  and  C_10
REMARK    5  A    between atoms: C_14  and  C_15
REMARK                            x       y       z     vdW  Elec       q    Type
REMARK                         _______ _______ _______ _____ _____    ______ ____
ROOT
ATOM      1  C   UNL     1      44.706   3.542  11.810  0.00  0.00    +0.000 C 
ENDROOT
BRANCH   1   2
ATOM      2  C   UNL     1      45.062   5.007  11.876  0.00  0.00    +0.000 A 
ATOM      3  C   UNL     1      44.131   5.995  11.558  0.00  0.00    +0.000 A 
ATOM      4  C   UNL     1      44.536   7.318  11.598  0.00  0.00    +0.000 A 
ATOM      5  N   UNL     1      45.788   7.716  11.915  0.00  0.00    +0.000 NA
ATOM      6  C   UNL     1      46.698   6.759  12.226  0.00  0.00    +0.000 A 
ATOM      7  C   UNL     1      46.362   5.404  12.213  0.00  0.00    +0.000 A 
BRANCH   6   8
ATOM      8  C   UNL     1      48.068   7.229  12.526  0.00  0.00    +0.000 A 
ATOM      9  C   UNL     1      48.906   7.771  11.533  0.00  0.00    +0.000 A 
ATOM     10  C   UNL     1      50.179   8.263  11.842  0.00  0.00    +0.000 A 
ATOM     11  C   UNL     1      50.647   8.213  13.150  0.00  0.00    +0.000 A 
ATOM     12  C   UNL     1      49.849   7.662  14.149  0.00  0.00    +0.000 A 
ATOM     13  C   UNL     1      48.577   7.172  13.837  0.00  0.00    +0.000 A 
ENDBRANCH   6   8
ENDBRANCH   1   2
BRANCH   1  14
ATOM     14  C   UNL     1      43.930   3.212  10.531  0.00  0.00    +0.000 C 
BRANCH  14  18
ATOM     15  C   UNL     1      46.526   2.601   7.131  0.00  0.00    +0.000 A 
ATOM     16  C   UNL     1      46.010   3.873   7.403  0.00  0.00    +0.000 A 
ATOM     17  C   UNL     1      45.170   4.068   8.504  0.00  0.00    +0.000 A 
ATOM     18  C   UNL     1      44.840   2.999   9.346  0.00  0.00    +0.000 A 
ATOM     19  C   UNL     1      45.347   1.724   9.059  0.00  0.00    +0.000 A 
ATOM     20  C   UNL     1      46.183   1.525   7.957  0.00  0.00    +0.000 A 
BRANCH  15  22
ATOM     21  N   UNL     1      48.758   2.431   6.167  0.00  0.00    +0.000 N 
ATOM     22  C   UNL     1      47.408   2.348   5.962  0.00  0.00    +0.000 C 
ATOM     23  O   UNL     1      46.954   2.046   4.866  0.00  0.00    +0.000 OA
ATOM     24  H   UNL     1      49.346   2.161   5.389  0.00  0.00    +0.000 HD
ATOM     25  H   UNL     1      49.164   2.413   7.091  0.00  0.00    +0.000 HD
ENDBRANCH  15  22
ENDBRANCH  14  18
ENDBRANCH   1  14
TORSDOF 5
ENDMDL
MODEL 5
REMARK VINA RESULT:    -7.559      3.286      7.233
REMARK INTER + INTRA:         -10.834
REMARK INTER:                 -10.115
REMARK INTRA:                  -0.719
REMARK UNBOUND:                -1.065
REMARK  Name = 
REMARK  5 active torsions:
REMARK  status: ('A' for Active; 'I' for Inactive)
REMARK    1  A    between atoms: C_2  and  C_4
REMARK    2  A    between atoms: C_7  and  C_8
REMARK    3  A    between atoms: C_8  and  C_9
REMARK    4  A    between atoms: C_9  and  C_10
REMARK    5  A    between atoms: C_14  and  C_15
REMARK                            x       y       z     vdW  Elec       q    Type
REMARK                         _______ _______ _______ _____ _____    ______ ____
ROOT
ATOM      1  C   UNL     1      45.947   7.314  11.774  0.00  0.00    +0.000 C 
ENDROOT
BRANCH   1   2
ATOM      2  C   UNL     1      45.167   6.221  11.087  0.00  0.00    +0.000 A 
ATOM      3  C   UNL     1      43.839   5.958  11.420  0.00  0.00    +0.000 A 
ATOM      4  C   UNL     1      43.195   4.912  10.781  0.00  0.00    +0.000 A 
ATOM      5  N   UNL     1      43.779   4.117   9.858  0.00  0.00    +0.000 NA
ATOM      6  C   UNL     1      45.070   4.369   9.528  0.00  0.00    +0.000 A 
ATOM      7  C   UNL     1      45.784   5.410  10.126  0.00  0.00    +0.000 A 
BRANCH   6   8
ATOM      8  C   UNL     1      45.688   3.452   8.546  0.00  0.00    +0.000 A 
ATOM      9  C   UNL     1      46.290   3.919   7.362  0.00  0.00    +0.000 A 
ATOM     10  C   UNL     1      46.919   3.044   6.469  0.00  0.00    +0.000 A 
ATOM     11  C   UNL     1      46.949   1.679   6.736  0.00  0.00    +0.000 A 
ATOM     12  C   UNL     1      46.341   1.186   7.886  0.00  0.00    +0.000 A 
ATOM     13  C   UNL     1      45.714   2.064   8.777  0.00  0.00    +0.000 A 
ENDBRANCH   6   8
ENDBRANCH   1   2
BRANCH   1  14
ATOM     14  C   UNL     1      47.372   6.862  12.104  0.00  0.00    +0.000 C 
BRANCH  14  18
ATOM     15  C   UNL     1      47.566   4.516  15.728  0.00  0.00    +0.000 A 
ATOM     16  C   UNL     1      48.189   5.768  15.666  0.00  0.00    +0.000 A 
ATOM     17  C   UNL     1      48.125   6.525  14.492  0.00  0.00    +0.000 A 
ATOM     18  C   UNL     1      47.436   6.044  13.371  0.00  0.00    +0.000 A 
ATOM     19  C   UNL     1      46.828   4.783  13.434  0.00  0.00    +0.000 A 
ATOM     20  C   UNL     1      46.894   4.022  14.605  0.00  0.00    +0.000 A 
BRANCH  15  22
ATOM     21  N   UNL     1      48.828   3.593  17.597  0.00  0.00    +0.000 N 
ATOM     22  C   UNL     1      47.625   3.673  16.950  0.00  0.00    +0.000 C 
ATOM     23  O   UNL     1      46.635   3.099  17.385  0.00  0.00    +0.000 OA
ATOM     24  H   UNL     1      48.828   3.097  18.479  0.00  0.00    +0.000 HD
ATOM     25  H   UNL     1      49.576   4.248  17.427  0.00  0.00    +0.000 HD
ENDBRANCH  15  22
ENDBRANCH  14  18
ENDBRANCH   1  14
TORSDOF 5
ENDMDL
MODEL 6
REMARK VINA RESULT:    -7.496      3.262      7.323
REMARK INTER + INTRA:         -10.752
REMARK INTER:                 -10.086
REMARK INTRA:                  -0.666
REMARK UNBOUND:                -1.065
REMARK  Name = 
REMARK  5 active torsions:
REMARK  status: ('A' for Active; 'I' for Inactive)
REMARK    1  A    between atoms: C_2  and  C_4
REMARK    2  A    between atoms: C_7  and  C_8
REMARK    3  A    between atoms: C_8  and  C_9
REMARK    4  A    between atoms: C_9  and  C_10
REMARK    5  A    between atoms: C_14  and  C_15
REMARK                            x       y       z     vdW  Elec       q    Type
REMARK                         _______ _______ _______ _____ _____    ______ ____
ROOT
ATOM      1  C   UNL     1      44.961   6.409  11.287  0.00  0.00    +0.000 C 
ENDROOT
BRANCH   1   2
ATOM      2  C   UNL     1      44.682   5.016  10.777  0.00  0.00    +0.000 A 
ATOM      3  C   UNL     1      43.787   4.170  11.431  0.00  0.00    +0.000 A 
ATOM      4  C   UNL     1      43.610   2.890  10.934  0.00  0.00    +0.000 A 
ATOM      5  N   UNL     1      44.262   2.400   9.857  0.00  0.00    +0.000 NA
ATOM      6  C   UNL     1      45.133   3.220   9.216  0.00  0.00    +0.000 A 
ATOM      7  C   UNL     1      45.360   4.526   9.655  0.00  0.00    +0.000 A 
BRANCH   6   8
ATOM      8  C   UNL     1      45.860   2.635   8.068  0.00  0.00    +0.000 A 
ATOM      9  C   UNL     1      46.134   3.374   6.901  0.00  0.00    +0.000 A 
ATOM     10  C   UNL     1      46.870   2.825   5.846  0.00  0.00    +0.000 A 
ATOM     11  C   UNL     1      47.339   1.519   5.929  0.00  0.00    +0.000 A 
ATOM     12  C   UNL     1      47.064   0.756   7.060  0.00  0.00    +0.000 A 
ATOM     13  C   UNL     1      46.328   1.309   8.114  0.00  0.00    +0.000 A 
ENDBRANCH   6   8
ENDBRANCH   1   2
BRANCH   1  14
ATOM     14  C   UNL     1      46.464   6.665  11.421  0.00  0.00    +0.000 C 
BRANCH  14  18
ATOM     15  C   UNL     1      47.975   5.544  15.312  0.00  0.00    +0.000 A 
ATOM     16  C   UNL     1      47.059   4.719  14.647  0.00  0.00    +0.000 A 
ATOM     17  C   UNL     1      46.572   5.084  13.389  0.00  0.00    +0.000 A 
ATOM     18  C   UNL     1      46.995   6.272  12.778  0.00  0.00    +0.000 A 
ATOM     19  C   UNL     1      47.900   7.101  13.455  0.00  0.00    +0.000 A 
ATOM     20  C   UNL     1      48.385   6.741  14.715  0.00  0.00    +0.000 A 
BRANCH  15  22
ATOM     21  N   UNL     1      47.743   5.556  17.737  0.00  0.00    +0.000 N 
ATOM     22  C   UNL     1      48.503   5.200  16.657  0.00  0.00    +0.000 C 
ATOM     23  O   UNL     1      49.558   4.595  16.800  0.00  0.00    +0.000 OA
ATOM     24  H   UNL     1      48.067   5.229  18.639  0.00  0.00    +0.000 HD
ATOM     25  H   UNL     1      46.769   5.808  17.652  0.00  0.00    +0.000 HD
ENDBRANCH  15  22
ENDBRANCH  14  18
ENDBRANCH   1  14
TORSDOF 5
ENDMDL
MODEL 7
REMARK VINA RESULT:    -7.405      3.055      6.908
REMARK INTER + INTRA:         -10.634
REMARK INTER:                  -9.710
REMARK INTRA:                  -0.924
REMARK UNBOUND:                -1.065
REMARK  Name = 
REMARK  5 active torsions:
REMARK  status: ('A' for Active; 'I' for Inactive)
REMARK    1  A    between atoms: C_2  and  C_4
REMARK    2  A    between atoms: C_7  and  C_8
REMARK    3  A    between atoms: C_8  and  C_9
REMARK    4  A    between atoms: C_9  and  C_10
REMARK    5  A    between atoms: C_14  and  C_15
REMARK                            x       y       z     vdW  Elec       q    Type
REMARK                         _______ _______ _______ _____ _____    ______ ____
ROOT
ATOM      1  C   UNL     1      44.416   6.511  11.511  0.00  0.00    +0.000 C 
ENDROOT
BRANCH   1   2
ATOM      2  C   UNL     1      44.263   5.093  11.020  0.00  0.00    +0.000 A 
ATOM      3  C   UNL     1      43.446   4.179  11.684  0.00  0.00    +0.000 A 
ATOM      4  C   UNL     1      43.385   2.882  11.204  0.00  0.00    +0.000 A 
ATOM      5  N   UNL     1      44.081   2.438  10.134  0.00  0.00    +0.000 NA
ATOM      6  C   UNL     1      44.877   3.323   9.483  0.00  0.00    +0.000 A 
ATOM      7  C   UNL     1      44.986   4.650   9.905  0.00  0.00    +0.000 A 
BRANCH   6   8
ATOM      8  C   UNL     1      45.655   2.790   8.344  0.00  0.00    +0.000 A 
ATOM      9  C   UNL     1      45.977   3.580   7.224  0.00  0.00    +0.000 A 
ATOM     10  C   UNL     1      46.761   3.079   6.179  0.00  0.00    +0.000 A 
ATOM     11  C   UNL     1      47.231   1.771   6.226  0.00  0.00    +0.000 A 
ATOM     12  C   UNL     1      46.908   0.959   7.309  0.00  0.00    +0.000 A 
ATOM     13  C   UNL     1      46.125   1.464   8.353  0.00  0.00    +0.000 A 
ENDBRANCH   6   8
ENDBRANCH   1   2
BRANCH   1  14
ATOM     14  C   UNL     1      45.210   6.568  12.819  0.00  0.00    +0.000 C 
BRANCH  14  18
ATOM     15  C   UNL     1      49.190   8.153  12.248  0.00  0.00    +0.000 A 
ATOM     16  C   UNL     1      48.070   8.959  12.009  0.00  0.00    +0.000 A 
ATOM     17  C   UNL     1      46.783   8.443  12.194  0.00  0.00    +0.000 A 
ATOM     18  C   UNL     1      46.600   7.122  12.623  0.00  0.00    +0.000 A 
ATOM     19  C   UNL     1      47.725   6.316  12.846  0.00  0.00    +0.000 A 
ATOM     20  C   UNL     1      49.012   6.827  12.657  0.00  0.00    +0.000 A 
BRANCH  15  22
ATOM     21  N   UNL     1      51.588   7.950  12.632  0.00  0.00    +0.000 N 
ATOM     22  C   UNL     1      50.573   8.657  12.046  0.00  0.00    +0.000 C 
ATOM     23  O   UNL     1      50.806   9.643  11.359  0.00  0.00    +0.000 OA
ATOM     24  H   UNL     1      52.528   8.248  12.405  0.00  0.00    +0.000 HD
ATOM     25  H   UNL     1      51.462   7.008  12.970  0.00  0.00    +0.000 HD
ENDBRANCH  15  22
ENDBRANCH  14  18
ENDBRANCH   1  14
TORSDOF 5
ENDMDL
MODEL 8
REMARK VINA RESULT:    -7.320      2.236      2.963
REMARK INTER + INTRA:         -10.525
REMARK INTER:                  -9.537
REMARK INTRA:                  -0.988
REMARK UNBOUND:                -1.065
REMARK  Name = 
REMARK  5 active torsions:
REMARK  status: ('A' for Active; 'I' for Inactive)
REMARK    1  A    between atoms: C_2  and  C_4
REMARK    2  A    between atoms: C_7  and  C_8
REMARK    3  A    between atoms: C_8  and  C_9
REMARK    4  A    between atoms: C_9  and  C_10
REMARK    5  A    between atoms: C_14  and  C_15
REMARK                            x       y       z     vdW  Elec       q    Type
REMARK                         _______ _______ _______ _____ _____    ______ ____
ROOT
ATOM      1  C   UNL     1      44.655   4.487  11.812  0.00  0.00    +0.000 C 
ENDROOT
BRANCH   1   2
ATOM      2  C   UNL     1      45.253   5.866  11.930  0.00  0.00    +0.000 A 
ATOM      3  C   UNL     1      46.508   6.067  12.504  0.00  0.00    +0.000 A 
ATOM      4  C   UNL     1      46.979   7.363  12.620  0.00  0.00    +0.000 A 
ATOM      5  N   UNL     1      46.291   8.456  12.222  0.00  0.00    +0.000 NA
ATOM      6  C   UNL     1      45.070   8.267  11.661  0.00  0.00    +0.000 A 
ATOM      7  C   UNL     1      44.530   6.988  11.506  0.00  0.00    +0.000 A 
BRANCH   6   8
ATOM      8  C   UNL     1      44.329   9.488  11.277  0.00  0.00    +0.000 A 
ATOM      9  C   UNL     1      43.085   9.432  10.618  0.00  0.00    +0.000 A 
ATOM     10  C   UNL     1      42.371  10.595  10.310  0.00  0.00    +0.000 A 
ATOM     11  C   UNL     1      42.890  11.841  10.644  0.00  0.00    +0.000 A 
ATOM     12  C   UNL     1      44.127  11.928  11.275  0.00  0.00    +0.000 A 
ATOM     13  C   UNL     1      44.839  10.764  11.582  0.00  0.00    +0.000 A 
ENDBRANCH   6   8
ENDBRANCH   1   2
BRANCH   1  14
ATOM     14  C   UNL     1      43.953   4.294  10.465  0.00  0.00    +0.000 C 
BRANCH  14  18
ATOM     15  C   UNL     1      46.603   2.672   7.460  0.00  0.00    +0.000 A 
ATOM     16  C   UNL     1      45.959   1.819   8.366  0.00  0.00    +0.000 A 
ATOM     17  C   UNL     1      45.102   2.347   9.337  0.00  0.00    +0.000 A 
ATOM     18  C   UNL     1      44.876   3.728   9.413  0.00  0.00    +0.000 A 
ATOM     19  C   UNL     1      45.535   4.577   8.513  0.00  0.00    +0.000 A 
ATOM     20  C   UNL     1      46.395   4.052   7.544  0.00  0.00    +0.000 A 
BRANCH  15  22
ATOM     21  N   UNL     1      47.846   2.990   5.389  0.00  0.00    +0.000 N 
ATOM     22  C   UNL     1      47.533   2.153   6.425  0.00  0.00    +0.000 C 
ATOM     23  O   UNL     1      48.029   1.036   6.505  0.00  0.00    +0.000 OA
ATOM     24  H   UNL     1      48.555   2.660   4.747  0.00  0.00    +0.000 HD
ATOM     25  H   UNL     1      47.675   3.984   5.429  0.00  0.00    +0.000 HD
ENDBRANCH  15  22
ENDBRANCH  14  18
ENDBRANCH   1  14
TORSDOF 5
ENDMDL
MODEL 9
REMARK VINA RESULT:    -7.215      1.375      1.934
REMARK INTER + INTRA:         -10.389
REMARK INTER:                  -9.429
REMARK INTRA:                  -0.960
REMARK UNBOUND:                -1.065
REMARK  Name = 
REMARK  5 active torsions:
REMARK  status: ('A' for Active; 'I' for Inactive)
REMARK    1  A    between atoms: C_2  and  C_4
REMARK    2  A    between atoms: C_7  and  C_8
REMARK    3  A    between atoms: C_8  and  C_9
REMARK    4  A    between atoms: C_9  and  C_10
REMARK    5  A    between atoms: C_14  and  C_15
REMARK                            x       y       z     vdW  Elec       q    Type
REMARK                         _______ _______ _______ _____ _____    ______ ____
ROOT
ATOM      1  C   UNL     1      44.772   4.017  11.597  0.00  0.00    +0.000 C 
ENDROOT
BRANCH   1   2
ATOM      2  C   UNL     1      45.063   5.495  11.691  0.00  0.00    +0.000 A 
ATOM      3  C   UNL     1      44.075   6.446  11.441  0.00  0.00    +0.000 A 
ATOM      4  C   UNL     1      44.421   7.785  11.502  0.00  0.00    +0.000 A 
ATOM      5  N   UNL     1      45.665   8.232  11.779  0.00  0.00    +0.000 NA
ATOM      6  C   UNL     1      46.630   7.311  12.025  0.00  0.00    +0.000 A 
ATOM      7  C   UNL     1      46.357   5.943  11.986  0.00  0.00    +0.000 A 
BRANCH   6   8
ATOM      8  C   UNL     1      47.989   7.837  12.282  0.00  0.00    +0.000 A 
ATOM      9  C   UNL     1      48.264   8.703  13.358  0.00  0.00    +0.000 A 
ATOM     10  C   UNL     1      49.564   9.149  13.621  0.00  0.00    +0.000 A 
ATOM     11  C   UNL     1      50.617   8.747  12.806  0.00  0.00    +0.000 A 
ATOM     12  C   UNL     1      50.371   7.910  11.722  0.00  0.00    +0.000 A 
ATOM     13  C   UNL     1      49.070   7.466  11.462  0.00  0.00    +0.000 A 
ENDBRANCH   6   8
ENDBRANCH   1   2
BRANCH   1  14
ATOM     14  C   UNL     1      43.999   3.679  10.320  0.00  0.00    +0.000 C 
BRANCH  14  18
ATOM     15  C   UNL     1      46.603   2.355   7.135  0.00  0.00    +0.000 A 
ATOM     16  C   UNL     1      46.162   1.449   8.106  0.00  0.00    +0.000 A 
ATOM     17  C   UNL     1      45.319   1.880   9.136  0.00  0.00    +0.000 A 
ATOM     18  C   UNL     1      44.905   3.217   9.205  0.00  0.00    +0.000 A 
ATOM     19  C   UNL     1      45.363   4.122   8.238  0.00  0.00    +0.000 A 
ATOM     20  C   UNL     1      46.209   3.695   7.211  0.00  0.00    +0.000 A 
BRANCH  15  22
ATOM     21  N   UNL     1      48.817   2.342   6.117  0.00  0.00    +0.000 N 
ATOM     22  C   UNL     1      47.512   1.941   6.035  0.00  0.00    +0.000 C 
ATOM     23  O   UNL     1      47.124   1.243   5.107  0.00  0.00    +0.000 OA
ATOM     24  H   UNL     1      49.444   1.971   5.415  0.00  0.00    +0.000 HD
ATOM     25  H   UNL     1      49.223   2.680   6.977  0.00  0.00    +0.000 HD
ENDBRANCH  15  22
ENDBRANCH  14  18
ENDBRANCH   1  14
TORSDOF 5
ENDMDL
