MODEL 1
REMARK VINA RESULT:    -8.512      0.000      0.000
REMARK INTER + INTRA:         -13.073
REMARK INTER:                 -11.995
REMARK INTRA:                  -1.079
REMARK UNBOUND:                -1.079
REMARK  Name = 
REMARK  8 active torsions:
REMARK  status: ('A' for Active; 'I' for Inactive)
REMARK    1  A    between atoms: C_1  and  C_2
REMARK    2  A    between atoms: C_2  and  N_3
REMARK    3  A    between atoms: C_2  and  C_25
REMARK    4  A    between atoms: N_3  and  C_4
REMARK    5  A    between atoms: C_4  and  C_5
REMARK    6  A    between atoms: C_8  and  C_9
REMARK    7  A    between atoms: C_9  and  N_10
REMARK    8  A    between atoms: C_11  and  C_13
REMARK                            x       y       z     vdW  Elec       q    Type
REMARK                         _______ _______ _______ _____ _____    ______ ____
ROOT
ATOM      1  C   UNL     1      44.647   5.490  10.889  0.00  0.00    +0.000 A 
ATOM      2  C   UNL     1      45.915   5.872  10.430  0.00  0.00    +0.000 A 
ATOM      3  C   UNL     1      46.702   6.763  11.166  0.00  0.00    +0.000 A 
ATOM      4  C   UNL     1      46.244   7.282  12.383  0.00  0.00    +0.000 A 
ATOM      5  C   UNL     1      44.962   6.931  12.825  0.00  0.00    +0.000 A 
ATOM      6  C   UNL     1      44.174   6.041  12.089  0.00  0.00    +0.000 A 
ENDROOT
BRANCH   1   7
ATOM      7  C   UNL     1      43.752   4.616  10.041  0.00  0.00    +0.000 C 
BRANCH   7   8
ATOM      8  N   UNL     1      44.379   4.156   8.794  0.00  0.00    +0.000 NA
ATOM      9  H   UNL     1      45.015   4.887   8.471  0.00  0.00    +0.000 HD
BRANCH   8  11
ATOM     10  C   UNL     1      44.293   1.718   9.376  0.00  0.00    +0.000 C 
ATOM     11  C   UNL     1      45.169   2.922   9.000  0.00  0.00    +0.000 C 
BRANCH  11  12
ATOM     12  C   UNL     1      46.030   2.545   7.795  0.00  0.00    +0.000 A 
ATOM     13  C   UNL     1      46.219   3.495   6.771  0.00  0.00    +0.000 A 
ATOM     14  C   UNL     1      47.016   3.213   5.659  0.00  0.00    +0.000 A 
ATOM     15  C   UNL     1      47.642   1.975   5.550  0.00  0.00    +0.000 A 
ATOM     16  C   UNL     1      47.485   1.030   6.562  0.00  0.00    +0.000 A 
ATOM     17  C   UNL     1      46.695   1.315   7.682  0.00  0.00    +0.000 A 
ENDBRANCH  11  12
ENDBRANCH   8  11
ENDBRANCH   7   8
ENDBRANCH   1   7
BRANCH   4  18
ATOM     18  C   UNL     1      47.104   8.211  13.196  0.00  0.00    +0.000 C 
BRANCH  18  19
ATOM     19  N   UNL     1      47.457   7.646  14.472  0.00  0.00    +0.000 N 
ATOM     20  C   UNL     1      48.571   6.854  14.594  0.00  0.00    +0.000 C 
ATOM     21  O   UNL     1      49.328   6.648  13.649  0.00  0.00    +0.000 OA
ATOM     22  H   UNL     1      46.739   7.627  15.191  0.00  0.00    +0.000 HD
BRANCH  20  23
ATOM     23  C   UNL     1      48.851   6.302  15.926  0.00  0.00    +0.000 A 
ATOM     24  C   UNL     1      49.746   6.956  16.761  0.00  0.00    +0.000 A 
ATOM     25  S   UNL     1      49.944   6.203  18.277  0.00  0.00    +0.000 S 
ATOM     26  C   UNL     1      48.867   4.948  17.855  0.00  0.00    +0.000 A 
ATOM     27  N   UNL     1      48.608   3.937  18.718  0.00  0.00    +0.000 NA
ATOM     28  C   UNL     1      47.798   3.041  18.262  0.00  0.00    +0.000 A 
ATOM     29  N   UNL     1      47.219   3.074  17.019  0.00  0.00    +0.000 N 
ATOM     30  C   UNL     1      47.431   4.095  16.123  0.00  0.00    +0.000 A 
ATOM     31  O   UNL     1      46.862   4.117  15.036  0.00  0.00    +0.000 OA
ATOM     32  C   UNL     1      48.349   5.119  16.584  0.00  0.00    +0.000 A 
ATOM     33  H   UNL     1      46.586   2.346  16.725  0.00  0.00    +0.000 HD
ENDBRANCH  20  23
ENDBRANCH  18  19
ENDBRANCH   4  18
TORSDOF 7
ENDMDL
MODEL 2
REMARK VINA RESULT:    -8.193      1.480      2.001
REMARK INTER + INTRA:         -12.624
REMARK INTER:                 -11.513
REMARK INTRA:                  -1.111
REMARK UNBOUND:                -1.079
REMARK  Name = 
REMARK  8 active torsions:
REMARK  status: ('A' for Active; 'I' for Inactive)
REMARK    1  A    between atoms: C_1  and  C_2
REMARK    2  A    between atoms: C_2  and  N_3
REMARK    3  A    between atoms: C_2  and  C_25
REMARK    4  A    between atoms: N_3  and  C_4
REMARK    5  A    between atoms: C_4  and  C_5
REMARK    6  A    between atoms: C_8  and  C_9
REMARK    7  A    between atoms: C_9  and  N_10
REMARK    8  A    between atoms: C_11  and  C_13
REMARK                            x       y       z     vdW  Elec       q    Type
REMARK                         _______ _______ _______ _____ _____    ______ ____
ROOT
ATOM      1  C   UNL     1      45.011   5.251  11.186  0.00  0.00    +0.000 A 
ATOM      2  C   UNL     1      45.371   4.642  12.397  0.00  0.00    +0.000 A 
ATOM      3  C   UNL     1      46.477   5.096  13.123  0.00  0.00    +0.000 A 
ATOM      4  C   UNL     1      47.238   6.177  12.661  0.00  0.00    +0.000 A 
ATOM      5  C   UNL     1      46.902   6.763  11.434  0.00  0.00    +0.000 A 
ATOM      6  C   UNL     1      45.798   6.309  10.707  0.00  0.00    +0.000 A 
ENDROOT
BRANCH   1   7
ATOM      7  C   UNL     1      43.885   4.691  10.348  0.00  0.00    +0.000 C 
BRANCH   7   8
ATOM      8  N   UNL     1      44.315   4.182   9.038  0.00  0.00    +0.000 NA
ATOM      9  H   UNL     1      44.920   4.884   8.609  0.00  0.00    +0.000 HD
BRANCH   8  11
ATOM     10  C   UNL     1      44.193   1.706   9.420  0.00  0.00    +0.000 C 
ATOM     11  C   UNL     1      45.088   2.927   9.164  0.00  0.00    +0.000 C 
BRANCH  11  12
ATOM     12  C   UNL     1      45.977   2.638   7.954  0.00  0.00    +0.000 A 
ATOM     13  C   UNL     1      46.604   1.381   7.857  0.00  0.00    +0.000 A 
ATOM     14  C   UNL     1      47.406   1.053   6.761  0.00  0.00    +0.000 A 
ATOM     15  C   UNL     1      47.596   1.978   5.739  0.00  0.00    +0.000 A 
ATOM     16  C   UNL     1      46.967   3.220   5.806  0.00  0.00    +0.000 A 
ATOM     17  C   UNL     1      46.154   3.545   6.899  0.00  0.00    +0.000 A 
ENDBRANCH  11  12
ENDBRANCH   8  11
ENDBRANCH   7   8
ENDBRANCH   1   7
BRANCH   4  18
ATOM     18  C   UNL     1      48.405   6.692  13.459  0.00  0.00    +0.000 C 
BRANCH  18  19
ATOM     19  N   UNL     1      48.126   6.718  14.872  0.00  0.00    +0.000 N 
ATOM     20  C   UNL     1      49.154   6.685  15.780  0.00  0.00    +0.000 C 
ATOM     21  O   UNL     1      50.331   6.689  15.430  0.00  0.00    +0.000 OA
ATOM     22  H   UNL     1      47.180   6.497  15.168  0.00  0.00    +0.000 HD
BRANCH  20  23
ATOM     23  C   UNL     1      48.785   6.697  17.201  0.00  0.00    +0.000 A 
ATOM     24  C   UNL     1      48.354   7.881  17.784  0.00  0.00    +0.000 A 
ATOM     25  S   UNL     1      47.941   7.723  19.430  0.00  0.00    +0.000 S 
ATOM     26  C   UNL     1      48.366   6.071  19.435  0.00  0.00    +0.000 A 
ATOM     27  N   UNL     1      48.273   5.334  20.568  0.00  0.00    +0.000 NA
ATOM     28  C   UNL     1      48.651   4.106  20.437  0.00  0.00    +0.000 A 
ATOM     29  N   UNL     1      49.108   3.551  19.269  0.00  0.00    +0.000 N 
ATOM     30  C   UNL     1      49.191   4.254  18.091  0.00  0.00    +0.000 A 
ATOM     31  O   UNL     1      49.561   3.714  17.052  0.00  0.00    +0.000 OA
ATOM     32  C   UNL     1      48.792   5.644  18.190  0.00  0.00    +0.000 A 
ATOM     33  H   UNL     1      49.380   2.580  19.232  0.00  0.00    +0.000 HD
ENDBRANCH  20  23
ENDBRANCH  18  19
ENDBRANCH   4  18
TORSDOF 7
ENDMDL
MODEL 3
REMARK VINA RESULT:    -7.980      1.751      2.559
REMARK INTER + INTRA:         -12.324
REMARK INTER:                 -11.264
REMARK INTRA:                  -1.060
REMARK UNBOUND:                -1.079
REMARK  Name = 
REMARK  8 active torsions:
REMARK  status: ('A' for Active; 'I' for Inactive)
REMARK    1  A    between atoms: C_1  and  C_2
REMARK    2  A    between atoms: C_2  and  N_3
REMARK    3  A    between atoms: C_2  and  C_25
REMARK    4  A    between atoms: N_3  and  C_4
REMARK    5  A    between atoms: C_4  and  C_5
REMARK    6  A    between atoms: C_8  and  C_9
REMARK    7  A    between atoms: C_9  and  N_10
REMARK    8  A    between atoms: C_11  and  C_13
REMARK                            x       y       z     vdW  Elec       q    Type
REMARK                         _______ _______ _______ _____ _____    ______ ____
ROOT
ATOM      1  C   UNL     1      44.716   5.245  11.107  0.00  0.00    +0.000 A 
ATOM      2  C   UNL     1      44.788   4.795  12.432  0.00  0.00    +0.000 A 
ATOM      3  C   UNL     1      45.775   5.277  13.297  0.00  0.00    +0.000 A 
ATOM      4  C   UNL     1      46.704   6.229  12.860  0.00  0.00    +0.000 A 
ATOM      5  C   UNL     1      46.657   6.652  11.525  0.00  0.00    +0.000 A 
ATOM      6  C   UNL     1      45.671   6.170  10.659  0.00  0.00    +0.000 A 
ENDROOT
BRANCH   1   7
ATOM      7  C   UNL     1      43.720   4.643  10.143  0.00  0.00    +0.000 C 
BRANCH   7   8
ATOM      8  N   UNL     1      44.317   4.179   8.883  0.00  0.00    +0.000 NA
ATOM      9  H   UNL     1      44.933   4.915   8.534  0.00  0.00    +0.000 HD
BRANCH   8  11
ATOM     10  C   UNL     1      44.277   1.730   9.425  0.00  0.00    +0.000 C 
ATOM     11  C   UNL     1      45.130   2.959   9.079  0.00  0.00    +0.000 C 
BRANCH  11  12
ATOM     12  C   UNL     1      46.013   2.619   7.878  0.00  0.00    +0.000 A 
ATOM     13  C   UNL     1      46.625   1.351   7.822  0.00  0.00    +0.000 A 
ATOM     14  C   UNL     1      47.421   0.977   6.737  0.00  0.00    +0.000 A 
ATOM     15  C   UNL     1      47.621   1.865   5.685  0.00  0.00    +0.000 A 
ATOM     16  C   UNL     1      47.007   3.116   5.710  0.00  0.00    +0.000 A 
ATOM     17  C   UNL     1      46.200   3.487   6.793  0.00  0.00    +0.000 A 
ENDBRANCH  11  12
ENDBRANCH   8  11
ENDBRANCH   7   8
ENDBRANCH   1   7
BRANCH   4  18
ATOM     18  C   UNL     1      47.743   6.778  13.799  0.00  0.00    +0.000 C 
BRANCH  18  19
ATOM     19  N   UNL     1      47.735   6.103  15.071  0.00  0.00    +0.000 N 
ATOM     20  C   UNL     1      48.886   6.010  15.812  0.00  0.00    +0.000 C 
ATOM     21  O   UNL     1      49.935   6.538  15.452  0.00  0.00    +0.000 OA
ATOM     22  H   UNL     1      46.951   5.489  15.271  0.00  0.00    +0.000 HD
BRANCH  20  23
ATOM     23  C   UNL     1      48.797   5.291  17.089  0.00  0.00    +0.000 A 
ATOM     24  C   UNL     1      48.607   3.916  17.085  0.00  0.00    +0.000 A 
ATOM     25  S   UNL     1      48.549   3.228  18.643  0.00  0.00    +0.000 S 
ATOM     26  C   UNL     1      48.733   4.755  19.383  0.00  0.00    +0.000 A 
ATOM     27  N   UNL     1      48.738   4.875  20.732  0.00  0.00    +0.000 NA
ATOM     28  C   UNL     1      48.858   6.088  21.158  0.00  0.00    +0.000 A 
ATOM     29  N   UNL     1      48.980   7.190  20.350  0.00  0.00    +0.000 N 
ATOM     30  C   UNL     1      49.010   7.110  18.978  0.00  0.00    +0.000 A 
ATOM     31  O   UNL     1      49.167   8.111  18.285  0.00  0.00    +0.000 OA
ATOM     32  C   UNL     1      48.862   5.768  18.450  0.00  0.00    +0.000 A 
ATOM     33  H   UNL     1      49.080   8.112  20.747  0.00  0.00    +0.000 HD
ENDBRANCH  20  23
ENDBRANCH  18  19
ENDBRANCH   4  18
TORSDOF 7
ENDMDL
MODEL 4
REMARK VINA RESULT:    -7.522      2.985      8.565
REMARK INTER + INTRA:         -11.679
REMARK INTER:                  -9.771
REMARK INTRA:                  -1.909
REMARK UNBOUND:                -1.079
REMARK  Name = 
REMARK  8 active torsions:
REMARK  status: ('A' for Active; 'I' for Inactive)
REMARK    1  A    between atoms: C_1  and  C_2
REMARK    2  A    between atoms: C_2  and  N_3
REMARK    3  A    between atoms: C_2  and  C_25
REMARK    4  A    between atoms: N_3  and  C_4
REMARK    5  A    between atoms: C_4  and  C_5
REMARK    6  A    between atoms: C_8  and  C_9
REMARK    7  A    between atoms: C_9  and  N_10
REMARK    8  A    between atoms: C_11  and  C_13
REMARK                            x       y       z     vdW  Elec       q    Type
REMARK                         _______ _______ _______ _____ _____    ______ ____
ROOT
ATOM      1  C   UNL     1      48.969   8.016  16.345  0.00  0.00    +0.000 A 
ATOM      2  C   UNL     1      49.199   6.850  15.602  0.00  0.00    +0.000 A 
ATOM      3  C   UNL     1      48.771   6.754  14.274  0.00  0.00    +0.000 A 
ATOM      4  C   UNL     1      48.116   7.826  13.657  0.00  0.00    +0.000 A 
ATOM      5  C   UNL     1      47.852   8.978  14.409  0.00  0.00    +0.000 A 
ATOM      6  C   UNL     1      48.278   9.075  15.737  0.00  0.00    +0.000 A 
ENDROOT
BRANCH   1   7
ATOM      7  C   UNL     1      49.331   8.078  17.811  0.00  0.00    +0.000 C 
BRANCH   7   8
ATOM      8  N   UNL     1      48.277   7.583  18.707  0.00  0.00    +0.000 NA
ATOM      9  H   UNL     1      47.460   7.354  18.138  0.00  0.00    +0.000 HD
BRANCH   8  11
ATOM     10  C   UNL     1      47.930   6.148  20.734  0.00  0.00    +0.000 C 
ATOM     11  C   UNL     1      48.695   6.356  19.419  0.00  0.00    +0.000 C 
BRANCH  11  12
ATOM     12  C   UNL     1      48.568   5.089  18.573  0.00  0.00    +0.000 A 
ATOM     13  C   UNL     1      47.324   4.787  17.986  0.00  0.00    +0.000 A 
ATOM     14  C   UNL     1      47.156   3.657  17.182  0.00  0.00    +0.000 A 
ATOM     15  C   UNL     1      48.232   2.806  16.949  0.00  0.00    +0.000 A 
ATOM     16  C   UNL     1      49.477   3.099  17.503  0.00  0.00    +0.000 A 
ATOM     17  C   UNL     1      49.648   4.237  18.300  0.00  0.00    +0.000 A 
ENDBRANCH  11  12
ENDBRANCH   8  11
ENDBRANCH   7   8
ENDBRANCH   1   7
BRANCH   4  18
ATOM     18  C   UNL     1      47.689   7.741  12.217  0.00  0.00    +0.000 C 
BRANCH  18  19
ATOM     19  N   UNL     1      46.992   6.514  11.930  0.00  0.00    +0.000 N 
ATOM     20  C   UNL     1      45.621   6.470  11.973  0.00  0.00    +0.000 C 
ATOM     21  O   UNL     1      44.946   7.472  12.197  0.00  0.00    +0.000 OA
ATOM     22  H   UNL     1      47.528   5.652  11.961  0.00  0.00    +0.000 HD
BRANCH  20  23
ATOM     23  C   UNL     1      44.989   5.177  11.686  0.00  0.00    +0.000 A 
ATOM     24  C   UNL     1      44.295   4.518  12.692  0.00  0.00    +0.000 A 
ATOM     25  S   UNL     1      43.600   3.044  12.194  0.00  0.00    +0.000 S 
ATOM     26  C   UNL     1      44.240   3.212  10.621  0.00  0.00    +0.000 A 
ATOM     27  N   UNL     1      44.035   2.256   9.683  0.00  0.00    +0.000 NA
ATOM     28  C   UNL     1      44.597   2.496   8.546  0.00  0.00    +0.000 A 
ATOM     29  N   UNL     1      45.341   3.613   8.264  0.00  0.00    +0.000 N 
ATOM     30  C   UNL     1      45.550   4.620   9.176  0.00  0.00    +0.000 A 
ATOM     31  O   UNL     1      46.183   5.629   8.877  0.00  0.00    +0.000 OA
ATOM     32  C   UNL     1      44.952   4.389  10.476  0.00  0.00    +0.000 A 
ATOM     33  H   UNL     1      45.747   3.745   7.350  0.00  0.00    +0.000 HD
ENDBRANCH  20  23
ENDBRANCH  18  19
ENDBRANCH   4  18
TORSDOF 7
ENDMDL
MODEL 5
REMARK VINA RESULT:    -7.477      3.180      4.547
REMARK INTER + INTRA:         -11.615
REMARK INTER:                 -10.414
REMARK INTRA:                  -1.201
REMARK UNBOUND:                -1.079
REMARK  Name = 
REMARK  8 active torsions:
REMARK  status: ('A' for Active; 'I' for Inactive)
REMARK    1  A    between atoms: C_1  and  C_2
REMARK    2  A    between atoms: C_2  and  N_3
REMARK    3  A    between atoms: C_2  and  C_25
REMARK    4  A    between atoms: N_3  and  C_4
REMARK    5  A    between atoms: C_4  and  C_5
REMARK    6  A    between atoms: C_8  and  C_9
REMARK    7  A    between atoms: C_9  and  N_10
REMARK    8  A    between atoms: C_11  and  C_13
REMARK                            x       y       z     vdW  Elec       q    Type
REMARK                         _______ _______ _______ _____ _____    ______ ____
ROOT
ATOM      1  C   UNL     1      46.972   4.847  14.149  0.00  0.00    +0.000 A 
ATOM      2  C   UNL     1      47.710   6.030  14.001  0.00  0.00    +0.000 A 
ATOM      3  C   UNL     1      48.464   6.539  15.063  0.00  0.00    +0.000 A 
ATOM      4  C   UNL     1      48.507   5.869  16.292  0.00  0.00    +0.000 A 
ATOM      5  C   UNL     1      47.741   4.708  16.454  0.00  0.00    +0.000 A 
ATOM      6  C   UNL     1      46.986   4.199  15.393  0.00  0.00    +0.000 A 
ENDROOT
BRANCH   1   7
ATOM      7  C   UNL     1      46.071   4.359  13.039  0.00  0.00    +0.000 C 
BRANCH   7   8
ATOM      8  N   UNL     1      45.018   5.312  12.664  0.00  0.00    +0.000 NA
ATOM      9  H   UNL     1      45.451   6.072  12.138  0.00  0.00    +0.000 HD
BRANCH   8  11
ATOM     10  C   UNL     1      42.841   5.642  11.462  0.00  0.00    +0.000 C 
ATOM     11  C   UNL     1      43.993   4.685  11.801  0.00  0.00    +0.000 C 
BRANCH  11  12
ATOM     12  C   UNL     1      44.560   4.119  10.499  0.00  0.00    +0.000 A 
ATOM     13  C   UNL     1      44.357   2.756  10.205  0.00  0.00    +0.000 A 
ATOM     14  C   UNL     1      44.831   2.192   9.018  0.00  0.00    +0.000 A 
ATOM     15  C   UNL     1      45.518   2.981   8.101  0.00  0.00    +0.000 A 
ATOM     16  C   UNL     1      45.711   4.337   8.363  0.00  0.00    +0.000 A 
ATOM     17  C   UNL     1      45.226   4.905   9.548  0.00  0.00    +0.000 A 
ENDBRANCH  11  12
ENDBRANCH   8  11
ENDBRANCH   7   8
ENDBRANCH   1   7
BRANCH   4  18
ATOM     18  C   UNL     1      49.348   6.393  17.424  0.00  0.00    +0.000 C 
BRANCH  18  19
ATOM     19  N   UNL     1      50.306   5.421  17.883  0.00  0.00    +0.000 N 
ATOM     20  C   UNL     1      51.573   5.395  17.355  0.00  0.00    +0.000 C 
ATOM     21  O   UNL     1      51.948   6.222  16.527  0.00  0.00    +0.000 OA
ATOM     22  H   UNL     1      49.952   4.616  18.390  0.00  0.00    +0.000 HD
BRANCH  20  23
ATOM     23  C   UNL     1      52.483   4.362  17.864  0.00  0.00    +0.000 A 
ATOM     24  C   UNL     1      53.684   4.739  18.449  0.00  0.00    +0.000 A 
ATOM     25  S   UNL     1      54.615   3.427  19.009  0.00  0.00    +0.000 S 
ATOM     26  C   UNL     1      53.463   2.300  18.448  0.00  0.00    +0.000 A 
ATOM     27  N   UNL     1      53.669   0.969  18.591  0.00  0.00    +0.000 NA
ATOM     28  C   UNL     1      52.732   0.229  18.098  0.00  0.00    +0.000 A 
ATOM     29  N   UNL     1      51.604   0.707  17.482  0.00  0.00    +0.000 N 
ATOM     30  C   UNL     1      51.341   2.049  17.343  0.00  0.00    +0.000 A 
ATOM     31  O   UNL     1      50.300   2.445  16.826  0.00  0.00    +0.000 OA
ATOM     32  C   UNL     1      52.374   2.922  17.865  0.00  0.00    +0.000 A 
ATOM     33  H   UNL     1      50.903   0.075  17.126  0.00  0.00    +0.000 HD
ENDBRANCH  20  23
ENDBRANCH  18  19
ENDBRANCH   4  18
TORSDOF 7
ENDMDL
MODEL 6
REMARK VINA RESULT:    -7.382      3.393      8.137
REMARK INTER + INTRA:         -11.481
REMARK INTER:                  -9.746
REMARK INTRA:                  -1.736
REMARK UNBOUND:                -1.079
REMARK  Name = 
REMARK  8 active torsions:
REMARK  status: ('A' for Active; 'I' for Inactive)
REMARK    1  A    between atoms: C_1  and  C_2
REMARK    2  A    between atoms: C_2  and  N_3
REMARK    3  A    between atoms: C_2  and  C_25
REMARK    4  A    between atoms: N_3  and  C_4
REMARK    5  A    between atoms: C_4  and  C_5
REMARK    6  A    between atoms: C_8  and  C_9
REMARK    7  A    between atoms: C_9  and  N_10
REMARK    8  A    between atoms: C_11  and  C_13
REMARK                            x       y       z     vdW  Elec       q    Type
REMARK                         _______ _______ _______ _____ _____    ______ ____
ROOT
ATOM      1  C   UNL     1      48.640   7.980  16.185  0.00  0.00    +0.000 A 
ATOM      2  C   UNL     1      48.193   9.138  15.533  0.00  0.00    +0.000 A 
ATOM      3  C   UNL     1      48.132   9.192  14.137  0.00  0.00    +0.000 A 
ATOM      4  C   UNL     1      48.506   8.087  13.363  0.00  0.00    +0.000 A 
ATOM      5  C   UNL     1      48.989   6.943  14.011  0.00  0.00    +0.000 A 
ATOM      6  C   UNL     1      49.050   6.887  15.407  0.00  0.00    +0.000 A 
ENDROOT
BRANCH   1   7
ATOM      7  C   UNL     1      48.810   7.960  17.686  0.00  0.00    +0.000 C 
BRANCH   7   8
ATOM      8  N   UNL     1      47.796   7.162  18.389  0.00  0.00    +0.000 NA
ATOM      9  H   UNL     1      47.166   6.764  17.691  0.00  0.00    +0.000 HD
BRANCH   8  11
ATOM     10  C   UNL     1      47.641   5.723  20.438  0.00  0.00    +0.000 C 
ATOM     11  C   UNL     1      48.404   6.045  19.145  0.00  0.00    +0.000 C 
BRANCH  11  12
ATOM     12  C   UNL     1      48.543   4.762  18.326  0.00  0.00    +0.000 A 
ATOM     13  C   UNL     1      47.427   4.294  17.605  0.00  0.00    +0.000 A 
ATOM     14  C   UNL     1      47.503   3.141  16.819  0.00  0.00    +0.000 A 
ATOM     15  C   UNL     1      48.698   2.434  16.739  0.00  0.00    +0.000 A 
ATOM     16  C   UNL     1      49.820   2.893  17.428  0.00  0.00    +0.000 A 
ATOM     17  C   UNL     1      49.747   4.054  18.207  0.00  0.00    +0.000 A 
ENDBRANCH  11  12
ENDBRANCH   8  11
ENDBRANCH   7   8
ENDBRANCH   1   7
BRANCH   4  18
ATOM     18  C   UNL     1      48.406   8.129  11.863  0.00  0.00    +0.000 C 
BRANCH  18  19
ATOM     19  N   UNL     1      47.703   6.989  11.334  0.00  0.00    +0.000 N 
ATOM     20  C   UNL     1      46.331   6.980  11.296  0.00  0.00    +0.000 C 
ATOM     21  O   UNL     1      45.664   7.948  11.652  0.00  0.00    +0.000 OA
ATOM     22  H   UNL     1      48.219   6.119  11.244  0.00  0.00    +0.000 HD
BRANCH  20  23
ATOM     23  C   UNL     1      45.690   5.773  10.758  0.00  0.00    +0.000 A 
ATOM     24  C   UNL     1      45.799   5.488   9.404  0.00  0.00    +0.000 A 
ATOM     25  S   UNL     1      45.022   4.043   8.943  0.00  0.00    +0.000 S 
ATOM     26  C   UNL     1      44.474   3.766  10.535  0.00  0.00    +0.000 A 
ATOM     27  N   UNL     1      43.710   2.686  10.827  0.00  0.00    +0.000 NA
ATOM     28  C   UNL     1      43.342   2.613  12.063  0.00  0.00    +0.000 A 
ATOM     29  N   UNL     1      43.679   3.523  13.032  0.00  0.00    +0.000 N 
ATOM     30  C   UNL     1      44.476   4.616  12.786  0.00  0.00    +0.000 A 
ATOM     31  O   UNL     1      44.796   5.387  13.686  0.00  0.00    +0.000 OA
ATOM     32  C   UNL     1      44.901   4.752  11.406  0.00  0.00    +0.000 A 
ATOM     33  H   UNL     1      43.366   3.402  13.984  0.00  0.00    +0.000 HD
ENDBRANCH  20  23
ENDBRANCH  18  19
ENDBRANCH   4  18
TORSDOF 7
ENDMDL
MODEL 7
REMARK VINA RESULT:    -7.240      4.024     10.041
REMARK INTER + INTRA:         -11.282
REMARK INTER:                  -9.391
REMARK INTRA:                  -1.891
REMARK UNBOUND:                -1.079
REMARK  Name = 
REMARK  8 active torsions:
REMARK  status: ('A' for Active; 'I' for Inactive)
REMARK    1  A    between atoms: C_1  and  C_2
REMARK    2  A    between atoms: C_2  and  N_3
REMARK    3  A    between atoms: C_2  and  C_25
REMARK    4  A    between atoms: N_3  and  C_4
REMARK    5  A    between atoms: C_4  and  C_5
REMARK    6  A    between atoms: C_8  and  C_9
REMARK    7  A    between atoms: C_9  and  N_10
REMARK    8  A    between atoms: C_11  and  C_13
REMARK                            x       y       z     vdW  Elec       q    Type
REMARK                         _______ _______ _______ _____ _____    ______ ____
ROOT
ATOM      1  C   UNL     1      51.034   5.160  17.993  0.00  0.00    +0.000 A 
ATOM      2  C   UNL     1      50.067   5.989  17.408  0.00  0.00    +0.000 A 
ATOM      3  C   UNL     1      48.889   5.450  16.881  0.00  0.00    +0.000 A 
ATOM      4  C   UNL     1      48.647   4.072  16.940  0.00  0.00    +0.000 A 
ATOM      5  C   UNL     1      49.629   3.238  17.491  0.00  0.00    +0.000 A 
ATOM      6  C   UNL     1      50.807   3.776  18.016  0.00  0.00    +0.000 A 
ENDROOT
BRANCH   1   7
ATOM      7  C   UNL     1      52.353   5.729  18.461  0.00  0.00    +0.000 C 
BRANCH   7   8
ATOM      8  N   UNL     1      52.651   5.457  19.874  0.00  0.00    +0.000 NA
ATOM      9  H   UNL     1      53.663   5.510  20.000  0.00  0.00    +0.000 HD
BRANCH   8  11
ATOM     10  C   UNL     1      52.259   7.899  20.292  0.00  0.00    +0.000 C 
ATOM     11  C   UNL     1      52.028   6.458  20.768  0.00  0.00    +0.000 C 
BRANCH  11  12
ATOM     12  C   UNL     1      50.528   6.243  20.967  0.00  0.00    +0.000 A 
ATOM     13  C   UNL     1      49.644   7.297  20.664  0.00  0.00    +0.000 A 
ATOM     14  C   UNL     1      48.262   7.148  20.802  0.00  0.00    +0.000 A 
ATOM     15  C   UNL     1      47.736   5.939  21.247  0.00  0.00    +0.000 A 
ATOM     16  C   UNL     1      48.592   4.876  21.532  0.00  0.00    +0.000 A 
ATOM     17  C   UNL     1      49.976   5.022  21.383  0.00  0.00    +0.000 A 
ENDBRANCH  11  12
ENDBRANCH   8  11
ENDBRANCH   7   8
ENDBRANCH   1   7
BRANCH   4  18
ATOM     18  C   UNL     1      47.364   3.493  16.409  0.00  0.00    +0.000 C 
BRANCH  18  19
ATOM     19  N   UNL     1      46.667   4.416  15.551  0.00  0.00    +0.000 N 
ATOM     20  C   UNL     1      46.803   4.332  14.188  0.00  0.00    +0.000 C 
ATOM     21  O   UNL     1      47.467   3.446  13.655  0.00  0.00    +0.000 OA
ATOM     22  H   UNL     1      46.303   5.265  15.973  0.00  0.00    +0.000 HD
BRANCH  20  23
ATOM     23  C   UNL     1      46.073   5.321  13.386  0.00  0.00    +0.000 A 
ATOM     24  C   UNL     1      46.622   6.581  13.192  0.00  0.00    +0.000 A 
ATOM     25  S   UNL     1      45.666   7.604  12.221  0.00  0.00    +0.000 S 
ATOM     26  C   UNL     1      44.458   6.409  12.057  0.00  0.00    +0.000 A 
ATOM     27  N   UNL     1      43.328   6.658  11.353  0.00  0.00    +0.000 NA
ATOM     28  C   UNL     1      42.487   5.678  11.333  0.00  0.00    +0.000 A 
ATOM     29  N   UNL     1      42.683   4.469  11.951  0.00  0.00    +0.000 N 
ATOM     30  C   UNL     1      43.827   4.165  12.650  0.00  0.00    +0.000 A 
ATOM     31  O   UNL     1      43.990   3.057  13.153  0.00  0.00    +0.000 OA
ATOM     32  C   UNL     1      44.796   5.241  12.716  0.00  0.00    +0.000 A 
ATOM     33  H   UNL     1      41.989   3.740  11.889  0.00  0.00    +0.000 HD
ENDBRANCH  20  23
ENDBRANCH  18  19
ENDBRANCH   4  18
TORSDOF 7
ENDMDL
MODEL 8
REMARK VINA RESULT:    -7.159      3.839      8.211
REMARK INTER + INTRA:         -11.168
REMARK INTER:                  -9.050
REMARK INTRA:                  -2.118
REMARK UNBOUND:                -1.079
REMARK  Name = 
REMARK  8 active torsions:
REMARK  status: ('A' for Active; 'I' for Inactive)
REMARK    1  A    between atoms: C_1  and  C_2
REMARK    2  A    between atoms: C_2  and  N_3
REMARK    3  A    between atoms: C_2  and  C_25
REMARK    4  A    between atoms: N_3  and  C_4
REMARK    5  A    between atoms: C_4  and  C_5
REMARK    6  A    between atoms: C_8  and  C_9
REMARK    7  A    between atoms: C_9  and  N_10
REMARK    8  A    between atoms: C_11  and  C_13
REMARK                            x       y       z     vdW  Elec       q    Type
REMARK                         _______ _______ _______ _____ _____    ______ ____
ROOT
ATOM      1  C   UNL     1      49.944   7.459  17.368  0.00  0.00    +0.000 A 
ATOM      2  C   UNL     1      50.091   6.854  16.111  0.00  0.00    +0.000 A 
ATOM      3  C   UNL     1      49.390   7.336  15.001  0.00  0.00    +0.000 A 
ATOM      4  C   UNL     1      48.536   8.439  15.121  0.00  0.00    +0.000 A 
ATOM      5  C   UNL     1      48.359   9.021  16.383  0.00  0.00    +0.000 A 
ATOM      6  C   UNL     1      49.059   8.540  17.493  0.00  0.00    +0.000 A 
ENDROOT
BRANCH   1   7
ATOM      7  C   UNL     1      50.615   6.871  18.587  0.00  0.00    +0.000 C 
BRANCH   7   8
ATOM      8  N   UNL     1      49.682   6.501  19.660  0.00  0.00    +0.000 NA
ATOM      9  H   UNL     1      48.759   6.861  19.415  0.00  0.00    +0.000 HD
BRANCH   8  11
ATOM     10  C   UNL     1      48.780   4.627  21.061  0.00  0.00    +0.000 C 
ATOM     11  C   UNL     1      49.574   5.033  19.812  0.00  0.00    +0.000 C 
BRANCH  11  12
ATOM     12  C   UNL     1      48.962   4.341  18.595  0.00  0.00    +0.000 A 
ATOM     13  C   UNL     1      49.678   3.299  17.974  0.00  0.00    +0.000 A 
ATOM     14  C   UNL     1      49.156   2.615  16.874  0.00  0.00    +0.000 A 
ATOM     15  C   UNL     1      47.904   2.959  16.373  0.00  0.00    +0.000 A 
ATOM     16  C   UNL     1      47.170   3.973  16.986  0.00  0.00    +0.000 A 
ATOM     17  C   UNL     1      47.689   4.652  18.095  0.00  0.00    +0.000 A 
ENDBRANCH  11  12
ENDBRANCH   8  11
ENDBRANCH   7   8
ENDBRANCH   1   7
BRANCH   4  18
ATOM     18  C   UNL     1      47.809   8.983  13.921  0.00  0.00    +0.000 C 
BRANCH  18  19
ATOM     19  N   UNL     1      46.678   8.170  13.558  0.00  0.00    +0.000 N 
ATOM     20  C   UNL     1      46.738   7.352  12.458  0.00  0.00    +0.000 C 
ATOM     21  O   UNL     1      47.760   7.240  11.787  0.00  0.00    +0.000 OA
ATOM     22  H   UNL     1      45.778   8.412  13.962  0.00  0.00    +0.000 HD
BRANCH  20  23
ATOM     23  C   UNL     1      45.535   6.569  12.146  0.00  0.00    +0.000 A 
ATOM     24  C   UNL     1      44.424   7.209  11.616  0.00  0.00    +0.000 A 
ATOM     25  S   UNL     1      43.121   6.161  11.288  0.00  0.00    +0.000 S 
ATOM     26  C   UNL     1      43.983   4.815  11.885  0.00  0.00    +0.000 A 
ATOM     27  N   UNL     1      43.415   3.586  11.915  0.00  0.00    +0.000 NA
ATOM     28  C   UNL     1      44.167   2.664  12.416  0.00  0.00    +0.000 A 
ATOM     29  N   UNL     1      45.441   2.864  12.883  0.00  0.00    +0.000 N 
ATOM     30  C   UNL     1      46.066   4.088  12.843  0.00  0.00    +0.000 A 
ATOM     31  O   UNL     1      47.224   4.225  13.228  0.00  0.00    +0.000 OA
ATOM     32  C   UNL     1      45.255   5.162  12.304  0.00  0.00    +0.000 A 
ATOM     33  H   UNL     1      45.981   2.097  13.254  0.00  0.00    +0.000 HD
ENDBRANCH  20  23
ENDBRANCH  18  19
ENDBRANCH   4  18
TORSDOF 7
ENDMDL
MODEL 9
REMARK VINA RESULT:    -6.950      2.875      4.281
REMARK INTER + INTRA:         -10.873
REMARK INTER:                  -9.832
REMARK INTRA:                  -1.041
REMARK UNBOUND:                -1.079
REMARK  Name = 
REMARK  8 active torsions:
REMARK  status: ('A' for Active; 'I' for Inactive)
REMARK    1  A    between atoms: C_1  and  C_2
REMARK    2  A    between atoms: C_2  and  N_3
REMARK    3  A    between atoms: C_2  and  C_25
REMARK    4  A    between atoms: N_3  and  C_4
REMARK    5  A    between atoms: C_4  and  C_5
REMARK    6  A    between atoms: C_8  and  C_9
REMARK    7  A    between atoms: C_9  and  N_10
REMARK    8  A    between atoms: C_11  and  C_13
REMARK                            x       y       z     vdW  Elec       q    Type
REMARK                         _______ _______ _______ _____ _____    ______ ____
ROOT
ATOM      1  C   UNL     1      44.797   4.985  11.126  0.00  0.00    +0.000 A 
ATOM      2  C   UNL     1      44.872   4.173  12.267  0.00  0.00    +0.000 A 
ATOM      3  C   UNL     1      45.802   4.442  13.275  0.00  0.00    +0.000 A 
ATOM      4  C   UNL     1      46.669   5.536  13.172  0.00  0.00    +0.000 A 
ATOM      5  C   UNL     1      46.622   6.327  12.017  0.00  0.00    +0.000 A 
ATOM      6  C   UNL     1      45.693   6.058  11.007  0.00  0.00    +0.000 A 
ENDROOT
BRANCH   1   7
ATOM      7  C   UNL     1      43.870   4.630   9.988  0.00  0.00    +0.000 C 
BRANCH   7   8
ATOM      8  N   UNL     1      44.564   4.242   8.752  0.00  0.00    +0.000 NA
ATOM      9  H   UNL     1      45.252   4.966   8.536  0.00  0.00    +0.000 HD
BRANCH   8  11
ATOM     10  C   UNL     1      44.345   1.794   9.251  0.00  0.00    +0.000 C 
ATOM     11  C   UNL     1      45.285   2.959   8.908  0.00  0.00    +0.000 C 
BRANCH  11  12
ATOM     12  C   UNL     1      46.112   2.576   7.681  0.00  0.00    +0.000 A 
ATOM     13  C   UNL     1      46.282   3.525   6.653  0.00  0.00    +0.000 A 
ATOM     14  C   UNL     1      47.049   3.238   5.521  0.00  0.00    +0.000 A 
ATOM     15  C   UNL     1      47.662   1.996   5.396  0.00  0.00    +0.000 A 
ATOM     16  C   UNL     1      47.524   1.051   6.411  0.00  0.00    +0.000 A 
ATOM     17  C   UNL     1      46.764   1.342   7.551  0.00  0.00    +0.000 A 
ENDBRANCH  11  12
ENDBRANCH   8  11
ENDBRANCH   7   8
ENDBRANCH   1   7
BRANCH   4  18
ATOM     18  C   UNL     1      47.646   5.851  14.273  0.00  0.00    +0.000 C 
BRANCH  18  19
ATOM     19  N   UNL     1      48.477   6.982  13.953  0.00  0.00    +0.000 N 
ATOM     20  C   UNL     1      49.621   7.225  14.670  0.00  0.00    +0.000 C 
ATOM     21  O   UNL     1      50.003   6.468  15.559  0.00  0.00    +0.000 OA
ATOM     22  H   UNL     1      48.069   7.718  13.384  0.00  0.00    +0.000 HD
BRANCH  20  23
ATOM     23  C   UNL     1      50.403   8.409  14.292  0.00  0.00    +0.000 A 
ATOM     24  C   UNL     1      51.045   8.438  13.062  0.00  0.00    +0.000 A 
ATOM     25  S   UNL     1      51.890   9.888  12.764  0.00  0.00    +0.000 S 
ATOM     26  C   UNL     1      51.462  10.514  14.292  0.00  0.00    +0.000 A 
ATOM     27  N   UNL     1      51.897  11.735  14.687  0.00  0.00    +0.000 NA
ATOM     28  C   UNL     1      51.523  12.074  15.875  0.00  0.00    +0.000 A 
ATOM     29  N   UNL     1      50.746  11.301  16.699  0.00  0.00    +0.000 N 
ATOM     30  C   UNL     1      50.259  10.070  16.327  0.00  0.00    +0.000 A 
ATOM     31  O   UNL     1      49.528   9.423  17.072  0.00  0.00    +0.000 OA
ATOM     32  C   UNL     1      50.666   9.636  15.006  0.00  0.00    +0.000 A 
ATOM     33  H   UNL     1      50.480  11.629  17.616  0.00  0.00    +0.000 HD
ENDBRANCH  20  23
ENDBRANCH  18  19
ENDBRANCH   4  18
TORSDOF 7
ENDMDL
