MODEL 1
REMARK VINA RESULT:    -8.277      0.000      0.000
REMARK INTER + INTRA:         -12.519
REMARK INTER:                 -11.665
REMARK INTRA:                  -0.854
REMARK UNBOUND:                -0.854
REMARK  Name = 
REMARK  7 active torsions:
REMARK  status: ('A' for Active; 'I' for Inactive)
REMARK    1  A    between atoms: C_2  and  C_20
REMARK    2  A    between atoms: N_3  and  C_4
REMARK    3  A    between atoms: C_4  and  C_5
REMARK    4  A    between atoms: C_8  and  C_9
REMARK    5  A    between atoms: C_9  and  N_10
REMARK    6  A    between atoms: N_10  and  C_11
REMARK    7  A    between atoms: C_11  and  C_12
REMARK                            x       y       z     vdW  Elec       q    Type
REMARK                         _______ _______ _______ _____ _____    ______ ____
ROOT
ATOM      1  C   UNL     1      46.922   5.977  13.054  0.00  0.00    +0.000 A 
ATOM      2  C   UNL     1      46.713   6.554  11.794  0.00  0.00    +0.000 A 
ATOM      3  C   UNL     1      45.620   6.175  11.012  0.00  0.00    +0.000 A 
ATOM      4  C   UNL     1      44.706   5.218  11.471  0.00  0.00    +0.000 A 
ATOM      5  C   UNL     1      44.894   4.667  12.746  0.00  0.00    +0.000 A 
ATOM      6  C   UNL     1      45.990   5.047  13.532  0.00  0.00    +0.000 A 
ENDROOT
BRANCH   1   7
ATOM      7  C   UNL     1      48.097   6.409  13.894  0.00  0.00    +0.000 C 
BRANCH   7  10
ATOM      8  O   UNL     1      50.002   6.114  15.939  0.00  0.00    +0.000 OA
ATOM      9  C   UNL     1      48.811   6.017  16.221  0.00  0.00    +0.000 C 
ATOM     10  N   UNL     1      47.815   6.199  15.291  0.00  0.00    +0.000 N 
ATOM     11  H   UNL     1      46.849   6.128  15.568  0.00  0.00    +0.000 HD
BRANCH   9  12
ATOM     12  C   UNL     1      48.341   5.653  17.562  0.00  0.00    +0.000 A 
ATOM     13  C   UNL     1      48.206   4.369  18.084  0.00  0.00    +0.000 A 
ATOM     14  N   UNL     1      47.847   4.468  19.403  0.00  0.00    +0.000 N 
ATOM     15  C   UNL     1      47.745   5.780  19.757  0.00  0.00    +0.000 A 
ATOM     16  N   UNL     1      47.471   6.201  21.004  0.00  0.00    +0.000 NA
ATOM     17  C   UNL     1      47.413   7.549  21.102  0.00  0.00    +0.000 A 
ATOM     18  C   UNL     1      47.569   8.442  20.050  0.00  0.00    +0.000 A 
ATOM     19  C   UNL     1      47.855   7.946  18.776  0.00  0.00    +0.000 A 
ATOM     20  C   UNL     1      47.978   6.552  18.624  0.00  0.00    +0.000 A 
ATOM     21  H   UNL     1      47.703   3.705  20.048  0.00  0.00    +0.000 HD
ENDBRANCH   9  12
ENDBRANCH   7  10
ENDBRANCH   1   7
BRANCH   4  22
ATOM     22  C   UNL     1      43.543   4.792  10.599  0.00  0.00    +0.000 C 
BRANCH  22  23
ATOM     23  N   UNL     1      44.027   4.261   9.328  0.00  0.00    +0.000 NA
ATOM     24  H   UNL     1      44.837   4.808   9.032  0.00  0.00    +0.000 HD
BRANCH  23  25
ATOM     25  C   UNL     1      44.443   2.859   9.443  0.00  0.00    +0.000 C 
BRANCH  25  26
ATOM     26  C   UNL     1      45.530   2.514   8.440  0.00  0.00    +0.000 A 
ATOM     27  C   UNL     1      46.031   3.498   7.585  0.00  0.00    +0.000 A 
ATOM     28  C   UNL     1      47.047   3.167   6.693  0.00  0.00    +0.000 A 
ATOM     29  C   UNL     1      47.533   1.866   6.671  0.00  0.00    +0.000 A 
ATOM     30  C   UNL     1      46.980   0.947   7.548  0.00  0.00    +0.000 A 
ATOM     31  N   UNL     1      45.997   1.239   8.429  0.00  0.00    +0.000 NA
ENDBRANCH  25  26
ENDBRANCH  23  25
ENDBRANCH  22  23
ENDBRANCH   4  22
TORSDOF 7
ENDMDL
MODEL 2
REMARK VINA RESULT:    -8.193      1.714      2.486
REMARK INTER + INTRA:         -12.400
REMARK INTER:                 -11.139
REMARK INTRA:                  -1.261
REMARK UNBOUND:                -0.854
REMARK  Name = 
REMARK  7 active torsions:
REMARK  status: ('A' for Active; 'I' for Inactive)
REMARK    1  A    between atoms: C_2  and  C_20
REMARK    2  A    between atoms: N_3  and  C_4
REMARK    3  A    between atoms: C_4  and  C_5
REMARK    4  A    between atoms: C_8  and  C_9
REMARK    5  A    between atoms: C_9  and  N_10
REMARK    6  A    between atoms: N_10  and  C_11
REMARK    7  A    between atoms: C_11  and  C_12
REMARK                            x       y       z     vdW  Elec       q    Type
REMARK                         _______ _______ _______ _____ _____    ______ ____
ROOT
ATOM      1  C   UNL     1      46.124   6.535  12.548  0.00  0.00    +0.000 A 
ATOM      2  C   UNL     1      45.686   5.518  13.407  0.00  0.00    +0.000 A 
ATOM      3  C   UNL     1      44.916   4.460  12.920  0.00  0.00    +0.000 A 
ATOM      4  C   UNL     1      44.572   4.386  11.564  0.00  0.00    +0.000 A 
ATOM      5  C   UNL     1      45.041   5.383  10.697  0.00  0.00    +0.000 A 
ATOM      6  C   UNL     1      45.814   6.445  11.185  0.00  0.00    +0.000 A 
ENDROOT
BRANCH   1   7
ATOM      7  C   UNL     1      46.968   7.662  13.085  0.00  0.00    +0.000 C 
BRANCH   7  10
ATOM      8  O   UNL     1      49.612   6.917  13.680  0.00  0.00    +0.000 OA
ATOM      9  C   UNL     1      48.782   6.923  14.583  0.00  0.00    +0.000 C 
ATOM     10  N   UNL     1      47.481   7.324  14.388  0.00  0.00    +0.000 N 
ATOM     11  H   UNL     1      46.835   7.331  15.161  0.00  0.00    +0.000 HD
BRANCH   9  12
ATOM     12  C   UNL     1      49.085   6.461  15.942  0.00  0.00    +0.000 A 
ATOM     13  C   UNL     1      49.873   7.106  16.891  0.00  0.00    +0.000 A 
ATOM     14  N   UNL     1      49.809   6.401  18.065  0.00  0.00    +0.000 N 
ATOM     15  C   UNL     1      49.000   5.316  17.910  0.00  0.00    +0.000 A 
ATOM     16  N   UNL     1      48.687   4.465  18.902  0.00  0.00    +0.000 NA
ATOM     17  C   UNL     1      47.876   3.462  18.497  0.00  0.00    +0.000 A 
ATOM     18  C   UNL     1      47.424   3.263  17.199  0.00  0.00    +0.000 A 
ATOM     19  C   UNL     1      47.780   4.181  16.209  0.00  0.00    +0.000 A 
ATOM     20  C   UNL     1      48.582   5.276  16.584  0.00  0.00    +0.000 A 
ATOM     21  H   UNL     1      50.256   6.641  18.938  0.00  0.00    +0.000 HD
ENDBRANCH   9  12
ENDBRANCH   7  10
ENDBRANCH   1   7
BRANCH   4  22
ATOM     22  C   UNL     1      43.710   3.250  11.054  0.00  0.00    +0.000 C 
BRANCH  22  23
ATOM     23  N   UNL     1      43.913   3.060   9.621  0.00  0.00    +0.000 NA
ATOM     24  H   UNL     1      44.454   3.846   9.259  0.00  0.00    +0.000 HD
BRANCH  23  25
ATOM     25  C   UNL     1      44.654   1.827   9.332  0.00  0.00    +0.000 C 
BRANCH  25  26
ATOM     26  C   UNL     1      45.734   2.056   8.288  0.00  0.00    +0.000 A 
ATOM     27  C   UNL     1      45.869   3.308   7.684  0.00  0.00    +0.000 A 
ATOM     28  C   UNL     1      46.883   3.504   6.751  0.00  0.00    +0.000 A 
ATOM     29  C   UNL     1      47.731   2.449   6.439  0.00  0.00    +0.000 A 
ATOM     30  C   UNL     1      47.529   1.238   7.080  0.00  0.00    +0.000 A 
ATOM     31  N   UNL     1      46.558   1.018   7.994  0.00  0.00    +0.000 NA
ENDBRANCH  25  26
ENDBRANCH  23  25
ENDBRANCH  22  23
ENDBRANCH   4  22
TORSDOF 7
ENDMDL
MODEL 3
REMARK VINA RESULT:    -7.507      3.742      6.454
REMARK INTER + INTRA:         -11.434
REMARK INTER:                 -10.715
REMARK INTRA:                  -0.719
REMARK UNBOUND:                -0.854
REMARK  Name = 
REMARK  7 active torsions:
REMARK  status: ('A' for Active; 'I' for Inactive)
REMARK    1  A    between atoms: C_2  and  C_20
REMARK    2  A    between atoms: N_3  and  C_4
REMARK    3  A    between atoms: C_4  and  C_5
REMARK    4  A    between atoms: C_8  and  C_9
REMARK    5  A    between atoms: C_9  and  N_10
REMARK    6  A    between atoms: N_10  and  C_11
REMARK    7  A    between atoms: C_11  and  C_12
REMARK                            x       y       z     vdW  Elec       q    Type
REMARK                         _______ _______ _______ _____ _____    ______ ____
ROOT
ATOM      1  C   UNL     1      45.080   3.043   8.831  0.00  0.00    +0.000 A 
ATOM      2  C   UNL     1      45.677   1.777   8.779  0.00  0.00    +0.000 A 
ATOM      3  C   UNL     1      46.525   1.435   7.724  0.00  0.00    +0.000 A 
ATOM      4  C   UNL     1      46.804   2.349   6.699  0.00  0.00    +0.000 A 
ATOM      5  C   UNL     1      46.236   3.629   6.770  0.00  0.00    +0.000 A 
ATOM      6  C   UNL     1      45.385   3.974   7.829  0.00  0.00    +0.000 A 
ENDROOT
BRANCH   1   7
ATOM      7  C   UNL     1      44.181   3.404   9.985  0.00  0.00    +0.000 C 
BRANCH   7  10
ATOM      8  O   UNL     1      44.058   5.920  11.232  0.00  0.00    +0.000 OA
ATOM      9  C   UNL     1      44.876   5.100  11.635  0.00  0.00    +0.000 C 
ATOM     10  N   UNL     1      44.966   3.829  11.115  0.00  0.00    +0.000 N 
ATOM     11  H   UNL     1      45.640   3.180  11.487  0.00  0.00    +0.000 HD
BRANCH   9  12
ATOM     12  C   UNL     1      45.864   5.409  12.674  0.00  0.00    +0.000 A 
ATOM     13  C   UNL     1      45.921   4.881  13.961  0.00  0.00    +0.000 A 
ATOM     14  N   UNL     1      47.058   5.341  14.573  0.00  0.00    +0.000 N 
ATOM     15  C   UNL     1      47.745   6.153  13.722  0.00  0.00    +0.000 A 
ATOM     16  N   UNL     1      48.935   6.708  14.011  0.00  0.00    +0.000 NA
ATOM     17  C   UNL     1      49.410   7.482  13.008  0.00  0.00    +0.000 A 
ATOM     18  C   UNL     1      48.757   7.743  11.811  0.00  0.00    +0.000 A 
ATOM     19  C   UNL     1      47.523   7.137  11.565  0.00  0.00    +0.000 A 
ATOM     20  C   UNL     1      47.003   6.279  12.552  0.00  0.00    +0.000 A 
ATOM     21  H   UNL     1      47.381   5.107  15.501  0.00  0.00    +0.000 HD
ENDBRANCH   9  12
ENDBRANCH   7  10
ENDBRANCH   1   7
BRANCH   4  22
ATOM     22  C   UNL     1      47.699   1.954   5.544  0.00  0.00    +0.000 C 
BRANCH  22  23
ATOM     23  N   UNL     1      47.537   0.536   5.236  0.00  0.00    +0.000 NA
ATOM     24  H   UNL     1      46.867   0.133   5.892  0.00  0.00    +0.000 HD
BRANCH  23  25
ATOM     25  C   UNL     1      47.025   0.327   3.877  0.00  0.00    +0.000 C 
BRANCH  25  26
ATOM     26  C   UNL     1      47.089  -1.136   3.473  0.00  0.00    +0.000 A 
ATOM     27  C   UNL     1      47.852  -1.525   2.370  0.00  0.00    +0.000 A 
ATOM     28  C   UNL     1      47.921  -2.874   2.035  0.00  0.00    +0.000 A 
ATOM     29  C   UNL     1      47.223  -3.799   2.802  0.00  0.00    +0.000 A 
ATOM     30  C   UNL     1      46.485  -3.332   3.877  0.00  0.00    +0.000 A 
ATOM     31  N   UNL     1      46.404  -2.030   4.232  0.00  0.00    +0.000 NA
ENDBRANCH  25  26
ENDBRANCH  23  25
ENDBRANCH  22  23
ENDBRANCH   4  22
TORSDOF 7
ENDMDL
MODEL 4
REMARK VINA RESULT:    -7.321      2.807      8.738
REMARK INTER + INTRA:         -11.171
REMARK INTER:                 -10.013
REMARK INTRA:                  -1.158
REMARK UNBOUND:                -0.854
REMARK  Name = 
REMARK  7 active torsions:
REMARK  status: ('A' for Active; 'I' for Inactive)
REMARK    1  A    between atoms: C_2  and  C_20
REMARK    2  A    between atoms: N_3  and  C_4
REMARK    3  A    between atoms: C_4  and  C_5
REMARK    4  A    between atoms: C_8  and  C_9
REMARK    5  A    between atoms: C_9  and  N_10
REMARK    6  A    between atoms: N_10  and  C_11
REMARK    7  A    between atoms: C_11  and  C_12
REMARK                            x       y       z     vdW  Elec       q    Type
REMARK                         _______ _______ _______ _____ _____    ______ ____
ROOT
ATOM      1  C   UNL     1      46.871   7.876  13.061  0.00  0.00    +0.000 A 
ATOM      2  C   UNL     1      47.184   8.830  14.038  0.00  0.00    +0.000 A 
ATOM      3  C   UNL     1      48.443   8.841  14.643  0.00  0.00    +0.000 A 
ATOM      4  C   UNL     1      49.421   7.905  14.283  0.00  0.00    +0.000 A 
ATOM      5  C   UNL     1      49.121   6.973  13.279  0.00  0.00    +0.000 A 
ATOM      6  C   UNL     1      47.859   6.962  12.671  0.00  0.00    +0.000 A 
ENDROOT
BRANCH   1   7
ATOM      7  C   UNL     1      45.515   7.888  12.405  0.00  0.00    +0.000 C 
BRANCH   7  10
ATOM      8  O   UNL     1      43.706   5.933  13.302  0.00  0.00    +0.000 OA
ATOM      9  C   UNL     1      44.385   5.698  12.307  0.00  0.00    +0.000 C 
ATOM     10  N   UNL     1      45.255   6.620  11.773  0.00  0.00    +0.000 N 
ATOM     11  H   UNL     1      45.780   6.394  10.944  0.00  0.00    +0.000 HD
BRANCH   9  12
ATOM     12  C   UNL     1      44.368   4.401  11.622  0.00  0.00    +0.000 A 
ATOM     13  C   UNL     1      43.818   3.212  12.092  0.00  0.00    +0.000 A 
ATOM     14  N   UNL     1      43.911   2.266  11.104  0.00  0.00    +0.000 N 
ATOM     15  C   UNL     1      44.504   2.805  10.002  0.00  0.00    +0.000 A 
ATOM     16  N   UNL     1      44.679   2.144   8.845  0.00  0.00    +0.000 NA
ATOM     17  C   UNL     1      45.301   2.889   7.904  0.00  0.00    +0.000 A 
ATOM     18  C   UNL     1      45.768   4.185   8.078  0.00  0.00    +0.000 A 
ATOM     19  C   UNL     1      45.556   4.823   9.303  0.00  0.00    +0.000 A 
ATOM     20  C   UNL     1      44.867   4.114  10.304  0.00  0.00    +0.000 A 
ATOM     21  H   UNL     1      43.573   1.315  11.145  0.00  0.00    +0.000 HD
ENDBRANCH   9  12
ENDBRANCH   7  10
ENDBRANCH   1   7
BRANCH   4  22
ATOM     22  C   UNL     1      50.771   7.907  14.969  0.00  0.00    +0.000 C 
BRANCH  22  23
ATOM     23  N   UNL     1      51.043   6.600  15.560  0.00  0.00    +0.000 NA
ATOM     24  H   UNL     1      52.052   6.502  15.689  0.00  0.00    +0.000 HD
BRANCH  23  25
ATOM     25  C   UNL     1      50.402   6.448  16.871  0.00  0.00    +0.000 C 
BRANCH  25  26
ATOM     26  C   UNL     1      49.508   5.220  16.917  0.00  0.00    +0.000 A 
ATOM     27  C   UNL     1      48.168   5.316  16.537  0.00  0.00    +0.000 A 
ATOM     28  C   UNL     1      47.374   4.173  16.559  0.00  0.00    +0.000 A 
ATOM     29  C   UNL     1      47.931   2.968  16.966  0.00  0.00    +0.000 A 
ATOM     30  C   UNL     1      49.267   2.958  17.332  0.00  0.00    +0.000 A 
ATOM     31  N   UNL     1      50.066   4.049  17.315  0.00  0.00    +0.000 NA
ENDBRANCH  25  26
ENDBRANCH  23  25
ENDBRANCH  22  23
ENDBRANCH   4  22
TORSDOF 7
ENDMDL
MODEL 5
REMARK VINA RESULT:    -7.247      2.316      3.180
REMARK INTER + INTRA:         -11.067
REMARK INTER:                 -10.429
REMARK INTRA:                  -0.638
REMARK UNBOUND:                -0.854
REMARK  Name = 
REMARK  7 active torsions:
REMARK  status: ('A' for Active; 'I' for Inactive)
REMARK    1  A    between atoms: C_2  and  C_20
REMARK    2  A    between atoms: N_3  and  C_4
REMARK    3  A    between atoms: C_4  and  C_5
REMARK    4  A    between atoms: C_8  and  C_9
REMARK    5  A    between atoms: C_9  and  N_10
REMARK    6  A    between atoms: N_10  and  C_11
REMARK    7  A    between atoms: C_11  and  C_12
REMARK                            x       y       z     vdW  Elec       q    Type
REMARK                         _______ _______ _______ _____ _____    ______ ____
ROOT
ATOM      1  C   UNL     1      47.171   6.109  13.579  0.00  0.00    +0.000 A 
ATOM      2  C   UNL     1      46.638   4.839  13.837  0.00  0.00    +0.000 A 
ATOM      3  C   UNL     1      45.795   4.220  12.911  0.00  0.00    +0.000 A 
ATOM      4  C   UNL     1      45.470   4.850  11.702  0.00  0.00    +0.000 A 
ATOM      5  C   UNL     1      46.033   6.104  11.427  0.00  0.00    +0.000 A 
ATOM      6  C   UNL     1      46.878   6.725  12.355  0.00  0.00    +0.000 A 
ENDROOT
BRANCH   1   7
ATOM      7  C   UNL     1      48.092   6.756  14.580  0.00  0.00    +0.000 C 
BRANCH   7  10
ATOM      8  O   UNL     1      48.613   6.931  17.336  0.00  0.00    +0.000 OA
ATOM      9  C   UNL     1      48.996   5.939  16.724  0.00  0.00    +0.000 C 
ATOM     10  N   UNL     1      48.737   5.751  15.386  0.00  0.00    +0.000 N 
ATOM     11  H   UNL     1      49.054   4.914  14.925  0.00  0.00    +0.000 HD
BRANCH   9  12
ATOM     12  C   UNL     1      49.803   4.885  17.347  0.00  0.00    +0.000 A 
ATOM     13  C   UNL     1      49.346   3.687  17.888  0.00  0.00    +0.000 A 
ATOM     14  N   UNL     1      50.428   2.934  18.263  0.00  0.00    +0.000 N 
ATOM     15  C   UNL     1      51.579   3.606  17.982  0.00  0.00    +0.000 A 
ATOM     16  N   UNL     1      52.810   3.102  18.176  0.00  0.00    +0.000 NA
ATOM     17  C   UNL     1      53.792   3.965  17.830  0.00  0.00    +0.000 A 
ATOM     18  C   UNL     1      53.602   5.258  17.362  0.00  0.00    +0.000 A 
ATOM     19  C   UNL     1      52.299   5.729  17.177  0.00  0.00    +0.000 A 
ATOM     20  C   UNL     1      51.236   4.855  17.473  0.00  0.00    +0.000 A 
ATOM     21  H   UNL     1      50.409   2.006  18.662  0.00  0.00    +0.000 HD
ENDBRANCH   9  12
ENDBRANCH   7  10
ENDBRANCH   1   7
BRANCH   4  22
ATOM     22  C   UNL     1      44.530   4.182  10.721  0.00  0.00    +0.000 C 
BRANCH  22  23
ATOM     23  N   UNL     1      44.787   2.746  10.666  0.00  0.00    +0.000 NA
ATOM     24  H   UNL     1      44.242   2.287  11.397  0.00  0.00    +0.000 HD
BRANCH  23  25
ATOM     25  C   UNL     1      44.393   2.169   9.375  0.00  0.00    +0.000 C 
BRANCH  25  26
ATOM     26  C   UNL     1      45.539   2.195   8.378  0.00  0.00    +0.000 A 
ATOM     27  C   UNL     1      45.828   3.367   7.674  0.00  0.00    +0.000 A 
ATOM     28  C   UNL     1      46.900   3.377   6.787  0.00  0.00    +0.000 A 
ATOM     29  C   UNL     1      47.651   2.221   6.617  0.00  0.00    +0.000 A 
ATOM     30  C   UNL     1      47.297   1.099   7.349  0.00  0.00    +0.000 A 
ATOM     31  N   UNL     1      46.266   1.060   8.224  0.00  0.00    +0.000 NA
ENDBRANCH  25  26
ENDBRANCH  23  25
ENDBRANCH  22  23
ENDBRANCH   4  22
TORSDOF 7
ENDMDL
MODEL 6
REMARK VINA RESULT:    -7.220      4.889      6.303
REMARK INTER + INTRA:         -11.029
REMARK INTER:                 -10.269
REMARK INTRA:                  -0.759
REMARK UNBOUND:                -0.854
REMARK  Name = 
REMARK  7 active torsions:
REMARK  status: ('A' for Active; 'I' for Inactive)
REMARK    1  A    between atoms: C_2  and  C_20
REMARK    2  A    between atoms: N_3  and  C_4
REMARK    3  A    between atoms: C_4  and  C_5
REMARK    4  A    between atoms: C_8  and  C_9
REMARK    5  A    between atoms: C_9  and  N_10
REMARK    6  A    between atoms: N_10  and  C_11
REMARK    7  A    between atoms: C_11  and  C_12
REMARK                            x       y       z     vdW  Elec       q    Type
REMARK                         _______ _______ _______ _____ _____    ______ ____
ROOT
ATOM      1  C   UNL     1      44.481   4.113   9.794  0.00  0.00    +0.000 A 
ATOM      2  C   UNL     1      45.323   4.609   8.790  0.00  0.00    +0.000 A 
ATOM      3  C   UNL     1      46.023   3.736   7.954  0.00  0.00    +0.000 A 
ATOM      4  C   UNL     1      45.894   2.348   8.095  0.00  0.00    +0.000 A 
ATOM      5  C   UNL     1      45.023   1.852   9.075  0.00  0.00    +0.000 A 
ATOM      6  C   UNL     1      44.321   2.726   9.914  0.00  0.00    +0.000 A 
ENDROOT
BRANCH   1   7
ATOM      7  C   UNL     1      43.719   5.067  10.677  0.00  0.00    +0.000 C 
BRANCH   7  10
ATOM      8  O   UNL     1      45.056   5.739  13.057  0.00  0.00    +0.000 OA
ATOM      9  C   UNL     1      45.078   6.533  12.122  0.00  0.00    +0.000 C 
ATOM     10  N   UNL     1      44.494   6.260  10.907  0.00  0.00    +0.000 N 
ATOM     11  H   UNL     1      44.550   6.932  10.159  0.00  0.00    +0.000 HD
BRANCH   9  12
ATOM     12  C   UNL     1      45.686   7.864  12.225  0.00  0.00    +0.000 A 
ATOM     13  C   UNL     1      45.037   9.063  12.505  0.00  0.00    +0.000 A 
ATOM     14  N   UNL     1      45.978  10.052  12.624  0.00  0.00    +0.000 N 
ATOM     15  C   UNL     1      47.223   9.533  12.433  0.00  0.00    +0.000 A 
ATOM     16  N   UNL     1      48.359  10.242  12.550  0.00  0.00    +0.000 NA
ATOM     17  C   UNL     1      49.465   9.505  12.302  0.00  0.00    +0.000 A 
ATOM     18  C   UNL     1      49.478   8.170  11.920  0.00  0.00    +0.000 A 
ATOM     19  C   UNL     1      48.266   7.483  11.817  0.00  0.00    +0.000 A 
ATOM     20  C   UNL     1      47.083   8.186  12.114  0.00  0.00    +0.000 A 
ATOM     21  H   UNL     1      45.809  11.022  12.850  0.00  0.00    +0.000 HD
ENDBRANCH   9  12
ENDBRANCH   7  10
ENDBRANCH   1   7
BRANCH   4  22
ATOM     22  C   UNL     1      46.683   1.412   7.203  0.00  0.00    +0.000 C 
BRANCH  22  23
ATOM     23  N   UNL     1      46.858   1.999   5.878  0.00  0.00    +0.000 NA
ATOM     24  H   UNL     1      47.302   2.913   5.979  0.00  0.00    +0.000 HD
BRANCH  23  25
ATOM     25  C   UNL     1      47.716   1.171   5.022  0.00  0.00    +0.000 C 
BRANCH  25  26
ATOM     26  C   UNL     1      46.911   0.452   3.952  0.00  0.00    +0.000 A 
ATOM     27  C   UNL     1      46.957  -0.941   3.859  0.00  0.00    +0.000 A 
ATOM     28  C   UNL     1      46.190  -1.580   2.890  0.00  0.00    +0.000 A 
ATOM     29  C   UNL     1      45.404  -0.818   2.035  0.00  0.00    +0.000 A 
ATOM     30  C   UNL     1      45.417   0.558   2.189  0.00  0.00    +0.000 A 
ATOM     31  N   UNL     1      46.146   1.209   3.125  0.00  0.00    +0.000 NA
ENDBRANCH  25  26
ENDBRANCH  23  25
ENDBRANCH  22  23
ENDBRANCH   4  22
TORSDOF 7
ENDMDL
MODEL 7
REMARK VINA RESULT:    -7.012      2.748      3.399
REMARK INTER + INTRA:         -10.736
REMARK INTER:                  -9.884
REMARK INTRA:                  -0.852
REMARK UNBOUND:                -0.854
REMARK  Name = 
REMARK  7 active torsions:
REMARK  status: ('A' for Active; 'I' for Inactive)
REMARK    1  A    between atoms: C_2  and  C_20
REMARK    2  A    between atoms: N_3  and  C_4
REMARK    3  A    between atoms: C_4  and  C_5
REMARK    4  A    between atoms: C_8  and  C_9
REMARK    5  A    between atoms: C_9  and  N_10
REMARK    6  A    between atoms: N_10  and  C_11
REMARK    7  A    between atoms: C_11  and  C_12
REMARK                            x       y       z     vdW  Elec       q    Type
REMARK                         _______ _______ _______ _____ _____    ______ ____
ROOT
ATOM      1  C   UNL     1      45.934   6.916  12.501  0.00  0.00    +0.000 A 
ATOM      2  C   UNL     1      46.155   6.474  11.189  0.00  0.00    +0.000 A 
ATOM      3  C   UNL     1      45.446   5.385  10.678  0.00  0.00    +0.000 A 
ATOM      4  C   UNL     1      44.495   4.716  11.460  0.00  0.00    +0.000 A 
ATOM      5  C   UNL     1      44.247   5.180  12.759  0.00  0.00    +0.000 A 
ATOM      6  C   UNL     1      44.957   6.273  13.273  0.00  0.00    +0.000 A 
ENDROOT
BRANCH   1   7
ATOM      7  C   UNL     1      46.694   8.104  13.032  0.00  0.00    +0.000 C 
BRANCH   7  10
ATOM      8  O   UNL     1      48.120   9.336  15.117  0.00  0.00    +0.000 OA
ATOM      9  C   UNL     1      48.625   8.379  14.540  0.00  0.00    +0.000 C 
ATOM     10  N   UNL     1      47.974   7.688  13.545  0.00  0.00    +0.000 N 
ATOM     11  H   UNL     1      48.418   6.896  13.109  0.00  0.00    +0.000 HD
BRANCH   9  12
ATOM     12  C   UNL     1      49.987   7.911  14.822  0.00  0.00    +0.000 A 
ATOM     13  C   UNL     1      51.171   8.402  14.281  0.00  0.00    +0.000 A 
ATOM     14  N   UNL     1      52.225   7.771  14.889  0.00  0.00    +0.000 N 
ATOM     15  C   UNL     1      51.762   6.883  15.813  0.00  0.00    +0.000 A 
ATOM     16  N   UNL     1      52.555   6.157  16.620  0.00  0.00    +0.000 NA
ATOM     17  C   UNL     1      51.859   5.341  17.443  0.00  0.00    +0.000 A 
ATOM     18  C   UNL     1      50.478   5.199  17.462  0.00  0.00    +0.000 A 
ATOM     19  C   UNL     1      49.705   5.982  16.602  0.00  0.00    +0.000 A 
ATOM     20  C   UNL     1      50.372   6.888  15.757  0.00  0.00    +0.000 A 
ATOM     21  H   UNL     1      53.207   7.939  14.723  0.00  0.00    +0.000 HD
ENDBRANCH   9  12
ENDBRANCH   7  10
ENDBRANCH   1   7
BRANCH   4  22
ATOM     22  C   UNL     1      43.757   3.516  10.904  0.00  0.00    +0.000 C 
BRANCH  22  23
ATOM     23  N   UNL     1      44.698   2.455  10.555  0.00  0.00    +0.000 NA
ATOM     24  H   UNL     1      44.612   1.702  11.239  0.00  0.00    +0.000 HD
BRANCH  23  25
ATOM     25  C   UNL     1      44.423   1.897   9.226  0.00  0.00    +0.000 C 
BRANCH  25  26
ATOM     26  C   UNL     1      45.617   2.047   8.299  0.00  0.00    +0.000 A 
ATOM     27  C   UNL     1      45.912   3.290   7.733  0.00  0.00    +0.000 A 
ATOM     28  C   UNL     1      47.027   3.412   6.909  0.00  0.00    +0.000 A 
ATOM     29  C   UNL     1      47.815   2.294   6.664  0.00  0.00    +0.000 A 
ATOM     30  C   UNL     1      47.453   1.097   7.260  0.00  0.00    +0.000 A 
ATOM     31  N   UNL     1      46.380   0.948   8.070  0.00  0.00    +0.000 NA
ENDBRANCH  25  26
ENDBRANCH  23  25
ENDBRANCH  22  23
ENDBRANCH   4  22
TORSDOF 7
ENDMDL
MODEL 8
REMARK VINA RESULT:    -6.816      3.088      8.371
REMARK INTER + INTRA:         -10.460
REMARK INTER:                  -8.670
REMARK INTRA:                  -1.790
REMARK UNBOUND:                -0.854
REMARK  Name = 
REMARK  7 active torsions:
REMARK  status: ('A' for Active; 'I' for Inactive)
REMARK    1  A    between atoms: C_2  and  C_20
REMARK    2  A    between atoms: N_3  and  C_4
REMARK    3  A    between atoms: C_4  and  C_5
REMARK    4  A    between atoms: C_8  and  C_9
REMARK    5  A    between atoms: C_9  and  N_10
REMARK    6  A    between atoms: N_10  and  C_11
REMARK    7  A    between atoms: C_11  and  C_12
REMARK                            x       y       z     vdW  Elec       q    Type
REMARK                         _______ _______ _______ _____ _____    ______ ____
ROOT
ATOM      1  C   UNL     1      49.515   7.569  15.992  0.00  0.00    +0.000 A 
ATOM      2  C   UNL     1      48.798   8.078  17.083  0.00  0.00    +0.000 A 
ATOM      3  C   UNL     1      49.043   7.609  18.376  0.00  0.00    +0.000 A 
ATOM      4  C   UNL     1      50.014   6.627  18.612  0.00  0.00    +0.000 A 
ATOM      5  C   UNL     1      50.757   6.144  17.526  0.00  0.00    +0.000 A 
ATOM      6  C   UNL     1      50.513   6.614  16.229  0.00  0.00    +0.000 A 
ENDROOT
BRANCH   1   7
ATOM      7  C   UNL     1      49.253   8.098  14.606  0.00  0.00    +0.000 C 
BRANCH   7  10
ATOM      8  O   UNL     1      48.424   5.829  13.169  0.00  0.00    +0.000 OA
ATOM      9  C   UNL     1      47.591   6.682  13.460  0.00  0.00    +0.000 C 
ATOM     10  N   UNL     1      47.902   7.795  14.205  0.00  0.00    +0.000 N 
ATOM     11  H   UNL     1      47.185   8.462  14.437  0.00  0.00    +0.000 HD
BRANCH   9  12
ATOM     12  C   UNL     1      46.198   6.619  13.003  0.00  0.00    +0.000 A 
ATOM     13  C   UNL     1      45.360   7.693  12.718  0.00  0.00    +0.000 A 
ATOM     14  N   UNL     1      44.182   7.207  12.214  0.00  0.00    +0.000 N 
ATOM     15  C   UNL     1      44.228   5.847  12.159  0.00  0.00    +0.000 A 
ATOM     16  N   UNL     1      43.247   5.082  11.650  0.00  0.00    +0.000 NA
ATOM     17  C   UNL     1      43.523   3.760  11.717  0.00  0.00    +0.000 A 
ATOM     18  C   UNL     1      44.662   3.201  12.282  0.00  0.00    +0.000 A 
ATOM     19  C   UNL     1      45.649   4.045  12.795  0.00  0.00    +0.000 A 
ATOM     20  C   UNL     1      45.440   5.434  12.705  0.00  0.00    +0.000 A 
ATOM     21  H   UNL     1      43.393   7.750  11.893  0.00  0.00    +0.000 HD
ENDBRANCH   9  12
ENDBRANCH   7  10
ENDBRANCH   1   7
BRANCH   4  22
ATOM     22  C   UNL     1      50.246   6.103  20.014  0.00  0.00    +0.000 C 
BRANCH  22  23
ATOM     23  N   UNL     1      50.075   4.654  20.051  0.00  0.00    +0.000 NA
ATOM     24  H   UNL     1      50.404   4.308  20.953  0.00  0.00    +0.000 HD
BRANCH  23  25
ATOM     25  C   UNL     1      48.667   4.266  19.902  0.00  0.00    +0.000 C 
BRANCH  25  26
ATOM     26  C   UNL     1      48.348   3.858  18.475  0.00  0.00    +0.000 A 
ATOM     27  C   UNL     1      47.343   4.520  17.766  0.00  0.00    +0.000 A 
ATOM     28  C   UNL     1      47.086   4.150  16.449  0.00  0.00    +0.000 A 
ATOM     29  C   UNL     1      47.829   3.126  15.875  0.00  0.00    +0.000 A 
ATOM     30  C   UNL     1      48.805   2.516  16.647  0.00  0.00    +0.000 A 
ATOM     31  N   UNL     1      49.083   2.858  17.925  0.00  0.00    +0.000 NA
ENDBRANCH  25  26
ENDBRANCH  23  25
ENDBRANCH  22  23
ENDBRANCH   4  22
TORSDOF 7
ENDMDL
MODEL 9
REMARK VINA RESULT:    -6.597      4.723      7.406
REMARK INTER + INTRA:         -10.151
REMARK INTER:                  -9.211
REMARK INTRA:                  -0.940
REMARK UNBOUND:                -0.854
REMARK  Name = 
REMARK  7 active torsions:
REMARK  status: ('A' for Active; 'I' for Inactive)
REMARK    1  A    between atoms: C_2  and  C_20
REMARK    2  A    between atoms: N_3  and  C_4
REMARK    3  A    between atoms: C_4  and  C_5
REMARK    4  A    between atoms: C_8  and  C_9
REMARK    5  A    between atoms: C_9  and  N_10
REMARK    6  A    between atoms: N_10  and  C_11
REMARK    7  A    between atoms: C_11  and  C_12
REMARK                            x       y       z     vdW  Elec       q    Type
REMARK                         _______ _______ _______ _____ _____    ______ ____
ROOT
ATOM      1  C   UNL     1      49.157   7.726  12.767  0.00  0.00    +0.000 A 
ATOM      2  C   UNL     1      48.409   7.953  11.605  0.00  0.00    +0.000 A 
ATOM      3  C   UNL     1      47.273   7.188  11.331  0.00  0.00    +0.000 A 
ATOM      4  C   UNL     1      46.852   6.184  12.213  0.00  0.00    +0.000 A 
ATOM      5  C   UNL     1      47.580   5.982  13.395  0.00  0.00    +0.000 A 
ATOM      6  C   UNL     1      48.719   6.749  13.671  0.00  0.00    +0.000 A 
ENDROOT
BRANCH   1   7
ATOM      7  C   UNL     1      50.370   8.571  13.058  0.00  0.00    +0.000 C 
BRANCH   7  10
ATOM      8  O   UNL     1      51.658   9.418  10.707  0.00  0.00    +0.000 OA
ATOM      9  C   UNL     1      52.084   8.426  11.291  0.00  0.00    +0.000 C 
ATOM     10  N   UNL     1      51.545   7.976  12.473  0.00  0.00    +0.000 N 
ATOM     11  H   UNL     1      51.936   7.168  12.930  0.00  0.00    +0.000 HD
BRANCH   9  12
ATOM     12  C   UNL     1      53.175   7.602  10.761  0.00  0.00    +0.000 A 
ATOM     13  C   UNL     1      54.353   7.249  11.413  0.00  0.00    +0.000 A 
ATOM     14  N   UNL     1      55.051   6.379  10.616  0.00  0.00    +0.000 N 
ATOM     15  C   UNL     1      54.362   6.153   9.463  0.00  0.00    +0.000 A 
ATOM     16  N   UNL     1      54.758   5.295   8.507  0.00  0.00    +0.000 NA
ATOM     17  C   UNL     1      53.910   5.253   7.454  0.00  0.00    +0.000 A 
ATOM     18  C   UNL     1      52.766   6.026   7.309  0.00  0.00    +0.000 A 
ATOM     19  C   UNL     1      52.402   6.900   8.336  0.00  0.00    +0.000 A 
ATOM     20  C   UNL     1      53.220   6.947   9.480  0.00  0.00    +0.000 A 
ATOM     21  H   UNL     1      55.930   5.933  10.835  0.00  0.00    +0.000 HD
ENDBRANCH   9  12
ENDBRANCH   7  10
ENDBRANCH   1   7
BRANCH   4  22
ATOM     22  C   UNL     1      45.638   5.340  11.889  0.00  0.00    +0.000 C 
BRANCH  22  23
ATOM     23  N   UNL     1      45.048   5.763  10.622  0.00  0.00    +0.000 NA
ATOM     24  H   UNL     1      45.798   6.029   9.983  0.00  0.00    +0.000 HD
BRANCH  23  25
ATOM     25  C   UNL     1      44.275   4.687   9.992  0.00  0.00    +0.000 C 
BRANCH  25  26
ATOM     26  C   UNL     1      45.141   3.838   9.077  0.00  0.00    +0.000 A 
ATOM     27  C   UNL     1      45.154   2.448   9.217  0.00  0.00    +0.000 A 
ATOM     28  C   UNL     1      45.932   1.688   8.349  0.00  0.00    +0.000 A 
ATOM     29  C   UNL     1      46.682   2.329   7.372  0.00  0.00    +0.000 A 
ATOM     30  C   UNL     1      46.618   3.711   7.302  0.00  0.00    +0.000 A 
ATOM     31  N   UNL     1      45.867   4.477   8.125  0.00  0.00    +0.000 NA
ENDBRANCH  25  26
ENDBRANCH  23  25
ENDBRANCH  22  23
ENDBRANCH   4  22
TORSDOF 7
ENDMDL
