MODEL 1
REMARK VINA RESULT:    -6.502      0.000      0.000
REMARK INTER + INTRA:         -10.308
REMARK INTER:                  -9.352
REMARK INTRA:                  -0.956
REMARK UNBOUND:                -0.956
REMARK  Name = 
REMARK  9 active torsions:
REMARK  status: ('A' for Active; 'I' for Inactive)
REMARK    1  A    between atoms: C_1  and  C_2
REMARK    2  A    between atoms: C_2  and  N_3
REMARK    3  A    between atoms: C_2  and  C_16
REMARK    4  A    between atoms: C_4  and  C_6
REMARK    5  A    between atoms: C_19  and  C_20
REMARK    6  A    between atoms: C_20  and  N_21
REMARK    7  A    between atoms: N_24  and  C_25
REMARK    8  A    between atoms: C_25  and  C_26
REMARK    9  A    between atoms: C_26  and  O_27
REMARK                            x       y       z     vdW  Elec       q    Type
REMARK                         _______ _______ _______ _____ _____    ______ ____
ROOT
ATOM      1  C   UNL     1      49.386   7.764  11.092  0.00  0.00    +0.000 C 
ATOM      2  C   UNL     1      48.147   7.822  12.009  0.00  0.00    +0.000 C 
ENDROOT
BRANCH   2   3
ATOM      3  C   UNL     1      48.567   7.993  13.463  0.00  0.00    +0.000 A 
ATOM      4  C   UNL     1      49.704   7.319  13.940  0.00  0.00    +0.000 A 
ATOM      5  C   UNL     1      50.096   7.410  15.287  0.00  0.00    +0.000 A 
ATOM      6  C   UNL     1      49.356   8.162  16.209  0.00  0.00    +0.000 A 
ATOM      7  C   UNL     1      48.237   8.859  15.732  0.00  0.00    +0.000 A 
ATOM      8  C   UNL     1      47.850   8.781  14.378  0.00  0.00    +0.000 A 
BRANCH   6   9
ATOM      9  C   UNL     1      49.739   8.162  17.690  0.00  0.00    +0.000 C 
BRANCH   9  10
ATOM     10  N   UNL     1      49.700   6.845  18.355  0.00  0.00    +0.000 NA
ATOM     11  C   UNL     1      48.362   6.216  18.267  0.00  0.00    +0.000 C 
ATOM     12  C   UNL     1      47.261   6.749  19.231  0.00  0.00    +0.000 C 
ATOM     13  N   UNL     1      47.655   7.076  20.623  0.00  0.00    +0.000 NA
ATOM     14  C   UNL     1      49.031   7.599  20.678  0.00  0.00    +0.000 C 
ATOM     15  C   UNL     1      50.066   6.892  19.779  0.00  0.00    +0.000 C 
BRANCH  13  16
ATOM     16  C   UNL     1      47.383   5.958  21.551  0.00  0.00    +0.000 C 
BRANCH  16  17
ATOM     17  C   UNL     1      48.572   4.993  21.743  0.00  0.00    +0.000 C 
BRANCH  17  18
ATOM     18  O   UNL     1      48.449   3.856  20.892  0.00  0.00    +0.000 OA
ATOM     19  H   UNL     1      48.743   4.157  20.010  0.00  0.00    +0.000 HD
ENDBRANCH  17  18
ENDBRANCH  16  17
ENDBRANCH  13  16
ENDBRANCH   9  10
ENDBRANCH   6   9
ENDBRANCH   2   3
BRANCH   2  20
ATOM     20  N   UNL     1      47.283   6.665  11.829  0.00  0.00    +0.000 N 
ATOM     21  C   UNL     1      45.914   6.760  11.850  0.00  0.00    +0.000 C 
ATOM     22  O   UNL     1      45.329   7.837  11.930  0.00  0.00    +0.000 OA
ATOM     23  H   UNL     1      47.691   5.764  12.076  0.00  0.00    +0.000 HD
BRANCH  21  24
ATOM     24  C   UNL     1      45.146   5.517  11.711  0.00  0.00    +0.000 A 
ATOM     25  C   UNL     1      44.424   5.026  12.790  0.00  0.00    +0.000 A 
ATOM     26  S   UNL     1      43.599   3.572  12.455  0.00  0.00    +0.000 S 
ATOM     27  C   UNL     1      44.220   3.523  10.873  0.00  0.00    +0.000 A 
ATOM     28  N   UNL     1      43.937   2.484  10.041  0.00  0.00    +0.000 NA
ATOM     29  C   UNL     1      44.512   2.556   8.887  0.00  0.00    +0.000 A 
ATOM     30  N   UNL     1      45.331   3.580   8.483  0.00  0.00    +0.000 N 
ATOM     31  C   UNL     1      45.597   4.678   9.268  0.00  0.00    +0.000 A 
ATOM     32  O   UNL     1      46.255   5.623   8.849  0.00  0.00    +0.000 OA
ATOM     33  C   UNL     1      45.011   4.623  10.591  0.00  0.00    +0.000 A 
ATOM     34  H   UNL     1      45.730   3.586   7.556  0.00  0.00    +0.000 HD
ENDBRANCH  21  24
ENDBRANCH   2  20
TORSDOF 8
ENDMDL
MODEL 2
REMARK VINA RESULT:    -6.353      2.606      3.468
REMARK INTER + INTRA:         -10.095
REMARK INTER:                  -9.080
REMARK INTRA:                  -1.014
REMARK UNBOUND:                -0.956
REMARK  Name = 
REMARK  9 active torsions:
REMARK  status: ('A' for Active; 'I' for Inactive)
REMARK    1  A    between atoms: C_1  and  C_2
REMARK    2  A    between atoms: C_2  and  N_3
REMARK    3  A    between atoms: C_2  and  C_16
REMARK    4  A    between atoms: C_4  and  C_6
REMARK    5  A    between atoms: C_19  and  C_20
REMARK    6  A    between atoms: C_20  and  N_21
REMARK    7  A    between atoms: N_24  and  C_25
REMARK    8  A    between atoms: C_25  and  C_26
REMARK    9  A    between atoms: C_26  and  O_27
REMARK                            x       y       z     vdW  Elec       q    Type
REMARK                         _______ _______ _______ _____ _____    ______ ____
ROOT
ATOM      1  C   UNL     1      49.659   8.274  11.417  0.00  0.00    +0.000 C 
ATOM      2  C   UNL     1      48.467   7.806  12.279  0.00  0.00    +0.000 C 
ENDROOT
BRANCH   2   3
ATOM      3  C   UNL     1      48.941   7.401  13.668  0.00  0.00    +0.000 A 
ATOM      4  C   UNL     1      48.122   6.590  14.471  0.00  0.00    +0.000 A 
ATOM      5  C   UNL     1      48.501   6.237  15.778  0.00  0.00    +0.000 A 
ATOM      6  C   UNL     1      49.701   6.696  16.336  0.00  0.00    +0.000 A 
ATOM      7  C   UNL     1      50.535   7.483  15.528  0.00  0.00    +0.000 A 
ATOM      8  C   UNL     1      50.164   7.826  14.212  0.00  0.00    +0.000 A 
BRANCH   6   9
ATOM      9  C   UNL     1      50.044   6.387  17.794  0.00  0.00    +0.000 C 
BRANCH   9  10
ATOM     10  N   UNL     1      50.131   4.953  18.136  0.00  0.00    +0.000 NA
ATOM     11  C   UNL     1      50.388   4.740  19.579  0.00  0.00    +0.000 C 
ATOM     12  C   UNL     1      51.846   4.962  20.082  0.00  0.00    +0.000 C 
ATOM     13  N   UNL     1      52.958   4.490  19.221  0.00  0.00    +0.000 NA
ATOM     14  C   UNL     1      52.618   4.621  17.794  0.00  0.00    +0.000 C 
ATOM     15  C   UNL     1      51.179   4.233  17.396  0.00  0.00    +0.000 C 
BRANCH  13  16
ATOM     16  C   UNL     1      53.434   3.149  19.622  0.00  0.00    +0.000 C 
BRANCH  16  17
ATOM     17  C   UNL     1      53.606   2.164  18.447  0.00  0.00    +0.000 C 
BRANCH  17  18
ATOM     18  O   UNL     1      52.602   1.152  18.478  0.00  0.00    +0.000 OA
ATOM     19  H   UNL     1      52.818   0.594  19.251  0.00  0.00    +0.000 HD
ENDBRANCH  17  18
ENDBRANCH  16  17
ENDBRANCH  13  16
ENDBRANCH   9  10
ENDBRANCH   6   9
ENDBRANCH   2   3
BRANCH   2  20
ATOM     20  N   UNL     1      47.714   6.742  11.632  0.00  0.00    +0.000 N 
ATOM     21  C   UNL     1      46.355   6.807  11.455  0.00  0.00    +0.000 C 
ATOM     22  O   UNL     1      45.698   7.804  11.747  0.00  0.00    +0.000 OA
ATOM     23  H   UNL     1      48.134   5.814  11.671  0.00  0.00    +0.000 HD
BRANCH  21  24
ATOM     24  C   UNL     1      45.694   5.651  10.839  0.00  0.00    +0.000 A 
ATOM     25  C   UNL     1      45.729   5.487   9.461  0.00  0.00    +0.000 A 
ATOM     26  S   UNL     1      44.905   4.097   8.918  0.00  0.00    +0.000 S 
ATOM     27  C   UNL     1      44.431   3.695  10.500  0.00  0.00    +0.000 A 
ATOM     28  N   UNL     1      43.642   2.612  10.743  0.00  0.00    +0.000 NA
ATOM     29  C   UNL     1      43.324   2.454  11.984  0.00  0.00    +0.000 A 
ATOM     30  N   UNL     1      43.736   3.269  13.007  0.00  0.00    +0.000 N 
ATOM     31  C   UNL     1      44.580   4.338  12.817  0.00  0.00    +0.000 A 
ATOM     32  O   UNL     1      45.009   4.994  13.761  0.00  0.00    +0.000 OA
ATOM     33  C   UNL     1      44.931   4.586  11.434  0.00  0.00    +0.000 A 
ATOM     34  H   UNL     1      43.469   3.075  13.961  0.00  0.00    +0.000 HD
ENDBRANCH  21  24
ENDBRANCH   2  20
TORSDOF 8
ENDMDL
MODEL 3
REMARK VINA RESULT:    -6.268      1.627      2.310
REMARK INTER + INTRA:          -9.972
REMARK INTER:                 -10.021
REMARK INTRA:                   0.049
REMARK UNBOUND:                -0.956
REMARK  Name = 
REMARK  9 active torsions:
REMARK  status: ('A' for Active; 'I' for Inactive)
REMARK    1  A    between atoms: C_1  and  C_2
REMARK    2  A    between atoms: C_2  and  N_3
REMARK    3  A    between atoms: C_2  and  C_16
REMARK    4  A    between atoms: C_4  and  C_6
REMARK    5  A    between atoms: C_19  and  C_20
REMARK    6  A    between atoms: C_20  and  N_21
REMARK    7  A    between atoms: N_24  and  C_25
REMARK    8  A    between atoms: C_25  and  C_26
REMARK    9  A    between atoms: C_26  and  O_27
REMARK                            x       y       z     vdW  Elec       q    Type
REMARK                         _______ _______ _______ _____ _____    ______ ____
ROOT
ATOM      1  C   UNL     1      49.427   7.842  11.044  0.00  0.00    +0.000 C 
ATOM      2  C   UNL     1      48.214   7.911  11.995  0.00  0.00    +0.000 C 
ENDROOT
BRANCH   2   3
ATOM      3  C   UNL     1      48.674   8.099  13.434  0.00  0.00    +0.000 A 
ATOM      4  C   UNL     1      49.948   7.650  13.819  0.00  0.00    +0.000 A 
ATOM      5  C   UNL     1      50.390   7.759  15.149  0.00  0.00    +0.000 A 
ATOM      6  C   UNL     1      49.569   8.303  16.145  0.00  0.00    +0.000 A 
ATOM      7  C   UNL     1      48.307   8.778  15.760  0.00  0.00    +0.000 A 
ATOM      8  C   UNL     1      47.867   8.683  14.424  0.00  0.00    +0.000 A 
BRANCH   6   9
ATOM      9  C   UNL     1      50.028   8.315  17.604  0.00  0.00    +0.000 C 
BRANCH   9  10
ATOM     10  N   UNL     1      49.432   7.275  18.466  0.00  0.00    +0.000 NA
ATOM     11  C   UNL     1      50.461   6.403  19.078  0.00  0.00    +0.000 C 
ATOM     12  C   UNL     1      51.094   5.306  18.170  0.00  0.00    +0.000 C 
ATOM     13  N   UNL     1      50.203   4.579  17.233  0.00  0.00    +0.000 NA
ATOM     14  C   UNL     1      49.131   5.455  16.730  0.00  0.00    +0.000 C 
ATOM     15  C   UNL     1      48.481   6.400  17.763  0.00  0.00    +0.000 C 
BRANCH  13  16
ATOM     16  C   UNL     1      49.737   3.296  17.800  0.00  0.00    +0.000 C 
BRANCH  16  17
ATOM     17  C   UNL     1      50.327   2.049  17.107  0.00  0.00    +0.000 C 
BRANCH  17  18
ATOM     18  O   UNL     1      49.549   1.680  15.971  0.00  0.00    +0.000 OA
ATOM     19  H   UNL     1      49.316   0.741  16.108  0.00  0.00    +0.000 HD
ENDBRANCH  17  18
ENDBRANCH  16  17
ENDBRANCH  13  16
ENDBRANCH   9  10
ENDBRANCH   6   9
ENDBRANCH   2   3
BRANCH   2  20
ATOM     20  N   UNL     1      47.346   6.751  11.852  0.00  0.00    +0.000 N 
ATOM     21  C   UNL     1      45.978   6.850  11.881  0.00  0.00    +0.000 C 
ATOM     22  O   UNL     1      45.395   7.931  11.939  0.00  0.00    +0.000 OA
ATOM     23  H   UNL     1      47.754   5.856  12.119  0.00  0.00    +0.000 HD
BRANCH  21  24
ATOM     24  C   UNL     1      45.205   5.606  11.782  0.00  0.00    +0.000 A 
ATOM     25  C   UNL     1      44.512   5.132  12.887  0.00  0.00    +0.000 A 
ATOM     26  S   UNL     1      43.678   3.674  12.596  0.00  0.00    +0.000 S 
ATOM     27  C   UNL     1      44.257   3.601  10.999  0.00  0.00    +0.000 A 
ATOM     28  N   UNL     1      43.952   2.549  10.190  0.00  0.00    +0.000 NA
ATOM     29  C   UNL     1      44.495   2.604   9.020  0.00  0.00    +0.000 A 
ATOM     30  N   UNL     1      45.304   3.621   8.579  0.00  0.00    +0.000 N 
ATOM     31  C   UNL     1      45.591   4.730   9.341  0.00  0.00    +0.000 A 
ATOM     32  O   UNL     1      46.239   5.669   8.890  0.00  0.00    +0.000 OA
ATOM     33  C   UNL     1      45.040   4.696  10.680  0.00  0.00    +0.000 A 
ATOM     34  H   UNL     1      45.679   3.613   7.642  0.00  0.00    +0.000 HD
ENDBRANCH  21  24
ENDBRANCH   2  20
TORSDOF 8
ENDMDL
MODEL 4
REMARK VINA RESULT:    -6.066      2.660      3.231
REMARK INTER + INTRA:          -9.682
REMARK INTER:                  -8.590
REMARK INTRA:                  -1.092
REMARK UNBOUND:                -0.956
REMARK  Name = 
REMARK  9 active torsions:
REMARK  status: ('A' for Active; 'I' for Inactive)
REMARK    1  A    between atoms: C_1  and  C_2
REMARK    2  A    between atoms: C_2  and  N_3
REMARK    3  A    between atoms: C_2  and  C_16
REMARK    4  A    between atoms: C_4  and  C_6
REMARK    5  A    between atoms: C_19  and  C_20
REMARK    6  A    between atoms: C_20  and  N_21
REMARK    7  A    between atoms: N_24  and  C_25
REMARK    8  A    between atoms: C_25  and  C_26
REMARK    9  A    between atoms: C_26  and  O_27
REMARK                            x       y       z     vdW  Elec       q    Type
REMARK                         _______ _______ _______ _____ _____    ______ ____
ROOT
ATOM      1  C   UNL     1      49.077   7.831  11.483  0.00  0.00    +0.000 C 
ATOM      2  C   UNL     1      48.050   7.494  12.585  0.00  0.00    +0.000 C 
ENDROOT
BRANCH   2   3
ATOM      3  C   UNL     1      48.752   7.281  13.920  0.00  0.00    +0.000 A 
ATOM      4  C   UNL     1      50.047   7.791  14.112  0.00  0.00    +0.000 A 
ATOM      5  C   UNL     1      50.748   7.572  15.310  0.00  0.00    +0.000 A 
ATOM      6  C   UNL     1      50.189   6.820  16.352  0.00  0.00    +0.000 A 
ATOM      7  C   UNL     1      48.886   6.333  16.176  0.00  0.00    +0.000 A 
ATOM      8  C   UNL     1      48.175   6.564  14.981  0.00  0.00    +0.000 A 
BRANCH   6   9
ATOM      9  C   UNL     1      51.009   6.505  17.604  0.00  0.00    +0.000 C 
BRANCH   9  10
ATOM     10  N   UNL     1      50.801   5.159  18.176  0.00  0.00    +0.000 NA
ATOM     11  C   UNL     1      51.159   5.105  19.612  0.00  0.00    +0.000 C 
ATOM     12  C   UNL     1      52.675   5.034  19.964  0.00  0.00    +0.000 C 
ATOM     13  N   UNL     1      53.547   4.183  19.118  0.00  0.00    +0.000 NA
ATOM     14  C   UNL     1      53.091   4.181  17.717  0.00  0.00    +0.000 C 
ATOM     15  C   UNL     1      51.567   4.104  17.495  0.00  0.00    +0.000 C 
BRANCH  13  16
ATOM     16  C   UNL     1      53.743   2.840  19.705  0.00  0.00    +0.000 C 
BRANCH  16  17
ATOM     17  C   UNL     1      54.128   1.754  18.679  0.00  0.00    +0.000 C 
BRANCH  17  18
ATOM     18  O   UNL     1      54.523   0.551  19.334  0.00  0.00    +0.000 OA
ATOM     19  H   UNL     1      55.493   0.503  19.230  0.00  0.00    +0.000 HD
ENDBRANCH  17  18
ENDBRANCH  16  17
ENDBRANCH  13  16
ENDBRANCH   9  10
ENDBRANCH   6   9
ENDBRANCH   2   3
BRANCH   2  20
ATOM     20  N   UNL     1      47.219   6.355  12.224  0.00  0.00    +0.000 N 
ATOM     21  C   UNL     1      45.849   6.401  12.274  0.00  0.00    +0.000 C 
ATOM     22  O   UNL     1      45.232   7.429  12.540  0.00  0.00    +0.000 OA
ATOM     23  H   UNL     1      47.659   5.439  12.312  0.00  0.00    +0.000 HD
BRANCH  21  24
ATOM     24  C   UNL     1      45.116   5.174  11.938  0.00  0.00    +0.000 A 
ATOM     25  C   UNL     1      44.413   4.495  12.925  0.00  0.00    +0.000 A 
ATOM     26  S   UNL     1      43.630   3.090  12.361  0.00  0.00    +0.000 S 
ATOM     27  C   UNL     1      44.246   3.313  10.792  0.00  0.00    +0.000 A 
ATOM     28  N   UNL     1      43.991   2.412   9.804  0.00  0.00    +0.000 NA
ATOM     29  C   UNL     1      44.559   2.684   8.677  0.00  0.00    +0.000 A 
ATOM     30  N   UNL     1      45.346   3.783   8.443  0.00  0.00    +0.000 N 
ATOM     31  C   UNL     1      45.583   4.749   9.393  0.00  0.00    +0.000 A 
ATOM     32  O   UNL     1      46.212   5.768   9.131  0.00  0.00    +0.000 OA
ATOM     33  C   UNL     1      45.003   4.466  10.691  0.00  0.00    +0.000 A 
ATOM     34  H   UNL     1      45.741   3.949   7.529  0.00  0.00    +0.000 HD
ENDBRANCH  21  24
ENDBRANCH   2  20
TORSDOF 8
ENDMDL
MODEL 5
REMARK VINA RESULT:    -5.949      2.381      2.972
REMARK INTER + INTRA:          -9.513
REMARK INTER:                  -8.630
REMARK INTRA:                  -0.882
REMARK UNBOUND:                -0.956
REMARK  Name = 
REMARK  9 active torsions:
REMARK  status: ('A' for Active; 'I' for Inactive)
REMARK    1  A    between atoms: C_1  and  C_2
REMARK    2  A    between atoms: C_2  and  N_3
REMARK    3  A    between atoms: C_2  and  C_16
REMARK    4  A    between atoms: C_4  and  C_6
REMARK    5  A    between atoms: C_19  and  C_20
REMARK    6  A    between atoms: C_20  and  N_21
REMARK    7  A    between atoms: N_24  and  C_25
REMARK    8  A    between atoms: C_25  and  C_26
REMARK    9  A    between atoms: C_26  and  O_27
REMARK                            x       y       z     vdW  Elec       q    Type
REMARK                         _______ _______ _______ _____ _____    ______ ____
ROOT
ATOM      1  C   UNL     1      49.178   9.799  11.413  0.00  0.00    +0.000 C 
ATOM      2  C   UNL     1      48.232   9.362  12.552  0.00  0.00    +0.000 C 
ENDROOT
BRANCH   2   3
ATOM      3  C   UNL     1      49.027   9.043  13.811  0.00  0.00    +0.000 A 
ATOM      4  C   UNL     1      50.044   8.076  13.763  0.00  0.00    +0.000 A 
ATOM      5  C   UNL     1      50.766   7.716  14.915  0.00  0.00    +0.000 A 
ATOM      6  C   UNL     1      50.484   8.295  16.159  0.00  0.00    +0.000 A 
ATOM      7  C   UNL     1      49.487   9.280  16.207  0.00  0.00    +0.000 A 
ATOM      8  C   UNL     1      48.773   9.654  15.050  0.00  0.00    +0.000 A 
BRANCH   6   9
ATOM      9  C   UNL     1      51.207   7.813  17.417  0.00  0.00    +0.000 C 
BRANCH   9  10
ATOM     10  N   UNL     1      50.362   7.109  18.404  0.00  0.00    +0.000 NA
ATOM     11  C   UNL     1      51.027   5.900  18.942  0.00  0.00    +0.000 C 
ATOM     12  C   UNL     1      51.041   4.634  18.034  0.00  0.00    +0.000 C 
ATOM     13  N   UNL     1      49.819   4.324  17.253  0.00  0.00    +0.000 NA
ATOM     14  C   UNL     1      49.131   5.556  16.829  0.00  0.00    +0.000 C 
ATOM     15  C   UNL     1      49.057   6.690  17.872  0.00  0.00    +0.000 C 
BRANCH  13  16
ATOM     16  C   UNL     1      48.956   3.343  17.947  0.00  0.00    +0.000 C 
BRANCH  16  17
ATOM     17  C   UNL     1      47.811   2.785  17.077  0.00  0.00    +0.000 C 
BRANCH  17  18
ATOM     18  O   UNL     1      46.543   3.215  17.566  0.00  0.00    +0.000 OA
ATOM     19  H   UNL     1      46.679   4.132  17.875  0.00  0.00    +0.000 HD
ENDBRANCH  17  18
ENDBRANCH  16  17
ENDBRANCH  13  16
ENDBRANCH   9  10
ENDBRANCH   6   9
ENDBRANCH   2   3
BRANCH   2  20
ATOM     20  N   UNL     1      47.380   8.252  12.154  0.00  0.00    +0.000 N 
ATOM     21  C   UNL     1      46.084   8.128  12.588  0.00  0.00    +0.000 C 
ATOM     22  O   UNL     1      45.531   8.991  13.266  0.00  0.00    +0.000 OA
ATOM     23  H   UNL     1      47.864   7.396  11.882  0.00  0.00    +0.000 HD
BRANCH  21  24
ATOM     24  C   UNL     1      45.337   6.938  12.164  0.00  0.00    +0.000 A 
ATOM     25  C   UNL     1      44.174   7.079  11.421  0.00  0.00    +0.000 A 
ATOM     26  S   UNL     1      43.432   5.597  11.024  0.00  0.00    +0.000 S 
ATOM     27  C   UNL     1      44.613   4.718  11.875  0.00  0.00    +0.000 A 
ATOM     28  N   UNL     1      44.541   3.363  11.977  0.00  0.00    +0.000 NA
ATOM     29  C   UNL     1      45.479   2.833  12.689  0.00  0.00    +0.000 A 
ATOM     30  N   UNL     1      46.491   3.533  13.296  0.00  0.00    +0.000 N 
ATOM     31  C   UNL     1      46.636   4.895  13.172  0.00  0.00    +0.000 A 
ATOM     32  O   UNL     1      47.602   5.484  13.646  0.00  0.00    +0.000 OA
ATOM     33  C   UNL     1      45.583   5.543  12.418  0.00  0.00    +0.000 A 
ATOM     34  H   UNL     1      47.207   3.053  13.821  0.00  0.00    +0.000 HD
ENDBRANCH  21  24
ENDBRANCH   2  20
TORSDOF 8
ENDMDL
MODEL 6
REMARK VINA RESULT:    -5.936      4.624      8.304
REMARK INTER + INTRA:          -9.495
REMARK INTER:                  -8.701
REMARK INTRA:                  -0.793
REMARK UNBOUND:                -0.956
REMARK  Name = 
REMARK  9 active torsions:
REMARK  status: ('A' for Active; 'I' for Inactive)
REMARK    1  A    between atoms: C_1  and  C_2
REMARK    2  A    between atoms: C_2  and  N_3
REMARK    3  A    between atoms: C_2  and  C_16
REMARK    4  A    between atoms: C_4  and  C_6
REMARK    5  A    between atoms: C_19  and  C_20
REMARK    6  A    between atoms: C_20  and  N_21
REMARK    7  A    between atoms: N_24  and  C_25
REMARK    8  A    between atoms: C_25  and  C_26
REMARK    9  A    between atoms: C_26  and  O_27
REMARK                            x       y       z     vdW  Elec       q    Type
REMARK                         _______ _______ _______ _____ _____    ______ ____
ROOT
ATOM      1  C   UNL     1      47.960  10.863  11.399  0.00  0.00    +0.000 C 
ATOM      2  C   UNL     1      48.575   9.614  12.065  0.00  0.00    +0.000 C 
ENDROOT
BRANCH   2   3
ATOM      3  C   UNL     1      49.918   9.280  11.431  0.00  0.00    +0.000 A 
ATOM      4  C   UNL     1      50.362   7.947  11.408  0.00  0.00    +0.000 A 
ATOM      5  C   UNL     1      51.618   7.604  10.878  0.00  0.00    +0.000 A 
ATOM      6  C   UNL     1      52.483   8.581  10.369  0.00  0.00    +0.000 A 
ATOM      7  C   UNL     1      52.033   9.910  10.365  0.00  0.00    +0.000 A 
ATOM      8  C   UNL     1      50.768  10.254  10.882  0.00  0.00    +0.000 A 
BRANCH   6   9
ATOM      9  C   UNL     1      53.886   8.201   9.895  0.00  0.00    +0.000 C 
BRANCH   9  10
ATOM     10  N   UNL     1      54.066   8.134   8.431  0.00  0.00    +0.000 NA
ATOM     11  C   UNL     1      52.874   7.578   7.750  0.00  0.00    +0.000 C 
ATOM     12  C   UNL     1      52.678   6.034   7.808  0.00  0.00    +0.000 C 
ATOM     13  N   UNL     1      53.879   5.174   7.667  0.00  0.00    +0.000 NA
ATOM     14  C   UNL     1      55.064   5.813   8.264  0.00  0.00    +0.000 C 
ATOM     15  C   UNL     1      55.222   7.327   8.014  0.00  0.00    +0.000 C 
BRANCH  13  16
ATOM     16  C   UNL     1      54.063   4.711   6.275  0.00  0.00    +0.000 C 
BRANCH  16  17
ATOM     17  C   UNL     1      54.254   3.185   6.139  0.00  0.00    +0.000 C 
BRANCH  17  18
ATOM     18  O   UNL     1      53.185   2.479   6.765  0.00  0.00    +0.000 OA
ATOM     19  H   UNL     1      53.403   2.467   7.717  0.00  0.00    +0.000 HD
ENDBRANCH  17  18
ENDBRANCH  16  17
ENDBRANCH  13  16
ENDBRANCH   9  10
ENDBRANCH   6   9
ENDBRANCH   2   3
BRANCH   2  20
ATOM     20  N   UNL     1      47.665   8.479  12.034  0.00  0.00    +0.000 N 
ATOM     21  C   UNL     1      47.499   7.642  13.109  0.00  0.00    +0.000 C 
ATOM     22  O   UNL     1      48.037   7.847  14.194  0.00  0.00    +0.000 OA
ATOM     23  H   UNL     1      47.461   8.097  11.111  0.00  0.00    +0.000 HD
BRANCH  21  24
ATOM     24  C   UNL     1      46.595   6.498  12.945  0.00  0.00    +0.000 A 
ATOM     25  C   UNL     1      46.986   5.238  13.378  0.00  0.00    +0.000 A 
ATOM     26  S   UNL     1      45.818   4.027  13.101  0.00  0.00    +0.000 S 
ATOM     27  C   UNL     1      44.772   5.135  12.347  0.00  0.00    +0.000 A 
ATOM     28  N   UNL     1      43.584   4.730  11.819  0.00  0.00    +0.000 NA
ATOM     29  C   UNL     1      42.914   5.668  11.238  0.00  0.00    +0.000 A 
ATOM     30  N   UNL     1      43.315   6.977  11.150  0.00  0.00    +0.000 N 
ATOM     31  C   UNL     1      44.478   7.443  11.719  0.00  0.00    +0.000 A 
ATOM     32  O   UNL     1      44.767   8.634  11.707  0.00  0.00    +0.000 OA
ATOM     33  C   UNL     1      45.289   6.419  12.345  0.00  0.00    +0.000 A 
ATOM     34  H   UNL     1      42.730   7.666  10.701  0.00  0.00    +0.000 HD
ENDBRANCH  21  24
ENDBRANCH   2  20
TORSDOF 8
ENDMDL
MODEL 7
REMARK VINA RESULT:    -5.874      4.749      7.608
REMARK INTER + INTRA:          -9.406
REMARK INTER:                  -8.370
REMARK INTRA:                  -1.036
REMARK UNBOUND:                -0.956
REMARK  Name = 
REMARK  9 active torsions:
REMARK  status: ('A' for Active; 'I' for Inactive)
REMARK    1  A    between atoms: C_1  and  C_2
REMARK    2  A    between atoms: C_2  and  N_3
REMARK    3  A    between atoms: C_2  and  C_16
REMARK    4  A    between atoms: C_4  and  C_6
REMARK    5  A    between atoms: C_19  and  C_20
REMARK    6  A    between atoms: C_20  and  N_21
REMARK    7  A    between atoms: N_24  and  C_25
REMARK    8  A    between atoms: C_25  and  C_26
REMARK    9  A    between atoms: C_26  and  O_27
REMARK                            x       y       z     vdW  Elec       q    Type
REMARK                         _______ _______ _______ _____ _____    ______ ____
ROOT
ATOM      1  C   UNL     1      45.472   9.592  12.144  0.00  0.00    +0.000 C 
ATOM      2  C   UNL     1      46.177   8.278  12.542  0.00  0.00    +0.000 C 
ENDROOT
BRANCH   2   3
ATOM      3  C   UNL     1      47.661   8.347  12.204  0.00  0.00    +0.000 A 
ATOM      4  C   UNL     1      48.217   9.559  11.765  0.00  0.00    +0.000 A 
ATOM      5  C   UNL     1      49.570   9.651  11.394  0.00  0.00    +0.000 A 
ATOM      6  C   UNL     1      50.411   8.531  11.431  0.00  0.00    +0.000 A 
ATOM      7  C   UNL     1      49.866   7.324  11.894  0.00  0.00    +0.000 A 
ATOM      8  C   UNL     1      48.514   7.234  12.281  0.00  0.00    +0.000 A 
BRANCH   6   9
ATOM      9  C   UNL     1      51.850   8.628  10.923  0.00  0.00    +0.000 C 
BRANCH   9  10
ATOM     10  N   UNL     1      52.435   7.364  10.430  0.00  0.00    +0.000 NA
ATOM     11  C   UNL     1      53.907   7.331  10.598  0.00  0.00    +0.000 C 
ATOM     12  C   UNL     1      54.757   8.140   9.572  0.00  0.00    +0.000 C 
ATOM     13  N   UNL     1      54.336   8.119   8.150  0.00  0.00    +0.000 NA
ATOM     14  C   UNL     1      52.869   8.045   8.030  0.00  0.00    +0.000 C 
ATOM     15  C   UNL     1      52.152   7.096   9.012  0.00  0.00    +0.000 C 
BRANCH  13  16
ATOM     16  C   UNL     1      55.071   7.100   7.372  0.00  0.00    +0.000 C 
BRANCH  16  17
ATOM     17  C   UNL     1      54.471   6.815   5.979  0.00  0.00    +0.000 C 
BRANCH  17  18
ATOM     18  O   UNL     1      53.862   5.527   5.940  0.00  0.00    +0.000 OA
ATOM     19  H   UNL     1      53.134   5.562   6.591  0.00  0.00    +0.000 HD
ENDBRANCH  17  18
ENDBRANCH  16  17
ENDBRANCH  13  16
ENDBRANCH   9  10
ENDBRANCH   6   9
ENDBRANCH   2   3
BRANCH   2  20
ATOM     20  N   UNL     1      45.539   7.116  11.942  0.00  0.00    +0.000 N 
ATOM     21  C   UNL     1      45.450   5.911  12.592  0.00  0.00    +0.000 C 
ATOM     22  O   UNL     1      45.821   5.758  13.753  0.00  0.00    +0.000 OA
ATOM     23  H   UNL     1      45.515   7.099  10.923  0.00  0.00    +0.000 HD
BRANCH  21  24
ATOM     24  C   UNL     1      44.832   4.794  11.867  0.00  0.00    +0.000 A 
ATOM     25  C   UNL     1      44.003   3.907  12.540  0.00  0.00    +0.000 A 
ATOM     26  S   UNL     1      43.380   2.668  11.548  0.00  0.00    +0.000 S 
ATOM     27  C   UNL     1      44.238   3.245  10.198  0.00  0.00    +0.000 A 
ATOM     28  N   UNL     1      44.186   2.596   9.003  0.00  0.00    +0.000 NA
ATOM     29  C   UNL     1      44.921   3.120   8.081  0.00  0.00    +0.000 A 
ATOM     30  N   UNL     1      45.692   4.243   8.239  0.00  0.00    +0.000 N 
ATOM     31  C   UNL     1      45.730   4.965   9.410  0.00  0.00    +0.000 A 
ATOM     32  O   UNL     1      46.353   6.018   9.496  0.00  0.00    +0.000 OA
ATOM     33  C   UNL     1      44.956   4.392  10.491  0.00  0.00    +0.000 A 
ATOM     34  H   UNL     1      46.226   4.615   7.467  0.00  0.00    +0.000 HD
ENDBRANCH  21  24
ENDBRANCH   2  20
TORSDOF 8
ENDMDL
MODEL 8
REMARK VINA RESULT:    -5.858      2.037      2.244
REMARK INTER + INTRA:          -9.382
REMARK INTER:                  -8.348
REMARK INTRA:                  -1.034
REMARK UNBOUND:                -0.956
REMARK  Name = 
REMARK  9 active torsions:
REMARK  status: ('A' for Active; 'I' for Inactive)
REMARK    1  A    between atoms: C_1  and  C_2
REMARK    2  A    between atoms: C_2  and  N_3
REMARK    3  A    between atoms: C_2  and  C_16
REMARK    4  A    between atoms: C_4  and  C_6
REMARK    5  A    between atoms: C_19  and  C_20
REMARK    6  A    between atoms: C_20  and  N_21
REMARK    7  A    between atoms: N_24  and  C_25
REMARK    8  A    between atoms: C_25  and  C_26
REMARK    9  A    between atoms: C_26  and  O_27
REMARK                            x       y       z     vdW  Elec       q    Type
REMARK                         _______ _______ _______ _____ _____    ______ ____
ROOT
ATOM      1  C   UNL     1      48.830   7.973  11.443  0.00  0.00    +0.000 C 
ATOM      2  C   UNL     1      47.702   7.744  12.472  0.00  0.00    +0.000 C 
ENDROOT
BRANCH   2   3
ATOM      3  C   UNL     1      48.260   7.769  13.889  0.00  0.00    +0.000 A 
ATOM      4  C   UNL     1      48.385   6.568  14.607  0.00  0.00    +0.000 A 
ATOM      5  C   UNL     1      48.847   6.555  15.934  0.00  0.00    +0.000 A 
ATOM      6  C   UNL     1      49.183   7.742  16.598  0.00  0.00    +0.000 A 
ATOM      7  C   UNL     1      49.086   8.941  15.876  0.00  0.00    +0.000 A 
ATOM      8  C   UNL     1      48.637   8.955  14.540  0.00  0.00    +0.000 A 
BRANCH   6   9
ATOM      9  C   UNL     1      49.582   7.716  18.074  0.00  0.00    +0.000 C 
BRANCH   9  10
ATOM     10  N   UNL     1      48.508   7.338  19.015  0.00  0.00    +0.000 NA
ATOM     11  C   UNL     1      47.355   8.265  18.945  0.00  0.00    +0.000 C 
ATOM     12  C   UNL     1      47.508   9.644  19.655  0.00  0.00    +0.000 C 
ATOM     13  N   UNL     1      48.199   9.678  20.967  0.00  0.00    +0.000 NA
ATOM     14  C   UNL     1      49.269   8.667  21.031  0.00  0.00    +0.000 C 
ATOM     15  C   UNL     1      48.944   7.289  20.419  0.00  0.00    +0.000 C 
BRANCH  13  16
ATOM     16  C   UNL     1      47.244   9.638  22.094  0.00  0.00    +0.000 C 
BRANCH  16  17
ATOM     17  C   UNL     1      45.879  10.291  21.788  0.00  0.00    +0.000 C 
BRANCH  17  18
ATOM     18  O   UNL     1      45.832  11.628  22.281  0.00  0.00    +0.000 OA
ATOM     19  H   UNL     1      46.371  11.624  23.096  0.00  0.00    +0.000 HD
ENDBRANCH  17  18
ENDBRANCH  16  17
ENDBRANCH  13  16
ENDBRANCH   9  10
ENDBRANCH   6   9
ENDBRANCH   2   3
BRANCH   2  20
ATOM     20  N   UNL     1      46.964   6.519  12.203  0.00  0.00    +0.000 N 
ATOM     21  C   UNL     1      45.678   6.527  11.723  0.00  0.00    +0.000 C 
ATOM     22  O   UNL     1      45.100   7.562  11.403  0.00  0.00    +0.000 OA
ATOM     23  H   UNL     1      47.258   5.698  12.731  0.00  0.00    +0.000 HD
BRANCH  21  24
ATOM     24  C   UNL     1      45.014   5.231  11.541  0.00  0.00    +0.000 A 
ATOM     25  C   UNL     1      44.305   4.663  12.591  0.00  0.00    +0.000 A 
ATOM     26  S   UNL     1      43.606   3.156  12.207  0.00  0.00    +0.000 S 
ATOM     27  C   UNL     1      44.270   3.188  10.642  0.00  0.00    +0.000 A 
ATOM     28  N   UNL     1      44.091   2.146   9.784  0.00  0.00    +0.000 NA
ATOM     29  C   UNL     1      44.689   2.286   8.648  0.00  0.00    +0.000 A 
ATOM     30  N   UNL     1      45.435   3.379   8.285  0.00  0.00    +0.000 N 
ATOM     31  C   UNL     1      45.593   4.478   9.097  0.00  0.00    +0.000 A 
ATOM     32  O   UNL     1      46.186   5.481   8.713  0.00  0.00    +0.000 OA
ATOM     33  C   UNL     1      44.979   4.352  10.402  0.00  0.00    +0.000 A 
ATOM     34  H   UNL     1      45.857   3.434   7.370  0.00  0.00    +0.000 HD
ENDBRANCH  21  24
ENDBRANCH   2  20
TORSDOF 8
ENDMDL
MODEL 9
REMARK VINA RESULT:    -5.567      5.196      9.199
REMARK INTER + INTRA:          -8.963
REMARK INTER:                  -8.276
REMARK INTRA:                  -0.686
REMARK UNBOUND:                -0.956
REMARK  Name = 
REMARK  9 active torsions:
REMARK  status: ('A' for Active; 'I' for Inactive)
REMARK    1  A    between atoms: C_1  and  C_2
REMARK    2  A    between atoms: C_2  and  N_3
REMARK    3  A    between atoms: C_2  and  C_16
REMARK    4  A    between atoms: C_4  and  C_6
REMARK    5  A    between atoms: C_19  and  C_20
REMARK    6  A    between atoms: C_20  and  N_21
REMARK    7  A    between atoms: N_24  and  C_25
REMARK    8  A    between atoms: C_25  and  C_26
REMARK    9  A    between atoms: C_26  and  O_27
REMARK                            x       y       z     vdW  Elec       q    Type
REMARK                         _______ _______ _______ _____ _____    ______ ____
ROOT
ATOM      1  C   UNL     1      49.680   9.744  11.845  0.00  0.00    +0.000 C 
ATOM      2  C   UNL     1      48.485   8.845  12.229  0.00  0.00    +0.000 C 
ENDROOT
BRANCH   2   3
ATOM      3  C   UNL     1      47.174   9.597  12.051  0.00  0.00    +0.000 A 
ATOM      4  C   UNL     1      45.956   8.925  12.246  0.00  0.00    +0.000 A 
ATOM      5  C   UNL     1      44.724   9.570  12.041  0.00  0.00    +0.000 A 
ATOM      6  C   UNL     1      44.664  10.903  11.617  0.00  0.00    +0.000 A 
ATOM      7  C   UNL     1      45.877  11.587  11.447  0.00  0.00    +0.000 A 
ATOM      8  C   UNL     1      47.113  10.946  11.666  0.00  0.00    +0.000 A 
BRANCH   6   9
ATOM      9  C   UNL     1      43.317  11.553  11.298  0.00  0.00    +0.000 C 
BRANCH   9  10
ATOM     10  N   UNL     1      42.525  10.888  10.244  0.00  0.00    +0.000 NA
ATOM     11  C   UNL     1      41.845  11.863   9.360  0.00  0.00    +0.000 C 
ATOM     12  C   UNL     1      40.558  12.546   9.913  0.00  0.00    +0.000 C 
ATOM     13  N   UNL     1      39.611  11.715  10.695  0.00  0.00    +0.000 NA
ATOM     14  C   UNL     1      40.322  10.689  11.477  0.00  0.00    +0.000 C 
ATOM     15  C   UNL     1      41.493   9.979  10.766  0.00  0.00    +0.000 C 
BRANCH  13  16
ATOM     16  C   UNL     1      38.510  11.198   9.855  0.00  0.00    +0.000 C 
BRANCH  16  17
ATOM     17  C   UNL     1      37.648  10.116  10.541  0.00  0.00    +0.000 C 
BRANCH  17  18
ATOM     18  O   UNL     1      37.046   9.257   9.576  0.00  0.00    +0.000 OA
ATOM     19  H   UNL     1      36.852   9.824   8.805  0.00  0.00    +0.000 HD
ENDBRANCH  17  18
ENDBRANCH  16  17
ENDBRANCH  13  16
ENDBRANCH   9  10
ENDBRANCH   6   9
ENDBRANCH   2   3
BRANCH   2  20
ATOM     20  N   UNL     1      48.622   8.307  13.575  0.00  0.00    +0.000 N 
ATOM     21  C   UNL     1      48.743   6.962  13.818  0.00  0.00    +0.000 C 
ATOM     22  O   UNL     1      48.836   6.133  12.916  0.00  0.00    +0.000 OA
ATOM     23  H   UNL     1      48.241   8.883  14.324  0.00  0.00    +0.000 HD
BRANCH  21  24
ATOM     24  C   UNL     1      48.820   6.530  15.219  0.00  0.00    +0.000 A 
ATOM     25  C   UNL     1      49.667   7.187  16.101  0.00  0.00    +0.000 A 
ATOM     26  S   UNL     1      49.636   6.550  17.682  0.00  0.00    +0.000 S 
ATOM     27  C   UNL     1      48.528   5.342  17.229  0.00  0.00    +0.000 A 
ATOM     28  N   UNL     1      48.110   4.404  18.122  0.00  0.00    +0.000 NA
ATOM     29  C   UNL     1      47.306   3.523  17.630  0.00  0.00    +0.000 A 
ATOM     30  N   UNL     1      46.867   3.503  16.330  0.00  0.00    +0.000 N 
ATOM     31  C   UNL     1      47.217   4.464  15.409  0.00  0.00    +0.000 A 
ATOM     32  O   UNL     1      46.737   4.476  14.280  0.00  0.00    +0.000 OA
ATOM     33  C   UNL     1      48.155   5.451  15.901  0.00  0.00    +0.000 A 
ATOM     34  H   UNL     1      46.218   2.797  16.015  0.00  0.00    +0.000 HD
ENDBRANCH  21  24
ENDBRANCH   2  20
TORSDOF 8
ENDMDL
