MODEL 1
REMARK VINA RESULT:    -7.423      0.000      0.000
REMARK INTER + INTRA:         -10.072
REMARK INTER:                  -9.159
REMARK INTRA:                  -0.913
REMARK UNBOUND:                -0.913
REMARK  Name = 
REMARK  4 active torsions:
REMARK  status: ('A' for Active; 'I' for Inactive)
REMARK    1  A    between atoms: C_7  and  N_8
REMARK    2  A    between atoms: N_8  and  C_9
REMARK    3  A    between atoms: C_9  and  C_10
REMARK    4  A    between atoms: C_14  and  N_15
REMARK                            x       y       z     vdW  Elec       q    Type
REMARK                         _______ _______ _______ _____ _____    ______ ____
ROOT
ATOM      1  C   UNL     1      45.947   6.714  12.381  0.00  0.00    +0.000 C 
ATOM      2  C   UNL     1      47.210   6.560  13.223  0.00  0.00    +0.000 C 
ATOM      3  C   UNL     1      47.327   6.862  11.769  0.00  0.00    +0.000 C 
ENDROOT
BRANCH   1   4
ATOM      4  C   UNL     1      45.175   5.432  12.049  0.00  0.00    +0.000 A 
ATOM      5  C   UNL     1      44.252   4.894  12.956  0.00  0.00    +0.000 A 
ATOM      6  C   UNL     1      43.456   3.807  12.606  0.00  0.00    +0.000 A 
ATOM      7  C   UNL     1      43.566   3.248  11.333  0.00  0.00    +0.000 A 
ATOM      8  C   UNL     1      44.490   3.727  10.394  0.00  0.00    +0.000 A 
ATOM      9  C   UNL     1      45.313   4.787  10.797  0.00  0.00    +0.000 A 
BRANCH   8  10
ATOM     10  N   UNL     1      44.545   3.167   9.124  0.00  0.00    +0.000 N 
ATOM     11  C   UNL     1      44.752   1.734   8.910  0.00  0.00    +0.000 C 
ATOM     12  C   UNL     1      46.153   1.445   8.370  0.00  0.00    +0.000 C 
ATOM     13  C   UNL     1      46.469   2.308   7.152  0.00  0.00    +0.000 C 
ATOM     14  C   UNL     1      46.274   3.784   7.482  0.00  0.00    +0.000 C 
ATOM     15  C   UNL     1      44.857   4.052   7.995  0.00  0.00    +0.000 C 
ENDBRANCH   8  10
ENDBRANCH   1   4
BRANCH   1  16
ATOM     16  N   UNL     1      45.083   7.861  12.746  0.00  0.00    +0.000 N 
ATOM     17  H   UNL     1      44.158   7.555  13.044  0.00  0.00    +0.000 HD
BRANCH  16  24
ATOM     18 CL   UNL     1      42.950  10.704   8.976  0.00  0.00    +0.000 Cl
ATOM     19  C   UNL     1      44.101  10.468  10.236  0.00  0.00    +0.000 A 
ATOM     20  C   UNL     1      45.074  11.437  10.462  0.00  0.00    +0.000 A 
ATOM     21  C   UNL     1      46.017  11.214  11.453  0.00  0.00    +0.000 A 
ATOM     22 CL   UNL     1      47.237  12.394  11.750  0.00  0.00    +0.000 Cl
ATOM     23  C   UNL     1      45.995  10.040  12.209  0.00  0.00    +0.000 A 
ATOM     24  C   UNL     1      45.001   9.067  12.009  0.00  0.00    +0.000 A 
ATOM     25  C   UNL     1      44.060   9.296  11.002  0.00  0.00    +0.000 A 
ENDBRANCH  16  24
ENDBRANCH   1  16
TORSDOF 4
ENDMDL
MODEL 2
REMARK VINA RESULT:    -7.367      3.371      5.117
REMARK INTER + INTRA:         -10.002
REMARK INTER:                  -9.063
REMARK INTRA:                  -0.940
REMARK UNBOUND:                -0.913
REMARK  Name = 
REMARK  4 active torsions:
REMARK  status: ('A' for Active; 'I' for Inactive)
REMARK    1  A    between atoms: C_7  and  N_8
REMARK    2  A    between atoms: N_8  and  C_9
REMARK    3  A    between atoms: C_9  and  C_10
REMARK    4  A    between atoms: C_14  and  N_15
REMARK                            x       y       z     vdW  Elec       q    Type
REMARK                         _______ _______ _______ _____ _____    ______ ____
ROOT
ATOM      1  C   UNL     1      46.195   6.218  12.585  0.00  0.00    +0.000 C 
ATOM      2  C   UNL     1      46.227   7.425  11.652  0.00  0.00    +0.000 C 
ATOM      3  C   UNL     1      45.484   7.510  12.940  0.00  0.00    +0.000 C 
ENDROOT
BRANCH   1   4
ATOM      4  C   UNL     1      45.316   5.037  12.159  0.00  0.00    +0.000 A 
ATOM      5  C   UNL     1      44.304   4.555  13.000  0.00  0.00    +0.000 A 
ATOM      6  C   UNL     1      43.421   3.570  12.565  0.00  0.00    +0.000 A 
ATOM      7  C   UNL     1      43.532   3.062  11.271  0.00  0.00    +0.000 A 
ATOM      8  C   UNL     1      44.541   3.487  10.395  0.00  0.00    +0.000 A 
ATOM      9  C   UNL     1      45.446   4.440  10.883  0.00  0.00    +0.000 A 
BRANCH   8  10
ATOM     10  N   UNL     1      44.597   2.983   9.102  0.00  0.00    +0.000 N 
ATOM     11  C   UNL     1      44.874   1.573   8.824  0.00  0.00    +0.000 C 
ATOM     12  C   UNL     1      46.276   1.381   8.246  0.00  0.00    +0.000 C 
ATOM     13  C   UNL     1      46.521   2.308   7.059  0.00  0.00    +0.000 C 
ATOM     14  C   UNL     1      46.256   3.757   7.454  0.00  0.00    +0.000 C 
ATOM     15  C   UNL     1      44.838   3.929   8.005  0.00  0.00    +0.000 C 
ENDBRANCH   8  10
ENDBRANCH   1   4
BRANCH   1  16
ATOM     16  N   UNL     1      47.508   5.822  13.147  0.00  0.00    +0.000 N 
ATOM     17  H   UNL     1      47.905   5.026  12.650  0.00  0.00    +0.000 HD
BRANCH  16  24
ATOM     18 CL   UNL     1      49.930   7.624  17.358  0.00  0.00    +0.000 Cl
ATOM     19  C   UNL     1      48.921   6.480  16.558  0.00  0.00    +0.000 A 
ATOM     20  C   UNL     1      48.468   5.364  17.255  0.00  0.00    +0.000 A 
ATOM     21  C   UNL     1      47.690   4.433  16.586  0.00  0.00    +0.000 A 
ATOM     22 CL   UNL     1      47.121   3.038  17.422  0.00  0.00    +0.000 Cl
ATOM     23  C   UNL     1      47.367   4.607  15.238  0.00  0.00    +0.000 A 
ATOM     24  C   UNL     1      47.794   5.744  14.532  0.00  0.00    +0.000 A 
ATOM     25  C   UNL     1      48.587   6.673  15.211  0.00  0.00    +0.000 A 
ENDBRANCH  16  24
ENDBRANCH   1  16
TORSDOF 4
ENDMDL
MODEL 3
REMARK VINA RESULT:    -6.742      2.770      4.107
REMARK INTER + INTRA:          -9.232
REMARK INTER:                  -8.263
REMARK INTRA:                  -0.969
REMARK UNBOUND:                -0.913
REMARK  Name = 
REMARK  4 active torsions:
REMARK  status: ('A' for Active; 'I' for Inactive)
REMARK    1  A    between atoms: C_7  and  N_8
REMARK    2  A    between atoms: N_8  and  C_9
REMARK    3  A    between atoms: C_9  and  C_10
REMARK    4  A    between atoms: C_14  and  N_15
REMARK                            x       y       z     vdW  Elec       q    Type
REMARK                         _______ _______ _______ _____ _____    ______ ____
ROOT
ATOM      1  C   UNL     1      45.876   6.925  12.029  0.00  0.00    +0.000 C 
ATOM      2  C   UNL     1      45.247   8.171  11.414  0.00  0.00    +0.000 C 
ATOM      3  C   UNL     1      45.176   7.961  12.887  0.00  0.00    +0.000 C 
ENDROOT
BRANCH   1   4
ATOM      4  C   UNL     1      45.143   5.597  11.808  0.00  0.00    +0.000 A 
ATOM      5  C   UNL     1      44.261   5.094  12.774  0.00  0.00    +0.000 A 
ATOM      6  C   UNL     1      43.496   3.958  12.523  0.00  0.00    +0.000 A 
ATOM      7  C   UNL     1      43.594   3.316  11.288  0.00  0.00    +0.000 A 
ATOM      8  C   UNL     1      44.477   3.759  10.294  0.00  0.00    +0.000 A 
ATOM      9  C   UNL     1      45.272   4.872  10.600  0.00  0.00    +0.000 A 
BRANCH   8  10
ATOM     10  N   UNL     1      44.520   3.114   9.064  0.00  0.00    +0.000 N 
ATOM     11  C   UNL     1      44.770   1.677   8.944  0.00  0.00    +0.000 C 
ATOM     12  C   UNL     1      46.167   1.396   8.389  0.00  0.00    +0.000 C 
ATOM     13  C   UNL     1      46.424   2.181   7.106  0.00  0.00    +0.000 C 
ATOM     14  C   UNL     1      46.188   3.670   7.339  0.00  0.00    +0.000 C 
ATOM     15  C   UNL     1      44.775   3.928   7.869  0.00  0.00    +0.000 C 
ENDBRANCH   8  10
ENDBRANCH   1   4
BRANCH   1  16
ATOM     16  N   UNL     1      47.349   6.830  11.893  0.00  0.00    +0.000 N 
ATOM     17  H   UNL     1      47.621   6.079  11.261  0.00  0.00    +0.000 HD
BRANCH  16  24
ATOM     18 CL   UNL     1      48.619   5.897  16.828  0.00  0.00    +0.000 Cl
ATOM     19  C   UNL     1      48.932   6.591  15.284  0.00  0.00    +0.000 A 
ATOM     20  C   UNL     1      50.056   7.394  15.112  0.00  0.00    +0.000 A 
ATOM     21  C   UNL     1      50.273   7.978  13.874  0.00  0.00    +0.000 A 
ATOM     22 CL   UNL     1      51.651   8.984  13.635  0.00  0.00    +0.000 Cl
ATOM     23  C   UNL     1      49.382   7.768  12.819  0.00  0.00    +0.000 A 
ATOM     24  C   UNL     1      48.260   6.936  12.971  0.00  0.00    +0.000 A 
ATOM     25  C   UNL     1      48.044   6.359  14.226  0.00  0.00    +0.000 A 
ENDBRANCH  16  24
ENDBRANCH   1  16
TORSDOF 4
ENDMDL
MODEL 4
REMARK VINA RESULT:    -6.610      1.430      2.251
REMARK INTER + INTRA:          -9.069
REMARK INTER:                  -7.992
REMARK INTRA:                  -1.077
REMARK UNBOUND:                -0.913
REMARK  Name = 
REMARK  4 active torsions:
REMARK  status: ('A' for Active; 'I' for Inactive)
REMARK    1  A    between atoms: C_7  and  N_8
REMARK    2  A    between atoms: N_8  and  C_9
REMARK    3  A    between atoms: C_9  and  C_10
REMARK    4  A    between atoms: C_14  and  N_15
REMARK                            x       y       z     vdW  Elec       q    Type
REMARK                         _______ _______ _______ _____ _____    ______ ____
ROOT
ATOM      1  C   UNL     1      46.368   5.889  13.270  0.00  0.00    +0.000 C 
ATOM      2  C   UNL     1      47.088   5.024  14.300  0.00  0.00    +0.000 C 
ATOM      3  C   UNL     1      47.722   5.272  12.976  0.00  0.00    +0.000 C 
ENDROOT
BRANCH   1   4
ATOM      4  C   UNL     1      45.155   5.267  12.570  0.00  0.00    +0.000 A 
ATOM      5  C   UNL     1      43.861   5.454  13.073  0.00  0.00    +0.000 A 
ATOM      6  C   UNL     1      42.747   5.002  12.371  0.00  0.00    +0.000 A 
ATOM      7  C   UNL     1      42.915   4.364  11.142  0.00  0.00    +0.000 A 
ATOM      8  C   UNL     1      44.186   4.126  10.602  0.00  0.00    +0.000 A 
ATOM      9  C   UNL     1      45.288   4.546  11.360  0.00  0.00    +0.000 A 
BRANCH   8  10
ATOM     10  N   UNL     1      44.311   3.520   9.358  0.00  0.00    +0.000 N 
ATOM     11  C   UNL     1      44.429   2.069   9.205  0.00  0.00    +0.000 C 
ATOM     12  C   UNL     1      45.847   1.661   8.803  0.00  0.00    +0.000 C 
ATOM     13  C   UNL     1      46.333   2.456   7.594  0.00  0.00    +0.000 C 
ATOM     14  C   UNL     1      46.220   3.953   7.864  0.00  0.00    +0.000 C 
ATOM     15  C   UNL     1      44.787   4.340   8.238  0.00  0.00    +0.000 C 
ENDBRANCH   8  10
ENDBRANCH   1   4
BRANCH   1  16
ATOM     16  N   UNL     1      46.179   7.306  13.661  0.00  0.00    +0.000 N 
ATOM     17  H   UNL     1      45.285   7.451  14.129  0.00  0.00    +0.000 HD
BRANCH  16  24
ATOM     18 CL   UNL     1      49.681  10.224  11.200  0.00  0.00    +0.000 Cl
ATOM     19  C   UNL     1      48.066   9.874  11.685  0.00  0.00    +0.000 A 
ATOM     20  C   UNL     1      47.050  10.770  11.370  0.00  0.00    +0.000 A 
ATOM     21  C   UNL     1      45.762  10.494  11.802  0.00  0.00    +0.000 A 
ATOM     22 CL   UNL     1      44.485  11.590  11.435  0.00  0.00    +0.000 Cl
ATOM     23  C   UNL     1      45.488   9.339  12.540  0.00  0.00    +0.000 A 
ATOM     24  C   UNL     1      46.501   8.412  12.838  0.00  0.00    +0.000 A 
ATOM     25  C   UNL     1      47.798   8.704  12.407  0.00  0.00    +0.000 A 
ENDBRANCH  16  24
ENDBRANCH   1  16
TORSDOF 4
ENDMDL
MODEL 5
REMARK VINA RESULT:    -6.540      1.975      2.751
REMARK INTER + INTRA:          -8.983
REMARK INTER:                  -8.129
REMARK INTRA:                  -0.854
REMARK UNBOUND:                -0.913
REMARK  Name = 
REMARK  4 active torsions:
REMARK  status: ('A' for Active; 'I' for Inactive)
REMARK    1  A    between atoms: C_7  and  N_8
REMARK    2  A    between atoms: N_8  and  C_9
REMARK    3  A    between atoms: C_9  and  C_10
REMARK    4  A    between atoms: C_14  and  N_15
REMARK                            x       y       z     vdW  Elec       q    Type
REMARK                         _______ _______ _______ _____ _____    ______ ____
ROOT
ATOM      1  C   UNL     1      46.409   5.351  13.502  0.00  0.00    +0.000 C 
ATOM      2  C   UNL     1      46.756   4.383  14.630  0.00  0.00    +0.000 C 
ATOM      3  C   UNL     1      47.584   4.398  13.391  0.00  0.00    +0.000 C 
ENDROOT
BRANCH   1   4
ATOM      4  C   UNL     1      45.168   5.022  12.665  0.00  0.00    +0.000 A 
ATOM      5  C   UNL     1      43.904   5.499  13.036  0.00  0.00    +0.000 A 
ATOM      6  C   UNL     1      42.798   5.313  12.212  0.00  0.00    +0.000 A 
ATOM      7  C   UNL     1      42.946   4.653  10.991  0.00  0.00    +0.000 A 
ATOM      8  C   UNL     1      44.180   4.131  10.580  0.00  0.00    +0.000 A 
ATOM      9  C   UNL     1      45.261   4.289  11.458  0.00  0.00    +0.000 A 
BRANCH   8  10
ATOM     10  N   UNL     1      44.296   3.513   9.342  0.00  0.00    +0.000 N 
ATOM     11  C   UNL     1      44.405   2.060   9.201  0.00  0.00    +0.000 C 
ATOM     12  C   UNL     1      45.818   1.640   8.798  0.00  0.00    +0.000 C 
ATOM     13  C   UNL     1      46.304   2.420   7.579  0.00  0.00    +0.000 C 
ATOM     14  C   UNL     1      46.201   3.920   7.834  0.00  0.00    +0.000 C 
ATOM     15  C   UNL     1      44.772   4.319   8.211  0.00  0.00    +0.000 C 
ENDBRANCH   8  10
ENDBRANCH   1   4
BRANCH   1  16
ATOM     16  N   UNL     1      46.545   6.787  13.841  0.00  0.00    +0.000 N 
ATOM     17  H   UNL     1      45.653   7.194  14.118  0.00  0.00    +0.000 HD
BRANCH  16  24
ATOM     18 CL   UNL     1      47.051  11.403  11.543  0.00  0.00    +0.000 Cl
ATOM     19  C   UNL     1      47.635   9.834  11.946  0.00  0.00    +0.000 A 
ATOM     20  C   UNL     1      48.849   9.402  11.420  0.00  0.00    +0.000 A 
ATOM     21  C   UNL     1      49.287   8.122  11.722  0.00  0.00    +0.000 A 
ATOM     22 CL   UNL     1      50.782   7.557  11.078  0.00  0.00    +0.000 Cl
ATOM     23  C   UNL     1      48.525   7.280  12.536  0.00  0.00    +0.000 A 
ATOM     24  C   UNL     1      47.312   7.715  13.096  0.00  0.00    +0.000 A 
ATOM     25  C   UNL     1      46.874   9.003  12.779  0.00  0.00    +0.000 A 
ENDBRANCH  16  24
ENDBRANCH   1  16
TORSDOF 4
ENDMDL
MODEL 6
REMARK VINA RESULT:    -6.379      4.198      6.578
REMARK INTER + INTRA:          -8.784
REMARK INTER:                  -7.608
REMARK INTRA:                  -1.176
REMARK UNBOUND:                -0.913
REMARK  Name = 
REMARK  4 active torsions:
REMARK  status: ('A' for Active; 'I' for Inactive)
REMARK    1  A    between atoms: C_7  and  N_8
REMARK    2  A    between atoms: N_8  and  C_9
REMARK    3  A    between atoms: C_9  and  C_10
REMARK    4  A    between atoms: C_14  and  N_15
REMARK                            x       y       z     vdW  Elec       q    Type
REMARK                         _______ _______ _______ _____ _____    ______ ____
ROOT
ATOM      1  C   UNL     1      49.181   7.835  14.256  0.00  0.00    +0.000 C 
ATOM      2  C   UNL     1      50.278   8.277  13.292  0.00  0.00    +0.000 C 
ATOM      3  C   UNL     1      49.751   9.240  14.298  0.00  0.00    +0.000 C 
ENDROOT
BRANCH   1   4
ATOM      4  C   UNL     1      47.772   7.676  13.675  0.00  0.00    +0.000 A 
ATOM      5  C   UNL     1      46.913   8.778  13.559  0.00  0.00    +0.000 A 
ATOM      6  C   UNL     1      45.685   8.664  12.915  0.00  0.00    +0.000 A 
ATOM      7  C   UNL     1      45.303   7.441  12.362  0.00  0.00    +0.000 A 
ATOM      8  C   UNL     1      46.109   6.299  12.469  0.00  0.00    +0.000 A 
ATOM      9  C   UNL     1      47.314   6.435  13.171  0.00  0.00    +0.000 A 
BRANCH   8  10
ATOM     10  N   UNL     1      45.710   5.109  11.875  0.00  0.00    +0.000 N 
ATOM     11  C   UNL     1      45.171   5.056  10.515  0.00  0.00    +0.000 C 
ATOM     12  C   UNL     1      43.667   4.783  10.519  0.00  0.00    +0.000 C 
ATOM     13  C   UNL     1      43.325   3.563  11.370  0.00  0.00    +0.000 C 
ATOM     14  C   UNL     1      43.883   3.727  12.780  0.00  0.00    +0.000 C 
ATOM     15  C   UNL     1      45.393   3.974  12.751  0.00  0.00    +0.000 C 
ENDBRANCH   8  10
ENDBRANCH   1   4
BRANCH   1  16
ATOM     16  N   UNL     1      49.569   6.762  15.202  0.00  0.00    +0.000 N 
ATOM     17  H   UNL     1      49.927   5.943  14.715  0.00  0.00    +0.000 HD
BRANCH  16  24
ATOM     18 CL   UNL     1      47.651   7.804  19.901  0.00  0.00    +0.000 Cl
ATOM     19  C   UNL     1      47.900   6.752  18.560  0.00  0.00    +0.000 A 
ATOM     20  C   UNL     1      47.452   5.437  18.633  0.00  0.00    +0.000 A 
ATOM     21  C   UNL     1      47.694   4.592  17.562  0.00  0.00    +0.000 A 
ATOM     22 CL   UNL     1      47.158   2.955  17.627  0.00  0.00    +0.000 Cl
ATOM     23  C   UNL     1      48.377   5.049  16.431  0.00  0.00    +0.000 A 
ATOM     24  C   UNL     1      48.808   6.382  16.334  0.00  0.00    +0.000 A 
ATOM     25  C   UNL     1      48.568   7.225  17.423  0.00  0.00    +0.000 A 
ENDBRANCH  16  24
ENDBRANCH   1  16
TORSDOF 4
ENDMDL
MODEL 7
REMARK VINA RESULT:    -6.050      4.104      7.214
REMARK INTER + INTRA:          -8.377
REMARK INTER:                  -7.467
REMARK INTRA:                  -0.910
REMARK UNBOUND:                -0.913
REMARK  Name = 
REMARK  4 active torsions:
REMARK  status: ('A' for Active; 'I' for Inactive)
REMARK    1  A    between atoms: C_7  and  N_8
REMARK    2  A    between atoms: N_8  and  C_9
REMARK    3  A    between atoms: C_9  and  C_10
REMARK    4  A    between atoms: C_14  and  N_15
REMARK                            x       y       z     vdW  Elec       q    Type
REMARK                         _______ _______ _______ _____ _____    ______ ____
ROOT
ATOM      1  C   UNL     1      48.280   7.698  13.198  0.00  0.00    +0.000 C 
ATOM      2  C   UNL     1      49.302   8.444  12.346  0.00  0.00    +0.000 C 
ATOM      3  C   UNL     1      49.346   6.957  12.415  0.00  0.00    +0.000 C 
ENDROOT
BRANCH   1   4
ATOM      4  C   UNL     1      48.460   7.771  14.718  0.00  0.00    +0.000 A 
ATOM      5  C   UNL     1      48.328   8.988  15.400  0.00  0.00    +0.000 A 
ATOM      6  C   UNL     1      48.362   9.038  16.790  0.00  0.00    +0.000 A 
ATOM      7  C   UNL     1      48.518   7.860  17.522  0.00  0.00    +0.000 A 
ATOM      8  C   UNL     1      48.681   6.617  16.895  0.00  0.00    +0.000 A 
ATOM      9  C   UNL     1      48.696   6.611  15.493  0.00  0.00    +0.000 A 
BRANCH   8  10
ATOM     10  N   UNL     1      48.797   5.463  17.657  0.00  0.00    +0.000 N 
ATOM     11  C   UNL     1      50.085   4.987  18.164  0.00  0.00    +0.000 C 
ATOM     12  C   UNL     1      50.555   3.740  17.415  0.00  0.00    +0.000 C 
ATOM     13  C   UNL     1      49.468   2.669  17.378  0.00  0.00    +0.000 C 
ATOM     14  C   UNL     1      48.181   3.240  16.792  0.00  0.00    +0.000 C 
ATOM     15  C   UNL     1      47.717   4.472  17.574  0.00  0.00    +0.000 C 
ENDBRANCH   8  10
ENDBRANCH   1   4
BRANCH   1  16
ATOM     16  N   UNL     1      46.873   7.827  12.750  0.00  0.00    +0.000 N 
ATOM     17  H   UNL     1      46.316   8.365  13.412  0.00  0.00    +0.000 HD
BRANCH  16  24
ATOM     18 CL   UNL     1      45.678   4.755   8.752  0.00  0.00    +0.000 Cl
ATOM     19  C   UNL     1      45.442   5.311  10.365  0.00  0.00    +0.000 A 
ATOM     20  C   UNL     1      44.387   4.802  11.115  0.00  0.00    +0.000 A 
ATOM     21  C   UNL     1      44.186   5.288  12.397  0.00  0.00    +0.000 A 
ATOM     22 CL   UNL     1      42.881   4.681  13.346  0.00  0.00    +0.000 Cl
ATOM     23  C   UNL     1      45.025   6.271  12.928  0.00  0.00    +0.000 A 
ATOM     24  C   UNL     1      46.112   6.772  12.192  0.00  0.00    +0.000 A 
ATOM     25  C   UNL     1      46.300   6.283  10.896  0.00  0.00    +0.000 A 
ENDBRANCH  16  24
ENDBRANCH   1  16
TORSDOF 4
ENDMDL
MODEL 8
REMARK VINA RESULT:    -6.048      3.514      5.935
REMARK INTER + INTRA:          -8.375
REMARK INTER:                  -7.175
REMARK INTRA:                  -1.200
REMARK UNBOUND:                -0.913
REMARK  Name = 
REMARK  4 active torsions:
REMARK  status: ('A' for Active; 'I' for Inactive)
REMARK    1  A    between atoms: C_7  and  N_8
REMARK    2  A    between atoms: N_8  and  C_9
REMARK    3  A    between atoms: C_9  and  C_10
REMARK    4  A    between atoms: C_14  and  N_15
REMARK                            x       y       z     vdW  Elec       q    Type
REMARK                         _______ _______ _______ _____ _____    ______ ____
ROOT
ATOM      1  C   UNL     1      48.988   7.841  12.642  0.00  0.00    +0.000 C 
ATOM      2  C   UNL     1      49.890   7.652  11.425  0.00  0.00    +0.000 C 
ATOM      3  C   UNL     1      49.883   8.958  12.141  0.00  0.00    +0.000 C 
ENDROOT
BRANCH   1   4
ATOM      4  C   UNL     1      47.485   7.983  12.374  0.00  0.00    +0.000 A 
ATOM      5  C   UNL     1      46.880   9.246  12.333  0.00  0.00    +0.000 A 
ATOM      6  C   UNL     1      45.545   9.388  11.963  0.00  0.00    +0.000 A 
ATOM      7  C   UNL     1      44.799   8.263  11.614  0.00  0.00    +0.000 A 
ATOM      8  C   UNL     1      45.344   6.972  11.662  0.00  0.00    +0.000 A 
ATOM      9  C   UNL     1      46.674   6.860  12.090  0.00  0.00    +0.000 A 
BRANCH   8  10
ATOM     10  N   UNL     1      44.580   5.880  11.272  0.00  0.00    +0.000 N 
ATOM     11  C   UNL     1      43.156   5.769  11.590  0.00  0.00    +0.000 C 
ATOM     12  C   UNL     1      42.902   4.717  12.669  0.00  0.00    +0.000 C 
ATOM     13  C   UNL     1      43.565   3.388  12.318  0.00  0.00    +0.000 C 
ATOM     14  C   UNL     1      45.053   3.592  12.053  0.00  0.00    +0.000 C 
ATOM     15  C   UNL     1      45.280   4.630  10.951  0.00  0.00    +0.000 C 
ENDBRANCH   8  10
ENDBRANCH   1   4
BRANCH   1  16
ATOM     16  N   UNL     1      49.315   6.985  13.807  0.00  0.00    +0.000 N 
ATOM     17  H   UNL     1      49.192   5.996  13.593  0.00  0.00    +0.000 HD
BRANCH  16  24
ATOM     18 CL   UNL     1      48.318  10.378  17.593  0.00  0.00    +0.000 Cl
ATOM     19  C   UNL     1      48.480   8.770  16.997  0.00  0.00    +0.000 A 
ATOM     20  C   UNL     1      48.350   7.700  17.876  0.00  0.00    +0.000 A 
ATOM     21  C   UNL     1      48.522   6.414  17.389  0.00  0.00    +0.000 A 
ATOM     22 CL   UNL     1      48.375   5.070  18.458  0.00  0.00    +0.000 Cl
ATOM     23  C   UNL     1      48.821   6.194  16.042  0.00  0.00    +0.000 A 
ATOM     24  C   UNL     1      48.926   7.265  15.139  0.00  0.00    +0.000 A 
ATOM     25  C   UNL     1      48.761   8.559  15.640  0.00  0.00    +0.000 A 
ENDBRANCH  16  24
ENDBRANCH   1  16
TORSDOF 4
ENDMDL
MODEL 9
REMARK VINA RESULT:    -6.022      3.637      5.874
REMARK INTER + INTRA:          -8.343
REMARK INTER:                  -7.144
REMARK INTRA:                  -1.200
REMARK UNBOUND:                -0.913
REMARK  Name = 
REMARK  4 active torsions:
REMARK  status: ('A' for Active; 'I' for Inactive)
REMARK    1  A    between atoms: C_7  and  N_8
REMARK    2  A    between atoms: N_8  and  C_9
REMARK    3  A    between atoms: C_9  and  C_10
REMARK    4  A    between atoms: C_14  and  N_15
REMARK                            x       y       z     vdW  Elec       q    Type
REMARK                         _______ _______ _______ _____ _____    ______ ____
ROOT
ATOM      1  C   UNL     1      49.544   8.124  12.693  0.00  0.00    +0.000 C 
ATOM      2  C   UNL     1      50.313   7.976  11.383  0.00  0.00    +0.000 C 
ATOM      3  C   UNL     1      50.057   9.334  11.936  0.00  0.00    +0.000 C 
ENDROOT
BRANCH   1   4
ATOM      4  C   UNL     1      48.034   7.863  12.642  0.00  0.00    +0.000 A 
ATOM      5  C   UNL     1      47.118   8.912  12.797  0.00  0.00    +0.000 A 
ATOM      6  C   UNL     1      45.753   8.702  12.623  0.00  0.00    +0.000 A 
ATOM      7  C   UNL     1      45.286   7.434  12.277  0.00  0.00    +0.000 A 
ATOM      8  C   UNL     1      46.152   6.341  12.134  0.00  0.00    +0.000 A 
ATOM      9  C   UNL     1      47.514   6.576  12.369  0.00  0.00    +0.000 A 
BRANCH   8  10
ATOM     10  N   UNL     1      45.653   5.103  11.753  0.00  0.00    +0.000 N 
ATOM     11  C   UNL     1      45.073   4.867  10.430  0.00  0.00    +0.000 C 
ATOM     12  C   UNL     1      43.554   4.712  10.503  0.00  0.00    +0.000 C 
ATOM     13  C   UNL     1      43.150   3.680  11.551  0.00  0.00    +0.000 C 
ATOM     14  C   UNL     1      43.757   4.032  12.905  0.00  0.00    +0.000 C 
ATOM     15  C   UNL     1      45.280   4.156  12.812  0.00  0.00    +0.000 C 
ENDBRANCH   8  10
ENDBRANCH   1   4
BRANCH   1  16
ATOM     16  N   UNL     1      50.216   7.555  13.885  0.00  0.00    +0.000 N 
ATOM     17  H   UNL     1      50.586   6.625  13.700  0.00  0.00    +0.000 HD
BRANCH  16  24
ATOM     18 CL   UNL     1      48.307   5.299  18.141  0.00  0.00    +0.000 Cl
ATOM     19  C   UNL     1      48.762   6.689  17.232  0.00  0.00    +0.000 A 
ATOM     20  C   UNL     1      48.512   7.956  17.751  0.00  0.00    +0.000 A 
ATOM     21  C   UNL     1      48.848   9.064  16.990  0.00  0.00    +0.000 A 
ATOM     22 CL   UNL     1      48.541  10.645  17.604  0.00  0.00    +0.000 Cl
ATOM     23  C   UNL     1      49.425   8.916  15.727  0.00  0.00    +0.000 A 
ATOM     24  C   UNL     1      49.710   7.643  15.205  0.00  0.00    +0.000 A 
ATOM     25  C   UNL     1      49.359   6.530  15.974  0.00  0.00    +0.000 A 
ENDBRANCH  16  24
ENDBRANCH   1  16
TORSDOF 4
ENDMDL
