MODEL 1
REMARK VINA RESULT:    -8.197      0.000      0.000
REMARK INTER + INTRA:         -11.792
REMARK INTER:                 -11.072
REMARK INTRA:                  -0.720
REMARK UNBOUND:                -0.720
REMARK  Name = 
REMARK  7 active torsions:
REMARK  status: ('A' for Active; 'I' for Inactive)
REMARK    1  A    between atoms: C_1  and  C_2
REMARK    2  A    between atoms: C_7  and  C_8
REMARK    3  A    between atoms: N_10  and  C_11
REMARK    4  A    between atoms: C_11  and  C_12
REMARK    5  A    between atoms: C_15  and  C_16
REMARK    6  A    between atoms: C_16  and  N_17
REMARK    7  A    between atoms: C_18  and  C_20
REMARK                            x       y       z     vdW  Elec       q    Type
REMARK                         _______ _______ _______ _____ _____    ______ ____
ROOT
ATOM      1  C   UNL     1      44.747   4.921  10.817  0.00  0.00    +0.000 A 
ATOM      2  C   UNL     1      44.412   5.134  12.162  0.00  0.00    +0.000 A 
ATOM      3  C   UNL     1      45.116   6.061  12.938  0.00  0.00    +0.000 A 
ATOM      4  C   UNL     1      46.171   6.800  12.388  0.00  0.00    +0.000 A 
ATOM      5  C   UNL     1      46.556   6.537  11.066  0.00  0.00    +0.000 A 
ATOM      6  C   UNL     1      45.842   5.616  10.285  0.00  0.00    +0.000 A 
ENDROOT
BRANCH   1   7
ATOM      7  C   UNL     1      43.871   4.048   9.949  0.00  0.00    +0.000 C 
BRANCH   7  10
ATOM      8  C   UNL     1      45.344   2.516   8.650  0.00  0.00    +0.000 C 
ATOM      9  O   UNL     1      45.397   1.681   9.546  0.00  0.00    +0.000 OA
ATOM     10  N   UNL     1      44.588   3.672   8.745  0.00  0.00    +0.000 N 
ATOM     11  H   UNL     1      44.670   4.378   8.028  0.00  0.00    +0.000 HD
BRANCH   8  18
ATOM     12  C   UNL     1      46.623  -0.107   7.792  0.00  0.00    +0.000 C 
ATOM     13  C   UNL     1      46.799   1.179   7.031  0.00  0.00    +0.000 A 
ATOM     14  C   UNL     1      47.635   1.166   5.897  0.00  0.00    +0.000 A 
ATOM     15  C   UNL     1      47.799   2.306   5.109  0.00  0.00    +0.000 A 
ATOM     16  C   UNL     1      47.094   3.464   5.414  0.00  0.00    +0.000 A 
ATOM     17  C   UNL     1      46.265   3.497   6.537  0.00  0.00    +0.000 A 
ATOM     18  C   UNL     1      46.141   2.378   7.382  0.00  0.00    +0.000 A 
ENDBRANCH   8  18
ENDBRANCH   7  10
ENDBRANCH   1   7
BRANCH   4  19
ATOM     19  C   UNL     1      46.872   7.855  13.207  0.00  0.00    +0.000 C 
BRANCH  19  20
ATOM     20  N   UNL     1      47.383   7.325  14.444  0.00  0.00    +0.000 N 
ATOM     21  C   UNL     1      48.647   6.795  14.513  0.00  0.00    +0.000 C 
ATOM     22  O   UNL     1      49.404   6.791  13.545  0.00  0.00    +0.000 OA
ATOM     23  H   UNL     1      46.710   7.116  15.174  0.00  0.00    +0.000 HD
BRANCH  21  24
ATOM     24  C   UNL     1      49.082   6.284  15.820  0.00  0.00    +0.000 A 
ATOM     25  C   UNL     1      50.131   6.906  16.484  0.00  0.00    +0.000 A 
ATOM     26  S   UNL     1      50.487   6.218  18.003  0.00  0.00    +0.000 S 
ATOM     27  C   UNL     1      49.283   5.033  17.806  0.00  0.00    +0.000 A 
ATOM     28  N   UNL     1      49.078   4.083  18.758  0.00  0.00    +0.000 NA
ATOM     29  C   UNL     1      48.154   3.229  18.468  0.00  0.00    +0.000 A 
ATOM     30  N   UNL     1      47.410   3.244  17.316  0.00  0.00    +0.000 N 
ATOM     31  C   UNL     1      47.561   4.200  16.339  0.00  0.00    +0.000 A 
ATOM     32  O   UNL     1      46.853   4.213  15.341  0.00  0.00    +0.000 OA
ATOM     33  C   UNL     1      48.602   5.175  16.609  0.00  0.00    +0.000 A 
ATOM     34  H   UNL     1      46.697   2.551  17.154  0.00  0.00    +0.000 HD
ENDBRANCH  21  24
ENDBRANCH  19  20
ENDBRANCH   4  19
TORSDOF 6
ENDMDL
MODEL 2
REMARK VINA RESULT:    -7.928      3.299      5.460
REMARK INTER + INTRA:         -11.429
REMARK INTER:                 -10.252
REMARK INTRA:                  -1.177
REMARK UNBOUND:                -0.720
REMARK  Name = 
REMARK  7 active torsions:
REMARK  status: ('A' for Active; 'I' for Inactive)
REMARK    1  A    between atoms: C_1  and  C_2
REMARK    2  A    between atoms: C_7  and  C_8
REMARK    3  A    between atoms: N_10  and  C_11
REMARK    4  A    between atoms: C_11  and  C_12
REMARK    5  A    between atoms: C_15  and  C_16
REMARK    6  A    between atoms: C_16  and  N_17
REMARK    7  A    between atoms: C_18  and  C_20
REMARK                            x       y       z     vdW  Elec       q    Type
REMARK                         _______ _______ _______ _____ _____    ______ ____
ROOT
ATOM      1  C   UNL     1      47.542   5.789  14.438  0.00  0.00    +0.000 A 
ATOM      2  C   UNL     1      48.335   6.221  15.510  0.00  0.00    +0.000 A 
ATOM      3  C   UNL     1      48.526   5.409  16.633  0.00  0.00    +0.000 A 
ATOM      4  C   UNL     1      47.931   4.143  16.711  0.00  0.00    +0.000 A 
ATOM      5  C   UNL     1      47.079   3.739  15.675  0.00  0.00    +0.000 A 
ATOM      6  C   UNL     1      46.897   4.548  14.544  0.00  0.00    +0.000 A 
ENDROOT
BRANCH   1   7
ATOM      7  C   UNL     1      47.485   6.600  13.164  0.00  0.00    +0.000 C 
BRANCH   7  10
ATOM      8  C   UNL     1      45.666   5.932  11.601  0.00  0.00    +0.000 C 
ATOM      9  O   UNL     1      44.904   6.811  11.988  0.00  0.00    +0.000 OA
ATOM     10  N   UNL     1      46.954   5.789  12.085  0.00  0.00    +0.000 N 
ATOM     11  H   UNL     1      47.498   4.981  11.817  0.00  0.00    +0.000 HD
BRANCH   8  18
ATOM     12  C   UNL     1      43.987   3.506  12.344  0.00  0.00    +0.000 C 
ATOM     13  C   UNL     1      44.534   3.733  10.961  0.00  0.00    +0.000 A 
ATOM     14  C   UNL     1      44.290   2.746   9.984  0.00  0.00    +0.000 A 
ATOM     15  C   UNL     1      44.716   2.916   8.667  0.00  0.00    +0.000 A 
ATOM     16  C   UNL     1      45.350   4.094   8.292  0.00  0.00    +0.000 A 
ATOM     17  C   UNL     1      45.605   5.080   9.246  0.00  0.00    +0.000 A 
ATOM     18  C   UNL     1      45.244   4.897  10.594  0.00  0.00    +0.000 A 
ENDBRANCH   8  18
ENDBRANCH   7  10
ENDBRANCH   1   7
BRANCH   4  19
ATOM     19  C   UNL     1      48.208   3.242  17.888  0.00  0.00    +0.000 C 
BRANCH  19  20
ATOM     20  N   UNL     1      49.619   3.036  18.089  0.00  0.00    +0.000 N 
ATOM     21  C   UNL     1      50.333   2.202  17.265  0.00  0.00    +0.000 C 
ATOM     22  O   UNL     1      49.815   1.638  16.304  0.00  0.00    +0.000 OA
ATOM     23  H   UNL     1      50.004   3.304  18.989  0.00  0.00    +0.000 HD
BRANCH  21  24
ATOM     24  C   UNL     1      51.768   2.061  17.546  0.00  0.00    +0.000 A 
ATOM     25  C   UNL     1      52.317   0.794  17.688  0.00  0.00    +0.000 A 
ATOM     26  S   UNL     1      53.998   0.802  17.973  0.00  0.00    +0.000 S 
ATOM     27  C   UNL     1      54.045   2.502  17.965  0.00  0.00    +0.000 A 
ATOM     28  N   UNL     1      55.210   3.169  18.186  0.00  0.00    +0.000 NA
ATOM     29  C   UNL     1      55.097   4.455  18.182  0.00  0.00    +0.000 A 
ATOM     30  N   UNL     1      53.925   5.135  17.969  0.00  0.00    +0.000 N 
ATOM     31  C   UNL     1      52.729   4.506  17.713  0.00  0.00    +0.000 A 
ATOM     32  O   UNL     1      51.708   5.141  17.484  0.00  0.00    +0.000 OA
ATOM     33  C   UNL     1      52.799   3.056  17.725  0.00  0.00    +0.000 A 
ATOM     34  H   UNL     1      53.906   6.142  17.972  0.00  0.00    +0.000 HD
ENDBRANCH  21  24
ENDBRANCH  19  20
ENDBRANCH   4  19
TORSDOF 6
ENDMDL
MODEL 3
REMARK VINA RESULT:    -7.788      1.375      1.927
REMARK INTER + INTRA:         -11.240
REMARK INTER:                 -10.216
REMARK INTRA:                  -1.024
REMARK UNBOUND:                -0.720
REMARK  Name = 
REMARK  7 active torsions:
REMARK  status: ('A' for Active; 'I' for Inactive)
REMARK    1  A    between atoms: C_1  and  C_2
REMARK    2  A    between atoms: C_7  and  C_8
REMARK    3  A    between atoms: N_10  and  C_11
REMARK    4  A    between atoms: C_11  and  C_12
REMARK    5  A    between atoms: C_15  and  C_16
REMARK    6  A    between atoms: C_16  and  N_17
REMARK    7  A    between atoms: C_18  and  C_20
REMARK                            x       y       z     vdW  Elec       q    Type
REMARK                         _______ _______ _______ _____ _____    ______ ____
ROOT
ATOM      1  C   UNL     1      45.638   6.965  11.353  0.00  0.00    +0.000 A 
ATOM      2  C   UNL     1      46.921   6.454  11.596  0.00  0.00    +0.000 A 
ATOM      3  C   UNL     1      47.742   7.014  12.579  0.00  0.00    +0.000 A 
ATOM      4  C   UNL     1      47.300   8.099  13.348  0.00  0.00    +0.000 A 
ATOM      5  C   UNL     1      46.048   8.658  13.060  0.00  0.00    +0.000 A 
ATOM      6  C   UNL     1      45.220   8.089  12.081  0.00  0.00    +0.000 A 
ENDROOT
BRANCH   1   7
ATOM      7  C   UNL     1      44.702   6.244  10.411  0.00  0.00    +0.000 C 
BRANCH   7  10
ATOM      8  C   UNL     1      44.843   4.395   8.749  0.00  0.00    +0.000 C 
ATOM      9  O   UNL     1      43.630   4.350   8.579  0.00  0.00    +0.000 OA
ATOM     10  N   UNL     1      45.451   5.316   9.585  0.00  0.00    +0.000 N 
ATOM     11  H   UNL     1      46.439   5.236   9.775  0.00  0.00    +0.000 HD
BRANCH   8  18
ATOM     12  C   UNL     1      44.607   1.388   9.146  0.00  0.00    +0.000 C 
ATOM     13  C   UNL     1      45.712   2.026   8.348  0.00  0.00    +0.000 A 
ATOM     14  C   UNL     1      46.703   1.186   7.804  0.00  0.00    +0.000 A 
ATOM     15  C   UNL     1      47.724   1.700   7.004  0.00  0.00    +0.000 A 
ATOM     16  C   UNL     1      47.745   3.055   6.697  0.00  0.00    +0.000 A 
ATOM     17  C   UNL     1      46.775   3.904   7.232  0.00  0.00    +0.000 A 
ATOM     18  C   UNL     1      45.777   3.414   8.095  0.00  0.00    +0.000 A 
ENDBRANCH   8  18
ENDBRANCH   7  10
ENDBRANCH   1   7
BRANCH   4  19
ATOM     19  C   UNL     1      48.159   8.644  14.462  0.00  0.00    +0.000 C 
BRANCH  19  20
ATOM     20  N   UNL     1      48.307   7.701  15.540  0.00  0.00    +0.000 N 
ATOM     21  C   UNL     1      49.481   7.012  15.715  0.00  0.00    +0.000 C 
ATOM     22  O   UNL     1      50.459   7.201  14.997  0.00  0.00    +0.000 OA
ATOM     23  H   UNL     1      47.458   7.372  15.989  0.00  0.00    +0.000 HD
BRANCH  21  24
ATOM     24  C   UNL     1      49.538   6.076  16.846  0.00  0.00    +0.000 A 
ATOM     25  C   UNL     1      50.490   6.259  17.839  0.00  0.00    +0.000 A 
ATOM     26  S   UNL     1      50.399   5.113  19.098  0.00  0.00    +0.000 S 
ATOM     27  C   UNL     1      49.113   4.301  18.337  0.00  0.00    +0.000 A 
ATOM     28  N   UNL     1      48.570   3.183  18.889  0.00  0.00    +0.000 NA
ATOM     29  C   UNL     1      47.622   2.652  18.193  0.00  0.00    +0.000 A 
ATOM     30  N   UNL     1      47.162   3.142  16.997  0.00  0.00    +0.000 N 
ATOM     31  C   UNL     1      47.660   4.283  16.414  0.00  0.00    +0.000 A 
ATOM     32  O   UNL     1      47.200   4.720  15.367  0.00  0.00    +0.000 OA
ATOM     33  C   UNL     1      48.743   4.910  17.150  0.00  0.00    +0.000 A 
ATOM     34  H   UNL     1      46.412   2.682  16.505  0.00  0.00    +0.000 HD
ENDBRANCH  21  24
ENDBRANCH  19  20
ENDBRANCH   4  19
TORSDOF 6
ENDMDL
MODEL 4
REMARK VINA RESULT:    -7.645      3.227      9.010
REMARK INTER + INTRA:         -11.046
REMARK INTER:                  -9.930
REMARK INTRA:                  -1.116
REMARK UNBOUND:                -0.720
REMARK  Name = 
REMARK  7 active torsions:
REMARK  status: ('A' for Active; 'I' for Inactive)
REMARK    1  A    between atoms: C_1  and  C_2
REMARK    2  A    between atoms: C_7  and  C_8
REMARK    3  A    between atoms: N_10  and  C_11
REMARK    4  A    between atoms: C_11  and  C_12
REMARK    5  A    between atoms: C_15  and  C_16
REMARK    6  A    between atoms: C_16  and  N_17
REMARK    7  A    between atoms: C_18  and  C_20
REMARK                            x       y       z     vdW  Elec       q    Type
REMARK                         _______ _______ _______ _____ _____    ______ ____
ROOT
ATOM      1  C   UNL     1      50.236   7.404  15.498  0.00  0.00    +0.000 A 
ATOM      2  C   UNL     1      48.925   6.911  15.475  0.00  0.00    +0.000 A 
ATOM      3  C   UNL     1      48.130   7.038  14.331  0.00  0.00    +0.000 A 
ATOM      4  C   UNL     1      48.629   7.660  13.179  0.00  0.00    +0.000 A 
ATOM      5  C   UNL     1      49.913   8.219  13.223  0.00  0.00    +0.000 A 
ATOM      6  C   UNL     1      50.713   8.081  14.366  0.00  0.00    +0.000 A 
ENDROOT
BRANCH   1   7
ATOM      7  C   UNL     1      51.136   7.108  16.676  0.00  0.00    +0.000 C 
BRANCH   7  10
ATOM      8  C   UNL     1      51.171   4.893  17.813  0.00  0.00    +0.000 C 
ATOM      9  O   UNL     1      50.567   5.302  18.799  0.00  0.00    +0.000 OA
ATOM     10  N   UNL     1      51.446   5.691  16.717  0.00  0.00    +0.000 N 
ATOM     11  H   UNL     1      52.043   5.338  15.984  0.00  0.00    +0.000 HD
BRANCH   8  18
ATOM     12  C   UNL     1      49.456   2.520  16.985  0.00  0.00    +0.000 C 
ATOM     13  C   UNL     1      50.889   2.383  17.426  0.00  0.00    +0.000 A 
ATOM     14  C   UNL     1      51.436   1.087  17.499  0.00  0.00    +0.000 A 
ATOM     15  C   UNL     1      52.774   0.888  17.843  0.00  0.00    +0.000 A 
ATOM     16  C   UNL     1      53.598   1.983  18.074  0.00  0.00    +0.000 A 
ATOM     17  C   UNL     1      53.072   3.274  18.011  0.00  0.00    +0.000 A 
ATOM     18  C   UNL     1      51.709   3.491  17.732  0.00  0.00    +0.000 A 
ENDBRANCH   8  18
ENDBRANCH   7  10
ENDBRANCH   1   7
BRANCH   4  19
ATOM     19  C   UNL     1      47.795   7.720  11.924  0.00  0.00    +0.000 C 
BRANCH  19  20
ATOM     20  N   UNL     1      47.059   6.502  11.706  0.00  0.00    +0.000 N 
ATOM     21  C   UNL     1      45.689   6.484  11.786  0.00  0.00    +0.000 C 
ATOM     22  O   UNL     1      45.037   7.503  11.999  0.00  0.00    +0.000 OA
ATOM     23  H   UNL     1      47.577   5.630  11.757  0.00  0.00    +0.000 HD
BRANCH  21  24
ATOM     24  C   UNL     1      45.028   5.195  11.543  0.00  0.00    +0.000 A 
ATOM     25  C   UNL     1      44.314   4.587  12.567  0.00  0.00    +0.000 A 
ATOM     26  S   UNL     1      43.575   3.119  12.113  0.00  0.00    +0.000 S 
ATOM     27  C   UNL     1      44.223   3.218  10.543  0.00  0.00    +0.000 A 
ATOM     28  N   UNL     1      43.993   2.236   9.631  0.00  0.00    +0.000 NA
ATOM     29  C   UNL     1      44.567   2.424   8.490  0.00  0.00    +0.000 A 
ATOM     30  N   UNL     1      45.345   3.509   8.177  0.00  0.00    +0.000 N 
ATOM     31  C   UNL     1      45.583   4.539   9.055  0.00  0.00    +0.000 A 
ATOM     32  O   UNL     1      46.247   5.517   8.732  0.00  0.00    +0.000 OA
ATOM     33  C   UNL     1      44.973   4.368  10.361  0.00  0.00    +0.000 A 
ATOM     34  H   UNL     1      45.761   3.599   7.263  0.00  0.00    +0.000 HD
ENDBRANCH  21  24
ENDBRANCH  19  20
ENDBRANCH   4  19
TORSDOF 6
ENDMDL
MODEL 5
REMARK VINA RESULT:    -7.505      2.235      2.914
REMARK INTER + INTRA:         -10.857
REMARK INTER:                  -9.969
REMARK INTRA:                  -0.888
REMARK UNBOUND:                -0.720
REMARK  Name = 
REMARK  7 active torsions:
REMARK  status: ('A' for Active; 'I' for Inactive)
REMARK    1  A    between atoms: C_1  and  C_2
REMARK    2  A    between atoms: C_7  and  C_8
REMARK    3  A    between atoms: N_10  and  C_11
REMARK    4  A    between atoms: C_11  and  C_12
REMARK    5  A    between atoms: C_15  and  C_16
REMARK    6  A    between atoms: C_16  and  N_17
REMARK    7  A    between atoms: C_18  and  C_20
REMARK                            x       y       z     vdW  Elec       q    Type
REMARK                         _______ _______ _______ _____ _____    ______ ____
ROOT
ATOM      1  C   UNL     1      45.757   6.901  11.527  0.00  0.00    +0.000 A 
ATOM      2  C   UNL     1      47.007   6.320  11.781  0.00  0.00    +0.000 A 
ATOM      3  C   UNL     1      47.853   6.842  12.765  0.00  0.00    +0.000 A 
ATOM      4  C   UNL     1      47.469   7.956  13.523  0.00  0.00    +0.000 A 
ATOM      5  C   UNL     1      46.252   8.583  13.221  0.00  0.00    +0.000 A 
ATOM      6  C   UNL     1      45.399   8.053  12.242  0.00  0.00    +0.000 A 
ENDROOT
BRANCH   1   7
ATOM      7  C   UNL     1      44.787   6.226  10.584  0.00  0.00    +0.000 C 
BRANCH   7  10
ATOM      8  C   UNL     1      44.852   4.438   8.852  0.00  0.00    +0.000 C 
ATOM      9  O   UNL     1      43.641   4.471   8.662  0.00  0.00    +0.000 OA
ATOM     10  N   UNL     1      45.496   5.289   9.733  0.00  0.00    +0.000 N 
ATOM     11  H   UNL     1      46.474   5.144   9.936  0.00  0.00    +0.000 HD
BRANCH   8  18
ATOM     12  C   UNL     1      44.500   1.438   9.208  0.00  0.00    +0.000 C 
ATOM     13  C   UNL     1      45.621   2.043   8.407  0.00  0.00    +0.000 A 
ATOM     14  C   UNL     1      46.573   1.172   7.840  0.00  0.00    +0.000 A 
ATOM     15  C   UNL     1      47.605   1.658   7.037  0.00  0.00    +0.000 A 
ATOM     16  C   UNL     1      47.677   3.015   6.750  0.00  0.00    +0.000 A 
ATOM     17  C   UNL     1      46.746   3.894   7.307  0.00  0.00    +0.000 A 
ATOM     18  C   UNL     1      45.739   3.431   8.174  0.00  0.00    +0.000 A 
ENDBRANCH   8  18
ENDBRANCH   7  10
ENDBRANCH   1   7
BRANCH   4  19
ATOM     19  C   UNL     1      48.350   8.461  14.637  0.00  0.00    +0.000 C 
BRANCH  19  20
ATOM     20  N   UNL     1      48.182   7.698  15.846  0.00  0.00    +0.000 N 
ATOM     21  C   UNL     1      49.110   6.757  16.219  0.00  0.00    +0.000 C 
ATOM     22  O   UNL     1      50.134   6.561  15.569  0.00  0.00    +0.000 OA
ATOM     23  H   UNL     1      47.256   7.683  16.262  0.00  0.00    +0.000 HD
BRANCH  21  24
ATOM     24  C   UNL     1      48.854   6.033  17.471  0.00  0.00    +0.000 A 
ATOM     25  C   UNL     1      48.974   4.651  17.500  0.00  0.00    +0.000 A 
ATOM     26  S   UNL     1      48.683   3.967  19.035  0.00  0.00    +0.000 S 
ATOM     27  C   UNL     1      48.337   5.492  19.705  0.00  0.00    +0.000 A 
ATOM     28  N   UNL     1      47.975   5.613  21.011  0.00  0.00    +0.000 NA
ATOM     29  C   UNL     1      47.713   6.822  21.381  0.00  0.00    +0.000 A 
ATOM     30  N   UNL     1      47.789   7.922  20.565  0.00  0.00    +0.000 N 
ATOM     31  C   UNL     1      48.177   7.853  19.248  0.00  0.00    +0.000 A 
ATOM     32  O   UNL     1      48.278   8.858  18.556  0.00  0.00    +0.000 OA
ATOM     33  C   UNL     1      48.466   6.511  18.777  0.00  0.00    +0.000 A 
ATOM     34  H   UNL     1      47.578   8.842  20.919  0.00  0.00    +0.000 HD
ENDBRANCH  21  24
ENDBRANCH  19  20
ENDBRANCH   4  19
TORSDOF 6
ENDMDL
MODEL 6
REMARK VINA RESULT:    -7.488      1.958      2.647
REMARK INTER + INTRA:         -10.834
REMARK INTER:                 -10.561
REMARK INTRA:                  -0.273
REMARK UNBOUND:                -0.720
REMARK  Name = 
REMARK  7 active torsions:
REMARK  status: ('A' for Active; 'I' for Inactive)
REMARK    1  A    between atoms: C_1  and  C_2
REMARK    2  A    between atoms: C_7  and  C_8
REMARK    3  A    between atoms: N_10  and  C_11
REMARK    4  A    between atoms: C_11  and  C_12
REMARK    5  A    between atoms: C_15  and  C_16
REMARK    6  A    between atoms: C_16  and  N_17
REMARK    7  A    between atoms: C_18  and  C_20
REMARK                            x       y       z     vdW  Elec       q    Type
REMARK                         _______ _______ _______ _____ _____    ______ ____
ROOT
ATOM      1  C   UNL     1      45.423   5.036  11.882  0.00  0.00    +0.000 A 
ATOM      2  C   UNL     1      46.055   6.232  11.511  0.00  0.00    +0.000 A 
ATOM      3  C   UNL     1      47.048   6.798  12.318  0.00  0.00    +0.000 A 
ATOM      4  C   UNL     1      47.436   6.181  13.514  0.00  0.00    +0.000 A 
ATOM      5  C   UNL     1      46.756   5.026  13.924  0.00  0.00    +0.000 A 
ATOM      6  C   UNL     1      45.768   4.453  13.109  0.00  0.00    +0.000 A 
ENDROOT
BRANCH   1   7
ATOM      7  C   UNL     1      44.480   4.350  10.921  0.00  0.00    +0.000 C 
BRANCH   7  10
ATOM      8  C   UNL     1      44.962   2.572   9.245  0.00  0.00    +0.000 C 
ATOM      9  O   UNL     1      44.028   1.867   9.609  0.00  0.00    +0.000 OA
ATOM     10  N   UNL     1      45.224   3.814   9.796  0.00  0.00    +0.000 N 
ATOM     11  H   UNL     1      46.070   4.301   9.541  0.00  0.00    +0.000 HD
BRANCH   8  18
ATOM     12  C   UNL     1      46.458   4.520   7.451  0.00  0.00    +0.000 C 
ATOM     13  C   UNL     1      46.569   3.025   7.311  0.00  0.00    +0.000 A 
ATOM     14  C   UNL     1      47.368   2.517   6.268  0.00  0.00    +0.000 A 
ATOM     15  C   UNL     1      47.564   1.144   6.115  0.00  0.00    +0.000 A 
ATOM     16  C   UNL     1      47.003   0.260   7.028  0.00  0.00    +0.000 A 
ATOM     17  C   UNL     1      46.204   0.745   8.065  0.00  0.00    +0.000 A 
ATOM     18  C   UNL     1      45.939   2.121   8.194  0.00  0.00    +0.000 A 
ENDBRANCH   8  18
ENDBRANCH   7  10
ENDBRANCH   1   7
BRANCH   4  19
ATOM     19  C   UNL     1      48.563   6.754  14.337  0.00  0.00    +0.000 C 
BRANCH  19  20
ATOM     20  N   UNL     1      48.288   6.688  15.749  0.00  0.00    +0.000 N 
ATOM     21  C   UNL     1      48.919   7.531  16.629  0.00  0.00    +0.000 C 
ATOM     22  O   UNL     1      49.701   8.399  16.250  0.00  0.00    +0.000 OA
ATOM     23  H   UNL     1      47.832   5.849  16.095  0.00  0.00    +0.000 HD
BRANCH  21  24
ATOM     24  C   UNL     1      48.568   7.391  18.048  0.00  0.00    +0.000 A 
ATOM     25  C   UNL     1      48.048   8.479  18.736  0.00  0.00    +0.000 A 
ATOM     26  S   UNL     1      47.658   8.143  20.361  0.00  0.00    +0.000 S 
ATOM     27  C   UNL     1      48.215   6.542  20.218  0.00  0.00    +0.000 A 
ATOM     28  N   UNL     1      48.191   5.698  21.284  0.00  0.00    +0.000 NA
ATOM     29  C   UNL     1      48.669   4.523  21.044  0.00  0.00    +0.000 A 
ATOM     30  N   UNL     1      49.163   4.114  19.832  0.00  0.00    +0.000 N 
ATOM     31  C   UNL     1      49.182   4.921  18.719  0.00  0.00    +0.000 A 
ATOM     32  O   UNL     1      49.589   4.514  17.639  0.00  0.00    +0.000 OA
ATOM     33  C   UNL     1      48.670   6.261  18.941  0.00  0.00    +0.000 A 
ATOM     34  H   UNL     1      49.517   3.178  19.708  0.00  0.00    +0.000 HD
ENDBRANCH  21  24
ENDBRANCH  19  20
ENDBRANCH   4  19
TORSDOF 6
ENDMDL
MODEL 7
REMARK VINA RESULT:    -7.385      5.130      9.992
REMARK INTER + INTRA:         -10.695
REMARK INTER:                  -9.904
REMARK INTRA:                  -0.791
REMARK UNBOUND:                -0.720
REMARK  Name = 
REMARK  7 active torsions:
REMARK  status: ('A' for Active; 'I' for Inactive)
REMARK    1  A    between atoms: C_1  and  C_2
REMARK    2  A    between atoms: C_7  and  C_8
REMARK    3  A    between atoms: N_10  and  C_11
REMARK    4  A    between atoms: C_11  and  C_12
REMARK    5  A    between atoms: C_15  and  C_16
REMARK    6  A    between atoms: C_16  and  N_17
REMARK    7  A    between atoms: C_18  and  C_20
REMARK                            x       y       z     vdW  Elec       q    Type
REMARK                         _______ _______ _______ _____ _____    ______ ____
ROOT
ATOM      1  C   UNL     1      51.480   3.067  17.825  0.00  0.00    +0.000 A 
ATOM      2  C   UNL     1      50.832   4.290  18.049  0.00  0.00    +0.000 A 
ATOM      3  C   UNL     1      49.477   4.450  17.738  0.00  0.00    +0.000 A 
ATOM      4  C   UNL     1      48.736   3.390  17.200  0.00  0.00    +0.000 A 
ATOM      5  C   UNL     1      49.398   2.191  16.907  0.00  0.00    +0.000 A 
ATOM      6  C   UNL     1      50.754   2.026  17.229  0.00  0.00    +0.000 A 
ENDROOT
BRANCH   1   7
ATOM      7  C   UNL     1      52.892   2.858  18.323  0.00  0.00    +0.000 C 
BRANCH   7  10
ATOM      8  C   UNL     1      54.399   0.937  18.813  0.00  0.00    +0.000 C 
ATOM      9  O   UNL     1      55.213   1.628  19.414  0.00  0.00    +0.000 OA
ATOM     10  N   UNL     1      53.222   1.445  18.292  0.00  0.00    +0.000 N 
ATOM     11  H   UNL     1      52.644   0.858  17.709  0.00  0.00    +0.000 HD
BRANCH   8  18
ATOM     12  C   UNL     1      55.174  -0.126  16.069  0.00  0.00    +0.000 C 
ATOM     13  C   UNL     1      54.917  -1.019  17.253  0.00  0.00    +0.000 A 
ATOM     14  C   UNL     1      54.995  -2.413  17.058  0.00  0.00    +0.000 A 
ATOM     15  C   UNL     1      54.827  -3.300  18.121  0.00  0.00    +0.000 A 
ATOM     16  C   UNL     1      54.624  -2.808  19.405  0.00  0.00    +0.000 A 
ATOM     17  C   UNL     1      54.537  -1.431  19.617  0.00  0.00    +0.000 A 
ATOM     18  C   UNL     1      54.637  -0.524  18.545  0.00  0.00    +0.000 A 
ENDBRANCH   8  18
ENDBRANCH   7  10
ENDBRANCH   1   7
BRANCH   4  19
ATOM     19  C   UNL     1      47.258   3.546  16.945  0.00  0.00    +0.000 C 
BRANCH  19  20
ATOM     20  N   UNL     1      46.985   4.555  15.954  0.00  0.00    +0.000 N 
ATOM     21  C   UNL     1      47.069   4.267  14.615  0.00  0.00    +0.000 C 
ATOM     22  O   UNL     1      47.332   3.138  14.208  0.00  0.00    +0.000 OA
ATOM     23  H   UNL     1      46.992   5.522  16.262  0.00  0.00    +0.000 HD
BRANCH  21  24
ATOM     24  C   UNL     1      46.767   5.359  13.681  0.00  0.00    +0.000 A 
ATOM     25  C   UNL     1      47.734   6.318  13.412  0.00  0.00    +0.000 A 
ATOM     26  S   UNL     1      47.241   7.494  12.280  0.00  0.00    +0.000 S 
ATOM     27  C   UNL     1      45.698   6.792  12.145  0.00  0.00    +0.000 A 
ATOM     28  N   UNL     1      44.750   7.342  11.339  0.00  0.00    +0.000 NA
ATOM     29  C   UNL     1      43.616   6.725  11.353  0.00  0.00    +0.000 A 
ATOM     30  N   UNL     1      43.346   5.603  12.095  0.00  0.00    +0.000 N 
ATOM     31  C   UNL     1      44.279   4.996  12.901  0.00  0.00    +0.000 A 
ATOM     32  O   UNL     1      44.022   3.969  13.518  0.00  0.00    +0.000 OA
ATOM     33  C   UNL     1      45.569   5.662  12.934  0.00  0.00    +0.000 A 
ATOM     34  H   UNL     1      42.439   5.165  12.055  0.00  0.00    +0.000 HD
ENDBRANCH  21  24
ENDBRANCH  19  20
ENDBRANCH   4  19
TORSDOF 6
ENDMDL
MODEL 8
REMARK VINA RESULT:    -7.249      4.268     10.685
REMARK INTER + INTRA:         -10.511
REMARK INTER:                  -9.759
REMARK INTRA:                  -0.752
REMARK UNBOUND:                -0.720
REMARK  Name = 
REMARK  7 active torsions:
REMARK  status: ('A' for Active; 'I' for Inactive)
REMARK    1  A    between atoms: C_1  and  C_2
REMARK    2  A    between atoms: C_7  and  C_8
REMARK    3  A    between atoms: N_10  and  C_11
REMARK    4  A    between atoms: C_11  and  C_12
REMARK    5  A    between atoms: C_15  and  C_16
REMARK    6  A    between atoms: C_16  and  N_17
REMARK    7  A    between atoms: C_18  and  C_20
REMARK                            x       y       z     vdW  Elec       q    Type
REMARK                         _______ _______ _______ _____ _____    ______ ____
ROOT
ATOM      1  C   UNL     1      49.656   5.265  19.558  0.00  0.00    +0.000 A 
ATOM      2  C   UNL     1      49.779   5.768  18.256  0.00  0.00    +0.000 A 
ATOM      3  C   UNL     1      49.183   5.113  17.174  0.00  0.00    +0.000 A 
ATOM      4  C   UNL     1      48.445   3.938  17.368  0.00  0.00    +0.000 A 
ATOM      5  C   UNL     1      48.381   3.392  18.657  0.00  0.00    +0.000 A 
ATOM      6  C   UNL     1      48.969   4.055  19.743  0.00  0.00    +0.000 A 
ENDROOT
BRANCH   1   7
ATOM      7  C   UNL     1      50.158   6.072  20.733  0.00  0.00    +0.000 C 
BRANCH   7  10
ATOM      8  C   UNL     1      48.037   7.307  21.160  0.00  0.00    +0.000 C 
ATOM      9  O   UNL     1      47.409   6.290  21.432  0.00  0.00    +0.000 OA
ATOM     10  N   UNL     1      49.387   7.296  20.856  0.00  0.00    +0.000 N 
ATOM     11  H   UNL     1      49.828   8.143  20.529  0.00  0.00    +0.000 HD
BRANCH   8  18
ATOM     12  C   UNL     1      47.614   8.786  18.536  0.00  0.00    +0.000 C 
ATOM     13  C   UNL     1      47.257   9.372  19.875  0.00  0.00    +0.000 A 
ATOM     14  C   UNL     1      46.748  10.686  19.907  0.00  0.00    +0.000 A 
ATOM     15  C   UNL     1      46.340  11.272  21.105  0.00  0.00    +0.000 A 
ATOM     16  C   UNL     1      46.392  10.540  22.285  0.00  0.00    +0.000 A 
ATOM     17  C   UNL     1      46.899   9.239  22.275  0.00  0.00    +0.000 A 
ATOM     18  C   UNL     1      47.377   8.656  21.086  0.00  0.00    +0.000 A 
ENDBRANCH   8  18
ENDBRANCH   7  10
ENDBRANCH   1   7
BRANCH   4  19
ATOM     19  C   UNL     1      47.737   3.282  16.208  0.00  0.00    +0.000 C 
BRANCH  19  20
ATOM     20  N   UNL     1      46.976   4.230  15.436  0.00  0.00    +0.000 N 
ATOM     21  C   UNL     1      46.863   4.098  14.074  0.00  0.00    +0.000 C 
ATOM     22  O   UNL     1      47.360   3.152  13.469  0.00  0.00    +0.000 OA
ATOM     23  H   UNL     1      46.758   5.119  15.875  0.00  0.00    +0.000 HD
BRANCH  21  24
ATOM     24  C   UNL     1      46.062   5.110  13.374  0.00  0.00    +0.000 A 
ATOM     25  C   UNL     1      46.523   6.418  13.299  0.00  0.00    +0.000 A 
ATOM     26  S   UNL     1      45.497   7.459  12.422  0.00  0.00    +0.000 S 
ATOM     27  C   UNL     1      44.375   6.211  12.151  0.00  0.00    +0.000 A 
ATOM     28  N   UNL     1      43.221   6.447  11.469  0.00  0.00    +0.000 NA
ATOM     29  C   UNL     1      42.447   5.419  11.361  0.00  0.00    +0.000 A 
ATOM     30  N   UNL     1      42.726   4.175  11.867  0.00  0.00    +0.000 N 
ATOM     31  C   UNL     1      43.889   3.882  12.538  0.00  0.00    +0.000 A 
ATOM     32  O   UNL     1      44.129   2.751  12.940  0.00  0.00    +0.000 OA
ATOM     33  C   UNL     1      44.788   5.010  12.702  0.00  0.00    +0.000 A 
ATOM     34  H   UNL     1      42.080   3.412  11.742  0.00  0.00    +0.000 HD
ENDBRANCH  21  24
ENDBRANCH  19  20
ENDBRANCH   4  19
TORSDOF 6
ENDMDL
MODEL 9
REMARK VINA RESULT:    -6.929      3.230      9.595
REMARK INTER + INTRA:         -10.079
REMARK INTER:                  -8.846
REMARK INTRA:                  -1.233
REMARK UNBOUND:                -0.720
REMARK  Name = 
REMARK  7 active torsions:
REMARK  status: ('A' for Active; 'I' for Inactive)
REMARK    1  A    between atoms: C_1  and  C_2
REMARK    2  A    between atoms: C_7  and  C_8
REMARK    3  A    between atoms: N_10  and  C_11
REMARK    4  A    between atoms: C_11  and  C_12
REMARK    5  A    between atoms: C_15  and  C_16
REMARK    6  A    between atoms: C_16  and  N_17
REMARK    7  A    between atoms: C_18  and  C_20
REMARK                            x       y       z     vdW  Elec       q    Type
REMARK                         _______ _______ _______ _____ _____    ______ ____
ROOT
ATOM      1  C   UNL     1      50.644   7.733  14.968  0.00  0.00    +0.000 A 
ATOM      2  C   UNL     1      50.956   8.285  13.718  0.00  0.00    +0.000 A 
ATOM      3  C   UNL     1      50.015   8.291  12.683  0.00  0.00    +0.000 A 
ATOM      4  C   UNL     1      48.738   7.747  12.873  0.00  0.00    +0.000 A 
ATOM      5  C   UNL     1      48.449   7.129  14.097  0.00  0.00    +0.000 A 
ATOM      6  C   UNL     1      49.388   7.133  15.138  0.00  0.00    +0.000 A 
ENDROOT
BRANCH   1   7
ATOM      7  C   UNL     1      51.606   7.888  16.124  0.00  0.00    +0.000 C 
BRANCH   7  10
ATOM      8  C   UNL     1      51.385   5.962  17.688  0.00  0.00    +0.000 C 
ATOM      9  O   UNL     1      52.224   5.288  17.100  0.00  0.00    +0.000 OA
ATOM     10  N   UNL     1      51.060   7.253  17.309  0.00  0.00    +0.000 N 
ATOM     11  H   UNL     1      50.284   7.720  17.756  0.00  0.00    +0.000 HD
BRANCH   8  18
ATOM     12  C   UNL     1      48.955   4.167  17.334  0.00  0.00    +0.000 C 
ATOM     13  C   UNL     1      49.426   4.655  18.677  0.00  0.00    +0.000 A 
ATOM     14  C   UNL     1      48.671   4.296  19.812  0.00  0.00    +0.000 A 
ATOM     15  C   UNL     1      49.079   4.663  21.094  0.00  0.00    +0.000 A 
ATOM     16  C   UNL     1      50.272   5.354  21.268  0.00  0.00    +0.000 A 
ATOM     17  C   UNL     1      51.031   5.723  20.156  0.00  0.00    +0.000 A 
ATOM     18  C   UNL     1      50.599   5.421  18.851  0.00  0.00    +0.000 A 
ENDBRANCH   8  18
ENDBRANCH   7  10
ENDBRANCH   1   7
BRANCH   4  19
ATOM     19  C   UNL     1      47.704   7.830  11.779  0.00  0.00    +0.000 C 
BRANCH  19  20
ATOM     20  N   UNL     1      46.995   6.588  11.611  0.00  0.00    +0.000 N 
ATOM     21  C   UNL     1      45.623   6.550  11.646  0.00  0.00    +0.000 C 
ATOM     22  O   UNL     1      44.948   7.569  11.774  0.00  0.00    +0.000 OA
ATOM     23  H   UNL     1      47.524   5.731  11.732  0.00  0.00    +0.000 HD
BRANCH  21  24
ATOM     24  C   UNL     1      44.991   5.238  11.460  0.00  0.00    +0.000 A 
ATOM     25  C   UNL     1      44.290   4.660  12.510  0.00  0.00    +0.000 A 
ATOM     26  S   UNL     1      43.585   3.157  12.120  0.00  0.00    +0.000 S 
ATOM     27  C   UNL     1      44.232   3.202  10.548  0.00  0.00    +0.000 A 
ATOM     28  N   UNL     1      44.024   2.175   9.680  0.00  0.00    +0.000 NA
ATOM     29  C   UNL     1      44.595   2.325   8.532  0.00  0.00    +0.000 A 
ATOM     30  N   UNL     1      45.349   3.413   8.171  0.00  0.00    +0.000 N 
ATOM     31  C   UNL     1      45.563   4.486   9.003  0.00  0.00    +0.000 A 
ATOM     32  O   UNL     1      46.205   5.463   8.637  0.00  0.00    +0.000 OA
ATOM     33  C   UNL     1      44.956   4.358  10.315  0.00  0.00    +0.000 A 
ATOM     34  H   UNL     1      45.763   3.472   7.254  0.00  0.00    +0.000 HD
ENDBRANCH  21  24
ENDBRANCH  19  20
ENDBRANCH   4  19
TORSDOF 6
ENDMDL
