MODEL 1
REMARK VINA RESULT:    -8.591      0.000      0.000
REMARK INTER + INTRA:         -13.985
REMARK INTER:                 -12.859
REMARK INTRA:                  -1.126
REMARK UNBOUND:                -1.126
REMARK  Name = 
REMARK  9 active torsions:
REMARK  status: ('A' for Active; 'I' for Inactive)
REMARK    1  A    between atoms: N_1  and  C_2
REMARK    2  A    between atoms: C_2  and  C_3
REMARK    3  A    between atoms: C_3  and  N_4
REMARK    4  A    between atoms: C_3  and  C_12
REMARK    5  A    between atoms: N_4  and  C_5
REMARK    6  A    between atoms: C_5  and  C_6
REMARK    7  A    between atoms: C_15  and  C_16
REMARK    8  A    between atoms: C_16  and  N_17
REMARK    9  A    between atoms: C_18  and  C_20
REMARK                            x       y       z     vdW  Elec       q    Type
REMARK                         _______ _______ _______ _____ _____    ______ ____
ROOT
ATOM      1  C   UNL     1      45.183   4.724  11.904  0.00  0.00    +0.000 A 
ATOM      2  C   UNL     1      45.721   5.919  11.388  0.00  0.00    +0.000 A 
ATOM      3  C   UNL     1      46.767   6.581  12.036  0.00  0.00    +0.000 A 
ATOM      4  C   UNL     1      47.349   6.024  13.176  0.00  0.00    +0.000 A 
ATOM      5  C   UNL     1      46.853   4.807  13.660  0.00  0.00    +0.000 A 
ATOM      6  C   UNL     1      45.770   4.178  13.052  0.00  0.00    +0.000 A 
ENDROOT
BRANCH   1   7
ATOM      7  C   UNL     1      43.920   4.133  11.278  0.00  0.00    +0.000 C 
BRANCH   7   8
ATOM      8  N   UNL     1      44.076   3.901   9.824  0.00  0.00    +0.000 NA
ATOM      9  H   UNL     1      44.766   4.550   9.453  0.00  0.00    +0.000 HD
BRANCH   8  10
ATOM     10  C   UNL     1      44.462   2.535   9.481  0.00  0.00    +0.000 C 
BRANCH  10  11
ATOM     11  C   UNL     1      45.555   2.490   8.442  0.00  0.00    +0.000 A 
ATOM     12  C   UNL     1      45.936   3.660   7.764  0.00  0.00    +0.000 A 
ATOM     13  C   UNL     1      46.966   3.628   6.823  0.00  0.00    +0.000 A 
ATOM     14  C   UNL     1      47.625   2.431   6.556  0.00  0.00    +0.000 A 
ATOM     15  C   UNL     1      47.259   1.266   7.227  0.00  0.00    +0.000 A 
ATOM     16  C   UNL     1      46.230   1.294   8.170  0.00  0.00    +0.000 A 
ENDBRANCH  10  11
ENDBRANCH   8  10
ENDBRANCH   7   8
BRANCH   7  17
ATOM     17  C   UNL     1      42.659   5.026  11.563  0.00  0.00    +0.000 C 
BRANCH  17  18
ATOM     18  N   UNL     1      42.489   5.459  12.956  0.00  0.00    +0.000 NA
ATOM     19  H   UNL     1      42.823   6.416  13.053  0.00  0.00    +0.000 HD
ATOM     20  H   UNL     1      43.060   4.880  13.566  0.00  0.00    +0.000 HD
ENDBRANCH  17  18
ENDBRANCH   7  17
ENDBRANCH   1   7
BRANCH   4  21
ATOM     21  C   UNL     1      48.448   6.731  13.922  0.00  0.00    +0.000 C 
BRANCH  21  22
ATOM     22  N   UNL     1      48.179   6.828  15.337  0.00  0.00    +0.000 N 
ATOM     23  C   UNL     1      49.120   6.524  16.289  0.00  0.00    +0.000 C 
ATOM     24  O   UNL     1      50.241   6.117  15.997  0.00  0.00    +0.000 OA
ATOM     25  H   UNL     1      47.236   7.076  15.614  0.00  0.00    +0.000 HD
BRANCH  23  26
ATOM     26  C   UNL     1      48.761   6.769  17.691  0.00  0.00    +0.000 A 
ATOM     27  C   UNL     1      48.470   8.067  18.089  0.00  0.00    +0.000 A 
ATOM     28  S   UNL     1      48.029   8.204  19.728  0.00  0.00    +0.000 S 
ATOM     29  C   UNL     1      48.257   6.538  19.982  0.00  0.00    +0.000 A 
ATOM     30  N   UNL     1      48.068   5.993  21.208  0.00  0.00    +0.000 NA
ATOM     31  C   UNL     1      48.297   4.724  21.271  0.00  0.00    +0.000 A 
ATOM     32  N   UNL     1      48.690   3.951  20.211  0.00  0.00    +0.000 N 
ATOM     33  C   UNL     1      48.848   4.448  18.938  0.00  0.00    +0.000 A 
ATOM     34  O   UNL     1      49.118   3.711  17.992  0.00  0.00    +0.000 OA
ATOM     35  C   UNL     1      48.635   5.879  18.822  0.00  0.00    +0.000 A 
ATOM     36  H   UNL     1      48.839   2.957  20.326  0.00  0.00    +0.000 HD
ENDBRANCH  23  26
ENDBRANCH  21  22
ENDBRANCH   4  21
TORSDOF 9
ENDMDL
MODEL 2
REMARK VINA RESULT:    -8.291      1.461      2.393
REMARK INTER + INTRA:         -13.536
REMARK INTER:                 -12.343
REMARK INTRA:                  -1.194
REMARK UNBOUND:                -1.126
REMARK  Name = 
REMARK  9 active torsions:
REMARK  status: ('A' for Active; 'I' for Inactive)
REMARK    1  A    between atoms: N_1  and  C_2
REMARK    2  A    between atoms: C_2  and  C_3
REMARK    3  A    between atoms: C_3  and  N_4
REMARK    4  A    between atoms: C_3  and  C_12
REMARK    5  A    between atoms: N_4  and  C_5
REMARK    6  A    between atoms: C_5  and  C_6
REMARK    7  A    between atoms: C_15  and  C_16
REMARK    8  A    between atoms: C_16  and  N_17
REMARK    9  A    between atoms: C_18  and  C_20
REMARK                            x       y       z     vdW  Elec       q    Type
REMARK                         _______ _______ _______ _____ _____    ______ ____
ROOT
ATOM      1  C   UNL     1      45.668   4.898  11.899  0.00  0.00    +0.000 A 
ATOM      2  C   UNL     1      45.976   4.336  13.154  0.00  0.00    +0.000 A 
ATOM      3  C   UNL     1      46.873   4.958  14.025  0.00  0.00    +0.000 A 
ATOM      4  C   UNL     1      47.427   6.196  13.694  0.00  0.00    +0.000 A 
ATOM      5  C   UNL     1      47.079   6.785  12.472  0.00  0.00    +0.000 A 
ATOM      6  C   UNL     1      46.235   6.136  11.575  0.00  0.00    +0.000 A 
ENDROOT
BRANCH   1   7
ATOM      7  C   UNL     1      44.835   4.098  10.898  0.00  0.00    +0.000 C 
BRANCH   7   8
ATOM      8  N   UNL     1      44.780   4.751   9.571  0.00  0.00    +0.000 NA
ATOM      9  H   UNL     1      45.688   5.161   9.361  0.00  0.00    +0.000 HD
BRANCH   8  10
ATOM     10  C   UNL     1      44.391   3.855   8.486  0.00  0.00    +0.000 C 
BRANCH  10  11
ATOM     11  C   UNL     1      45.549   3.036   7.973  0.00  0.00    +0.000 A 
ATOM     12  C   UNL     1      45.689   1.691   8.354  0.00  0.00    +0.000 A 
ATOM     13  C   UNL     1      46.744   0.922   7.858  0.00  0.00    +0.000 A 
ATOM     14  C   UNL     1      47.660   1.487   6.977  0.00  0.00    +0.000 A 
ATOM     15  C   UNL     1      47.526   2.819   6.586  0.00  0.00    +0.000 A 
ATOM     16  C   UNL     1      46.473   3.591   7.080  0.00  0.00    +0.000 A 
ENDBRANCH  10  11
ENDBRANCH   8  10
ENDBRANCH   7   8
BRANCH   7  17
ATOM     17  C   UNL     1      43.385   3.823  11.439  0.00  0.00    +0.000 C 
BRANCH  17  18
ATOM     18  N   UNL     1      43.051   2.412  11.674  0.00  0.00    +0.000 NA
ATOM     19  H   UNL     1      42.377   2.107  10.974  0.00  0.00    +0.000 HD
ATOM     20  H   UNL     1      42.605   2.313  12.583  0.00  0.00    +0.000 HD
ENDBRANCH  17  18
ENDBRANCH   7  17
ENDBRANCH   1   7
BRANCH   4  21
ATOM     21  C   UNL     1      48.428   6.874  14.590  0.00  0.00    +0.000 C 
BRANCH  21  22
ATOM     22  N   UNL     1      48.203   6.582  15.986  0.00  0.00    +0.000 N 
ATOM     23  C   UNL     1      49.174   6.044  16.792  0.00  0.00    +0.000 C 
ATOM     24  O   UNL     1      50.288   5.745  16.368  0.00  0.00    +0.000 OA
ATOM     25  H   UNL     1      47.268   6.735  16.348  0.00  0.00    +0.000 HD
BRANCH  23  26
ATOM     26  C   UNL     1      48.859   5.896  18.218  0.00  0.00    +0.000 A 
ATOM     27  C   UNL     1      49.111   4.678  18.834  0.00  0.00    +0.000 A 
ATOM     28  S   UNL     1      48.739   4.655  20.496  0.00  0.00    +0.000 S 
ATOM     29  C   UNL     1      48.181   6.261  20.446  0.00  0.00    +0.000 A 
ATOM     30  N   UNL     1      47.687   6.856  21.558  0.00  0.00    +0.000 NA
ATOM     31  C   UNL     1      47.275   8.067  21.379  0.00  0.00    +0.000 A 
ATOM     32  N   UNL     1      47.322   8.736  20.185  0.00  0.00    +0.000 N 
ATOM     33  C   UNL     1      47.859   8.192  19.041  0.00  0.00    +0.000 A 
ATOM     34  O   UNL     1      47.965   8.850  18.009  0.00  0.00    +0.000 OA
ATOM     35  C   UNL     1      48.305   6.818  19.183  0.00  0.00    +0.000 A 
ATOM     36  H   UNL     1      46.996   9.691  20.117  0.00  0.00    +0.000 HD
ENDBRANCH  23  26
ENDBRANCH  21  22
ENDBRANCH   4  21
TORSDOF 9
ENDMDL
MODEL 3
REMARK VINA RESULT:    -8.247      1.652      2.652
REMARK INTER + INTRA:         -13.471
REMARK INTER:                 -12.119
REMARK INTRA:                  -1.353
REMARK UNBOUND:                -1.126
REMARK  Name = 
REMARK  9 active torsions:
REMARK  status: ('A' for Active; 'I' for Inactive)
REMARK    1  A    between atoms: N_1  and  C_2
REMARK    2  A    between atoms: C_2  and  C_3
REMARK    3  A    between atoms: C_3  and  N_4
REMARK    4  A    between atoms: C_3  and  C_12
REMARK    5  A    between atoms: N_4  and  C_5
REMARK    6  A    between atoms: C_5  and  C_6
REMARK    7  A    between atoms: C_15  and  C_16
REMARK    8  A    between atoms: C_16  and  N_17
REMARK    9  A    between atoms: C_18  and  C_20
REMARK                            x       y       z     vdW  Elec       q    Type
REMARK                         _______ _______ _______ _____ _____    ______ ____
ROOT
ATOM      1  C   UNL     1      45.156   4.637  11.841  0.00  0.00    +0.000 A 
ATOM      2  C   UNL     1      45.704   5.817  11.300  0.00  0.00    +0.000 A 
ATOM      3  C   UNL     1      46.788   6.455  11.906  0.00  0.00    +0.000 A 
ATOM      4  C   UNL     1      47.399   5.887  13.025  0.00  0.00    +0.000 A 
ATOM      5  C   UNL     1      46.893   4.685  13.532  0.00  0.00    +0.000 A 
ATOM      6  C   UNL     1      45.772   4.080  12.968  0.00  0.00    +0.000 A 
ENDROOT
BRANCH   1   7
ATOM      7  C   UNL     1      43.856   4.075  11.264  0.00  0.00    +0.000 C 
BRANCH   7   8
ATOM      8  N   UNL     1      43.973   3.775   9.819  0.00  0.00    +0.000 NA
ATOM      9  H   UNL     1      44.576   4.467   9.380  0.00  0.00    +0.000 HD
BRANCH   8  10
ATOM     10  C   UNL     1      44.484   2.437   9.533  0.00  0.00    +0.000 C 
BRANCH  10  11
ATOM     11  C   UNL     1      45.546   2.443   8.461  0.00  0.00    +0.000 A 
ATOM     12  C   UNL     1      45.875   3.637   7.799  0.00  0.00    +0.000 A 
ATOM     13  C   UNL     1      46.878   3.653   6.827  0.00  0.00    +0.000 A 
ATOM     14  C   UNL     1      47.559   2.481   6.515  0.00  0.00    +0.000 A 
ATOM     15  C   UNL     1      47.245   1.292   7.171  0.00  0.00    +0.000 A 
ATOM     16  C   UNL     1      46.243   1.272   8.143  0.00  0.00    +0.000 A 
ENDBRANCH  10  11
ENDBRANCH   8  10
ENDBRANCH   7   8
BRANCH   7  17
ATOM     17  C   UNL     1      42.641   5.034  11.534  0.00  0.00    +0.000 C 
BRANCH  17  18
ATOM     18  N   UNL     1      42.477   5.476  12.924  0.00  0.00    +0.000 NA
ATOM     19  H   UNL     1      43.337   5.292  13.438  0.00  0.00    +0.000 HD
ATOM     20  H   UNL     1      41.740   4.935  13.370  0.00  0.00    +0.000 HD
ENDBRANCH  17  18
ENDBRANCH   7  17
ENDBRANCH   1   7
BRANCH   4  21
ATOM     21  C   UNL     1      48.543   6.569  13.727  0.00  0.00    +0.000 C 
BRANCH  21  22
ATOM     22  N   UNL     1      48.192   7.004  15.058  0.00  0.00    +0.000 N 
ATOM     23  C   UNL     1      48.987   6.757  16.148  0.00  0.00    +0.000 C 
ATOM     24  O   UNL     1      50.034   6.120  16.066  0.00  0.00    +0.000 OA
ATOM     25  H   UNL     1      47.291   7.455  15.177  0.00  0.00    +0.000 HD
BRANCH  23  26
ATOM     26  C   UNL     1      48.576   7.345  17.429  0.00  0.00    +0.000 A 
ATOM     27  C   UNL     1      48.525   6.530  18.552  0.00  0.00    +0.000 A 
ATOM     28  S   UNL     1      48.074   7.346  19.977  0.00  0.00    +0.000 S 
ATOM     29  C   UNL     1      47.882   8.812  19.137  0.00  0.00    +0.000 A 
ATOM     30  N   UNL     1      47.474   9.931  19.784  0.00  0.00    +0.000 NA
ATOM     31  C   UNL     1      47.345  10.970  19.028  0.00  0.00    +0.000 A 
ATOM     32  N   UNL     1      47.597  10.988  17.682  0.00  0.00    +0.000 N 
ATOM     33  C   UNL     1      48.060   9.892  16.991  0.00  0.00    +0.000 A 
ATOM     34  O   UNL     1      48.358   9.966  15.801  0.00  0.00    +0.000 OA
ATOM     35  C   UNL     1      48.188   8.689  17.791  0.00  0.00    +0.000 A 
ATOM     36  H   UNL     1      47.490  11.842  17.150  0.00  0.00    +0.000 HD
ENDBRANCH  23  26
ENDBRANCH  21  22
ENDBRANCH   4  21
TORSDOF 9
ENDMDL
MODEL 4
REMARK VINA RESULT:    -7.239      2.453      3.123
REMARK INTER + INTRA:         -11.962
REMARK INTER:                 -11.003
REMARK INTRA:                  -0.959
REMARK UNBOUND:                -1.126
REMARK  Name = 
REMARK  9 active torsions:
REMARK  status: ('A' for Active; 'I' for Inactive)
REMARK    1  A    between atoms: N_1  and  C_2
REMARK    2  A    between atoms: C_2  and  C_3
REMARK    3  A    between atoms: C_3  and  N_4
REMARK    4  A    between atoms: C_3  and  C_12
REMARK    5  A    between atoms: N_4  and  C_5
REMARK    6  A    between atoms: C_5  and  C_6
REMARK    7  A    between atoms: C_15  and  C_16
REMARK    8  A    between atoms: C_16  and  N_17
REMARK    9  A    between atoms: C_18  and  C_20
REMARK                            x       y       z     vdW  Elec       q    Type
REMARK                         _______ _______ _______ _____ _____    ______ ____
ROOT
ATOM      1  C   UNL     1      45.269   5.280  11.851  0.00  0.00    +0.000 A 
ATOM      2  C   UNL     1      45.862   4.954  13.086  0.00  0.00    +0.000 A 
ATOM      3  C   UNL     1      47.036   5.581  13.513  0.00  0.00    +0.000 A 
ATOM      4  C   UNL     1      47.602   6.602  12.747  0.00  0.00    +0.000 A 
ATOM      5  C   UNL     1      46.983   6.967  11.547  0.00  0.00    +0.000 A 
ATOM      6  C   UNL     1      45.850   6.300  11.089  0.00  0.00    +0.000 A 
ENDROOT
BRANCH   1   7
ATOM      7  C   UNL     1      44.099   4.442  11.332  0.00  0.00    +0.000 C 
BRANCH   7   8
ATOM      8  N   UNL     1      44.188   4.206   9.874  0.00  0.00    +0.000 NA
ATOM      9  H   UNL     1      44.919   4.796   9.482  0.00  0.00    +0.000 HD
BRANCH   8  10
ATOM     10  C   UNL     1      44.447   2.813   9.516  0.00  0.00    +0.000 C 
BRANCH  10  11
ATOM     11  C   UNL     1      45.519   2.680   8.462  0.00  0.00    +0.000 A 
ATOM     12  C   UNL     1      45.911   3.797   7.706  0.00  0.00    +0.000 A 
ATOM     13  C   UNL     1      46.922   3.684   6.750  0.00  0.00    +0.000 A 
ATOM     14  C   UNL     1      47.551   2.460   6.547  0.00  0.00    +0.000 A 
ATOM     15  C   UNL     1      47.175   1.347   7.297  0.00  0.00    +0.000 A 
ATOM     16  C   UNL     1      46.164   1.456   8.254  0.00  0.00    +0.000 A 
ENDBRANCH  10  11
ENDBRANCH   8  10
ENDBRANCH   7   8
BRANCH   7  17
ATOM     17  C   UNL     1      42.715   5.087  11.704  0.00  0.00    +0.000 C 
BRANCH  17  18
ATOM     18  N   UNL     1      42.527   5.413  13.123  0.00  0.00    +0.000 NA
ATOM     19  H   UNL     1      43.115   4.802  13.688  0.00  0.00    +0.000 HD
ATOM     20  H   UNL     1      41.563   5.232  13.391  0.00  0.00    +0.000 HD
ENDBRANCH  17  18
ENDBRANCH   7  17
ENDBRANCH   1   7
BRANCH   4  21
ATOM     21  C   UNL     1      48.888   7.269  13.157  0.00  0.00    +0.000 C 
BRANCH  21  22
ATOM     22  N   UNL     1      49.506   6.625  14.291  0.00  0.00    +0.000 N 
ATOM     23  C   UNL     1      50.258   7.311  15.210  0.00  0.00    +0.000 C 
ATOM     24  O   UNL     1      50.480   8.515  15.108  0.00  0.00    +0.000 OA
ATOM     25  H   UNL     1      49.416   5.616  14.357  0.00  0.00    +0.000 HD
BRANCH  23  26
ATOM     26  C   UNL     1      50.742   6.564  16.377  0.00  0.00    +0.000 A 
ATOM     27  C   UNL     1      49.815   6.083  17.292  0.00  0.00    +0.000 A 
ATOM     28  S   UNL     1      50.505   5.199  18.574  0.00  0.00    +0.000 S 
ATOM     29  C   UNL     1      52.076   5.466  17.980  0.00  0.00    +0.000 A 
ATOM     30  N   UNL     1      53.157   4.987  18.642  0.00  0.00    +0.000 NA
ATOM     31  C   UNL     1      54.291   5.280  18.099  0.00  0.00    +0.000 A 
ATOM     32  N   UNL     1      54.437   6.004  16.946  0.00  0.00    +0.000 N 
ATOM     33  C   UNL     1      53.370   6.470  16.213  0.00  0.00    +0.000 A 
ATOM     34  O   UNL     1      53.535   7.042  15.137  0.00  0.00    +0.000 OA
ATOM     35  C   UNL     1      52.073   6.195  16.801  0.00  0.00    +0.000 A 
ATOM     36  H   UNL     1      55.357   6.186  16.566  0.00  0.00    +0.000 HD
ENDBRANCH  23  26
ENDBRANCH  21  22
ENDBRANCH   4  21
TORSDOF 9
ENDMDL
MODEL 5
REMARK VINA RESULT:    -7.011      4.637      6.742
REMARK INTER + INTRA:         -11.621
REMARK INTER:                 -10.469
REMARK INTRA:                  -1.152
REMARK UNBOUND:                -1.126
REMARK  Name = 
REMARK  9 active torsions:
REMARK  status: ('A' for Active; 'I' for Inactive)
REMARK    1  A    between atoms: N_1  and  C_2
REMARK    2  A    between atoms: C_2  and  C_3
REMARK    3  A    between atoms: C_3  and  N_4
REMARK    4  A    between atoms: C_3  and  C_12
REMARK    5  A    between atoms: N_4  and  C_5
REMARK    6  A    between atoms: C_5  and  C_6
REMARK    7  A    between atoms: C_15  and  C_16
REMARK    8  A    between atoms: C_16  and  N_17
REMARK    9  A    between atoms: C_18  and  C_20
REMARK                            x       y       z     vdW  Elec       q    Type
REMARK                         _______ _______ _______ _____ _____    ______ ____
ROOT
ATOM      1  C   UNL     1      45.485   5.046  11.905  0.00  0.00    +0.000 A 
ATOM      2  C   UNL     1      46.507   5.037  12.875  0.00  0.00    +0.000 A 
ATOM      3  C   UNL     1      47.239   6.190  13.166  0.00  0.00    +0.000 A 
ATOM      4  C   UNL     1      46.916   7.399  12.547  0.00  0.00    +0.000 A 
ATOM      5  C   UNL     1      45.863   7.425  11.625  0.00  0.00    +0.000 A 
ATOM      6  C   UNL     1      45.174   6.263  11.287  0.00  0.00    +0.000 A 
ENDROOT
BRANCH   1   7
ATOM      7  C   UNL     1      44.838   3.728  11.478  0.00  0.00    +0.000 C 
BRANCH   7   8
ATOM      8  N   UNL     1      44.439   3.741  10.053  0.00  0.00    +0.000 NA
ATOM      9  H   UNL     1      45.002   4.425   9.553  0.00  0.00    +0.000 HD
BRANCH   8  10
ATOM     10  C   UNL     1      44.556   2.442   9.395  0.00  0.00    +0.000 C 
BRANCH  10  11
ATOM     11  C   UNL     1      45.630   2.430   8.335  0.00  0.00    +0.000 A 
ATOM     12  C   UNL     1      45.934   3.601   7.622  0.00  0.00    +0.000 A 
ATOM     13  C   UNL     1      46.948   3.600   6.661  0.00  0.00    +0.000 A 
ATOM     14  C   UNL     1      47.664   2.435   6.409  0.00  0.00    +0.000 A 
ATOM     15  C   UNL     1      47.375   1.269   7.116  0.00  0.00    +0.000 A 
ATOM     16  C   UNL     1      46.363   1.265   8.078  0.00  0.00    +0.000 A 
ENDBRANCH  10  11
ENDBRANCH   8  10
ENDBRANCH   7   8
BRANCH   7  17
ATOM     17  C   UNL     1      43.614   3.361  12.393  0.00  0.00    +0.000 C 
BRANCH  17  18
ATOM     18  N   UNL     1      43.324   1.927  12.521  0.00  0.00    +0.000 NA
ATOM     19  H   UNL     1      44.027   1.396  12.009  0.00  0.00    +0.000 HD
ATOM     20  H   UNL     1      42.425   1.720  12.094  0.00  0.00    +0.000 HD
ENDBRANCH  17  18
ENDBRANCH   7  17
ENDBRANCH   1   7
BRANCH   4  21
ATOM     21  C   UNL     1      47.710   8.651  12.807  0.00  0.00    +0.000 C 
BRANCH  21  22
ATOM     22  N   UNL     1      48.810   8.807  11.884  0.00  0.00    +0.000 N 
ATOM     23  C   UNL     1      50.082   8.381  12.174  0.00  0.00    +0.000 C 
ATOM     24  O   UNL     1      50.372   7.870  13.253  0.00  0.00    +0.000 OA
ATOM     25  H   UNL     1      48.624   9.305  11.020  0.00  0.00    +0.000 HD
BRANCH  23  26
ATOM     26  C   UNL     1      51.088   8.496  11.112  0.00  0.00    +0.000 A 
ATOM     27  C   UNL     1      51.634   7.335  10.582  0.00  0.00    +0.000 A 
ATOM     28  S   UNL     1      52.757   7.609   9.331  0.00  0.00    +0.000 S 
ATOM     29  C   UNL     1      52.591   9.295   9.482  0.00  0.00    +0.000 A 
ATOM     30  N   UNL     1      53.315  10.134   8.702  0.00  0.00    +0.000 NA
ATOM     31  C   UNL     1      53.114  11.388   8.934  0.00  0.00    +0.000 A 
ATOM     32  N   UNL     1      52.245  11.876   9.873  0.00  0.00    +0.000 N 
ATOM     33  C   UNL     1      51.453  11.066  10.654  0.00  0.00    +0.000 A 
ATOM     34  O   UNL     1      50.622  11.538  11.427  0.00  0.00    +0.000 OA
ATOM     35  C   UNL     1      51.668   9.645  10.455  0.00  0.00    +0.000 A 
ATOM     36  H   UNL     1      52.124  12.873   9.993  0.00  0.00    +0.000 HD
ENDBRANCH  23  26
ENDBRANCH  21  22
ENDBRANCH   4  21
TORSDOF 9
ENDMDL
MODEL 6
REMARK VINA RESULT:    -6.982      3.898      9.014
REMARK INTER + INTRA:         -11.577
REMARK INTER:                  -9.772
REMARK INTRA:                  -1.804
REMARK UNBOUND:                -1.126
REMARK  Name = 
REMARK  9 active torsions:
REMARK  status: ('A' for Active; 'I' for Inactive)
REMARK    1  A    between atoms: N_1  and  C_2
REMARK    2  A    between atoms: C_2  and  C_3
REMARK    3  A    between atoms: C_3  and  N_4
REMARK    4  A    between atoms: C_3  and  C_12
REMARK    5  A    between atoms: N_4  and  C_5
REMARK    6  A    between atoms: C_5  and  C_6
REMARK    7  A    between atoms: C_15  and  C_16
REMARK    8  A    between atoms: C_16  and  N_17
REMARK    9  A    between atoms: C_18  and  C_20
REMARK                            x       y       z     vdW  Elec       q    Type
REMARK                         _______ _______ _______ _____ _____    ______ ____
ROOT
ATOM      1  C   UNL     1      51.000   3.871  18.490  0.00  0.00    +0.000 A 
ATOM      2  C   UNL     1      49.928   4.610  19.027  0.00  0.00    +0.000 A 
ATOM      3  C   UNL     1      48.627   4.457  18.539  0.00  0.00    +0.000 A 
ATOM      4  C   UNL     1      48.356   3.505  17.555  0.00  0.00    +0.000 A 
ATOM      5  C   UNL     1      49.410   2.729  17.059  0.00  0.00    +0.000 A 
ATOM      6  C   UNL     1      50.717   2.925  17.498  0.00  0.00    +0.000 A 
ENDROOT
BRANCH   1   7
ATOM      7  C   UNL     1      52.432   4.202  18.913  0.00  0.00    +0.000 C 
BRANCH   7   8
ATOM      8  N   UNL     1      52.832   5.565  18.499  0.00  0.00    +0.000 NA
ATOM      9  H   UNL     1      53.523   5.926  19.153  0.00  0.00    +0.000 HD
BRANCH   8  10
ATOM     10  C   UNL     1      53.367   5.638  17.142  0.00  0.00    +0.000 C 
BRANCH  10  11
ATOM     11  C   UNL     1      52.564   6.558  16.255  0.00  0.00    +0.000 A 
ATOM     12  C   UNL     1      53.213   7.410  15.347  0.00  0.00    +0.000 A 
ATOM     13  C   UNL     1      52.472   8.241  14.505  0.00  0.00    +0.000 A 
ATOM     14  C   UNL     1      51.082   8.223  14.560  0.00  0.00    +0.000 A 
ATOM     15  C   UNL     1      50.428   7.376  15.453  0.00  0.00    +0.000 A 
ATOM     16  C   UNL     1      51.165   6.543  16.297  0.00  0.00    +0.000 A 
ENDBRANCH  10  11
ENDBRANCH   8  10
ENDBRANCH   7   8
BRANCH   7  17
ATOM     17  C   UNL     1      53.455   3.138  18.375  0.00  0.00    +0.000 C 
BRANCH  17  18
ATOM     18  N   UNL     1      53.796   2.056  19.308  0.00  0.00    +0.000 NA
ATOM     19  H   UNL     1      53.266   1.222  19.062  0.00  0.00    +0.000 HD
ATOM     20  H   UNL     1      53.521   2.318  20.251  0.00  0.00    +0.000 HD
ENDBRANCH  17  18
ENDBRANCH   7  17
ENDBRANCH   1   7
BRANCH   4  21
ATOM     21  C   UNL     1      46.975   3.343  16.979  0.00  0.00    +0.000 C 
BRANCH  21  22
ATOM     22  N   UNL     1      46.673   4.343  15.982  0.00  0.00    +0.000 N 
ATOM     23  C   UNL     1      46.880   4.134  14.642  0.00  0.00    +0.000 C 
ATOM     24  O   UNL     1      47.367   3.093  14.208  0.00  0.00    +0.000 OA
ATOM     25  H   UNL     1      46.352   5.246  16.313  0.00  0.00    +0.000 HD
BRANCH  23  26
ATOM     26  C   UNL     1      46.430   5.184  13.720  0.00  0.00    +0.000 A 
ATOM     27  C   UNL     1      47.276   6.256  13.467  0.00  0.00    +0.000 A 
ATOM     28  S   UNL     1      46.651   7.379  12.349  0.00  0.00    +0.000 S 
ATOM     29  C   UNL     1      45.203   6.499  12.197  0.00  0.00    +0.000 A 
ATOM     30  N   UNL     1      44.205   6.942  11.394  0.00  0.00    +0.000 NA
ATOM     31  C   UNL     1      43.152   6.195  11.387  0.00  0.00    +0.000 A 
ATOM     32  N   UNL     1      43.013   5.039  12.108  0.00  0.00    +0.000 N 
ATOM     33  C   UNL     1      44.015   4.524  12.899  0.00  0.00    +0.000 A 
ATOM     34  O   UNL     1      43.888   3.440  13.464  0.00  0.00    +0.000 OA
ATOM     35  C   UNL     1      45.208   5.346  12.966  0.00  0.00    +0.000 A 
ATOM     36  H   UNL     1      42.165   4.492  12.045  0.00  0.00    +0.000 HD
ENDBRANCH  23  26
ENDBRANCH  21  22
ENDBRANCH   4  21
TORSDOF 9
ENDMDL
MODEL 7
REMARK VINA RESULT:    -6.881      3.508      8.770
REMARK INTER + INTRA:         -11.426
REMARK INTER:                  -9.578
REMARK INTRA:                  -1.848
REMARK UNBOUND:                -1.126
REMARK  Name = 
REMARK  9 active torsions:
REMARK  status: ('A' for Active; 'I' for Inactive)
REMARK    1  A    between atoms: N_1  and  C_2
REMARK    2  A    between atoms: C_2  and  C_3
REMARK    3  A    between atoms: C_3  and  N_4
REMARK    4  A    between atoms: C_3  and  C_12
REMARK    5  A    between atoms: N_4  and  C_5
REMARK    6  A    between atoms: C_5  and  C_6
REMARK    7  A    between atoms: C_15  and  C_16
REMARK    8  A    between atoms: C_16  and  N_17
REMARK    9  A    between atoms: C_18  and  C_20
REMARK                            x       y       z     vdW  Elec       q    Type
REMARK                         _______ _______ _______ _____ _____    ______ ____
ROOT
ATOM      1  C   UNL     1      48.868   7.874  16.481  0.00  0.00    +0.000 A 
ATOM      2  C   UNL     1      48.411   9.056  15.864  0.00  0.00    +0.000 A 
ATOM      3  C   UNL     1      48.256   9.136  14.478  0.00  0.00    +0.000 A 
ATOM      4  C   UNL     1      48.482   8.011  13.683  0.00  0.00    +0.000 A 
ATOM      5  C   UNL     1      48.881   6.819  14.298  0.00  0.00    +0.000 A 
ATOM      6  C   UNL     1      49.098   6.755  15.672  0.00  0.00    +0.000 A 
ENDROOT
BRANCH   1   7
ATOM      7  C   UNL     1      49.208   7.884  17.972  0.00  0.00    +0.000 C 
BRANCH   7   8
ATOM      8  N   UNL     1      48.054   7.483  18.808  0.00  0.00    +0.000 NA
ATOM      9  H   UNL     1      47.231   7.384  18.219  0.00  0.00    +0.000 HD
BRANCH   8  10
ATOM     10  C   UNL     1      48.267   6.245  19.554  0.00  0.00    +0.000 C 
BRANCH  10  11
ATOM     11  C   UNL     1      48.300   5.032  18.658  0.00  0.00    +0.000 A 
ATOM     12  C   UNL     1      47.165   4.669  17.916  0.00  0.00    +0.000 A 
ATOM     13  C   UNL     1      47.201   3.564  17.063  0.00  0.00    +0.000 A 
ATOM     14  C   UNL     1      48.369   2.818  16.944  0.00  0.00    +0.000 A 
ATOM     15  C   UNL     1      49.504   3.173  17.670  0.00  0.00    +0.000 A 
ATOM     16  C   UNL     1      49.472   4.278  18.524  0.00  0.00    +0.000 A 
ENDBRANCH  10  11
ENDBRANCH   8  10
ENDBRANCH   7   8
BRANCH   7  17
ATOM     17  C   UNL     1      49.764   9.280  18.429  0.00  0.00    +0.000 C 
BRANCH  17  18
ATOM     18  N   UNL     1      50.002   9.428  19.871  0.00  0.00    +0.000 NA
ATOM     19  H   UNL     1      50.342   8.544  20.246  0.00  0.00    +0.000 HD
ATOM     20  H   UNL     1      49.126   9.637  20.342  0.00  0.00    +0.000 HD
ENDBRANCH  17  18
ENDBRANCH   7  17
ENDBRANCH   1   7
BRANCH   4  21
ATOM     21  C   UNL     1      48.363   8.073  12.184  0.00  0.00    +0.000 C 
BRANCH  21  22
ATOM     22  N   UNL     1      47.647   6.943  11.640  0.00  0.00    +0.000 N 
ATOM     23  C   UNL     1      46.278   6.908  11.557  0.00  0.00    +0.000 C 
ATOM     24  O   UNL     1      45.572   7.824  11.970  0.00  0.00    +0.000 OA
ATOM     25  H   UNL     1      48.195   6.133  11.371  0.00  0.00    +0.000 HD
BRANCH  23  26
ATOM     26  C   UNL     1      45.675   5.751  10.885  0.00  0.00    +0.000 A 
ATOM     27  C   UNL     1      45.870   5.596   9.519  0.00  0.00    +0.000 A 
ATOM     28  S   UNL     1      45.152   4.193   8.874  0.00  0.00    +0.000 S 
ATOM     29  C   UNL     1      44.511   3.762  10.390  0.00  0.00    +0.000 A 
ATOM     30  N   UNL     1      43.751   2.649  10.528  0.00  0.00    +0.000 NA
ATOM     31  C   UNL     1      43.307   2.449  11.724  0.00  0.00    +0.000 A 
ATOM     32  N   UNL     1      43.565   3.262  12.795  0.00  0.00    +0.000 N 
ATOM     33  C   UNL     1      44.370   4.375  12.715  0.00  0.00    +0.000 A 
ATOM     34  O   UNL     1      44.650   5.034  13.714  0.00  0.00    +0.000 OA
ATOM     35  C   UNL     1      44.866   4.662  11.382  0.00  0.00    +0.000 A 
ATOM     36  H   UNL     1      43.197   3.039  13.711  0.00  0.00    +0.000 HD
ENDBRANCH  23  26
ENDBRANCH  21  22
ENDBRANCH   4  21
TORSDOF 9
ENDMDL
MODEL 8
REMARK VINA RESULT:    -6.602      3.484      9.199
REMARK INTER + INTRA:         -11.008
REMARK INTER:                  -9.270
REMARK INTRA:                  -1.738
REMARK UNBOUND:                -1.126
REMARK  Name = 
REMARK  9 active torsions:
REMARK  status: ('A' for Active; 'I' for Inactive)
REMARK    1  A    between atoms: N_1  and  C_2
REMARK    2  A    between atoms: C_2  and  C_3
REMARK    3  A    between atoms: C_3  and  N_4
REMARK    4  A    between atoms: C_3  and  C_12
REMARK    5  A    between atoms: N_4  and  C_5
REMARK    6  A    between atoms: C_5  and  C_6
REMARK    7  A    between atoms: C_15  and  C_16
REMARK    8  A    between atoms: C_16  and  N_17
REMARK    9  A    between atoms: C_18  and  C_20
REMARK                            x       y       z     vdW  Elec       q    Type
REMARK                         _______ _______ _______ _____ _____    ______ ____
ROOT
ATOM      1  C   UNL     1      49.600   8.208  15.917  0.00  0.00    +0.000 A 
ATOM      2  C   UNL     1      48.339   8.782  15.661  0.00  0.00    +0.000 A 
ATOM      3  C   UNL     1      47.730   8.662  14.410  0.00  0.00    +0.000 A 
ATOM      4  C   UNL     1      48.333   7.901  13.407  0.00  0.00    +0.000 A 
ATOM      5  C   UNL     1      49.559   7.282  13.676  0.00  0.00    +0.000 A 
ATOM      6  C   UNL     1      50.199   7.454  14.901  0.00  0.00    +0.000 A 
ENDROOT
BRANCH   1   7
ATOM      7  C   UNL     1      50.319   8.521  17.229  0.00  0.00    +0.000 C 
BRANCH   7   8
ATOM      8  N   UNL     1      49.888   7.627  18.327  0.00  0.00    +0.000 NA
ATOM      9  H   UNL     1      48.878   7.508  18.286  0.00  0.00    +0.000 HD
BRANCH   8  10
ATOM     10  C   UNL     1      50.531   6.315  18.307  0.00  0.00    +0.000 C 
BRANCH  10  11
ATOM     11  C   UNL     1      49.586   5.218  17.879  0.00  0.00    +0.000 A 
ATOM     12  C   UNL     1      50.070   3.923  17.637  0.00  0.00    +0.000 A 
ATOM     13  C   UNL     1      49.195   2.899  17.269  0.00  0.00    +0.000 A 
ATOM     14  C   UNL     1      47.834   3.160  17.146  0.00  0.00    +0.000 A 
ATOM     15  C   UNL     1      47.342   4.441  17.391  0.00  0.00    +0.000 A 
ATOM     16  C   UNL     1      48.214   5.468  17.759  0.00  0.00    +0.000 A 
ENDBRANCH  10  11
ENDBRANCH   8  10
ENDBRANCH   7   8
BRANCH   7  17
ATOM     17  C   UNL     1      50.142  10.028  17.641  0.00  0.00    +0.000 C 
BRANCH  17  18
ATOM     18  N   UNL     1      50.630  10.382  18.980  0.00  0.00    +0.000 NA
ATOM     19  H   UNL     1      50.094   9.868  19.678  0.00  0.00    +0.000 HD
ATOM     20  H   UNL     1      50.471  11.372  19.151  0.00  0.00    +0.000 HD
ENDBRANCH  17  18
ENDBRANCH   7  17
ENDBRANCH   1   7
BRANCH   4  21
ATOM     21  C   UNL     1      47.724   7.785  12.036  0.00  0.00    +0.000 C 
BRANCH  21  22
ATOM     22  N   UNL     1      47.011   6.543  11.853  0.00  0.00    +0.000 N 
ATOM     23  C   UNL     1      45.649   6.448  11.987  0.00  0.00    +0.000 C 
ATOM     24  O   UNL     1      44.952   7.409  12.305  0.00  0.00    +0.000 OA
ATOM     25  H   UNL     1      47.564   5.711  11.678  0.00  0.00    +0.000 HD
BRANCH  23  26
ATOM     26  C   UNL     1      45.029   5.156  11.670  0.00  0.00    +0.000 A 
ATOM     27  C   UNL     1      44.310   4.500  12.659  0.00  0.00    +0.000 A 
ATOM     28  S   UNL     1      43.610   3.034  12.146  0.00  0.00    +0.000 S 
ATOM     29  C   UNL     1      44.283   3.197  10.593  0.00  0.00    +0.000 A 
ATOM     30  N   UNL     1      44.085   2.244   9.650  0.00  0.00    +0.000 NA
ATOM     31  C   UNL     1      44.670   2.477   8.522  0.00  0.00    +0.000 A 
ATOM     32  N   UNL     1      45.428   3.585   8.254  0.00  0.00    +0.000 N 
ATOM     33  C   UNL     1      45.617   4.602   9.161  0.00  0.00    +0.000 A 
ATOM     34  O   UNL     1      46.232   5.622   8.858  0.00  0.00    +0.000 OA
ATOM     35  C   UNL     1      45.007   4.371  10.457  0.00  0.00    +0.000 A 
ATOM     36  H   UNL     1      45.847   3.713   7.342  0.00  0.00    +0.000 HD
ENDBRANCH  23  26
ENDBRANCH  21  22
ENDBRANCH   4  21
TORSDOF 9
ENDMDL
MODEL 9
REMARK VINA RESULT:    -6.551      2.032      2.718
REMARK INTER + INTRA:         -10.933
REMARK INTER:                  -9.995
REMARK INTRA:                  -0.938
REMARK UNBOUND:                -1.126
REMARK  Name = 
REMARK  9 active torsions:
REMARK  status: ('A' for Active; 'I' for Inactive)
REMARK    1  A    between atoms: N_1  and  C_2
REMARK    2  A    between atoms: C_2  and  C_3
REMARK    3  A    between atoms: C_3  and  N_4
REMARK    4  A    between atoms: C_3  and  C_12
REMARK    5  A    between atoms: N_4  and  C_5
REMARK    6  A    between atoms: C_5  and  C_6
REMARK    7  A    between atoms: C_15  and  C_16
REMARK    8  A    between atoms: C_16  and  N_17
REMARK    9  A    between atoms: C_18  and  C_20
REMARK                            x       y       z     vdW  Elec       q    Type
REMARK                         _______ _______ _______ _____ _____    ______ ____
ROOT
ATOM      1  C   UNL     1      45.551   6.115  11.982  0.00  0.00    +0.000 A 
ATOM      2  C   UNL     1      46.519   5.278  12.571  0.00  0.00    +0.000 A 
ATOM      3  C   UNL     1      47.724   5.793  13.055  0.00  0.00    +0.000 A 
ATOM      4  C   UNL     1      47.957   7.169  13.030  0.00  0.00    +0.000 A 
ATOM      5  C   UNL     1      46.973   8.010  12.497  0.00  0.00    +0.000 A 
ATOM      6  C   UNL     1      45.799   7.492  11.955  0.00  0.00    +0.000 A 
ENDROOT
BRANCH   1   7
ATOM      7  C   UNL     1      44.335   5.494  11.293  0.00  0.00    +0.000 C 
BRANCH   7   8
ATOM      8  N   UNL     1      44.626   5.106   9.896  0.00  0.00    +0.000 NA
ATOM      9  H   UNL     1      45.604   5.297   9.690  0.00  0.00    +0.000 HD
BRANCH   8  10
ATOM     10  C   UNL     1      44.335   3.705   9.599  0.00  0.00    +0.000 C 
BRANCH  10  11
ATOM     11  C   UNL     1      45.366   3.083   8.689  0.00  0.00    +0.000 A 
ATOM     12  C   UNL     1      45.571   1.694   8.698  0.00  0.00    +0.000 A 
ATOM     13  C   UNL     1      46.504   1.112   7.838  0.00  0.00    +0.000 A 
ATOM     14  C   UNL     1      47.232   1.910   6.962  0.00  0.00    +0.000 A 
ATOM     15  C   UNL     1      47.031   3.289   6.940  0.00  0.00    +0.000 A 
ATOM     16  C   UNL     1      46.100   3.875   7.799  0.00  0.00    +0.000 A 
ENDBRANCH  10  11
ENDBRANCH   8  10
ENDBRANCH   7   8
BRANCH   7  17
ATOM     17  C   UNL     1      43.086   6.447  11.354  0.00  0.00    +0.000 C 
BRANCH  17  18
ATOM     18  N   UNL     1      41.849   5.841  11.862  0.00  0.00    +0.000 NA
ATOM     19  H   UNL     1      41.378   6.506  12.474  0.00  0.00    +0.000 HD
ATOM     20  H   UNL     1      42.074   5.024  12.425  0.00  0.00    +0.000 HD
ENDBRANCH  17  18
ENDBRANCH   7  17
ENDBRANCH   1   7
BRANCH   4  21
ATOM     21  C   UNL     1      49.260   7.754  13.505  0.00  0.00    +0.000 C 
BRANCH  21  22
ATOM     22  N   UNL     1      49.703   7.171  14.750  0.00  0.00    +0.000 N 
ATOM     23  C   UNL     1      49.170   7.529  15.963  0.00  0.00    +0.000 C 
ATOM     24  O   UNL     1      48.304   8.394  16.070  0.00  0.00    +0.000 OA
ATOM     25  H   UNL     1      50.478   6.518  14.707  0.00  0.00    +0.000 HD
BRANCH  23  26
ATOM     26  C   UNL     1      49.627   6.787  17.143  0.00  0.00    +0.000 A 
ATOM     27  C   UNL     1      49.499   5.404  17.153  0.00  0.00    +0.000 A 
ATOM     28  S   UNL     1      50.105   4.665  18.563  0.00  0.00    +0.000 S 
ATOM     29  C   UNL     1      50.520   6.170  19.236  0.00  0.00    +0.000 A 
ATOM     30  N   UNL     1      51.071   6.248  20.472  0.00  0.00    +0.000 NA
ATOM     31  C   UNL     1      51.315   7.449  20.875  0.00  0.00    +0.000 A 
ATOM     32  N   UNL     1      51.064   8.581  20.146  0.00  0.00    +0.000 N 
ATOM     33  C   UNL     1      50.551   8.551  18.869  0.00  0.00    +0.000 A 
ATOM     34  O   UNL     1      50.418   9.580  18.210  0.00  0.00    +0.000 OA
ATOM     35  C   UNL     1      50.228   7.223  18.383  0.00  0.00    +0.000 A 
ATOM     36  H   UNL     1      51.294   9.493  20.517  0.00  0.00    +0.000 HD
ENDBRANCH  23  26
ENDBRANCH  21  22
ENDBRANCH   4  21
TORSDOF 9
ENDMDL
