MODEL 1
REMARK VINA RESULT:    -7.858      0.000      0.000
REMARK INTER + INTRA:         -11.181
REMARK INTER:                 -10.614
REMARK INTRA:                  -0.567
REMARK UNBOUND:                -0.567
REMARK  Name = 
REMARK  7 active torsions:
REMARK  status: ('A' for Active; 'I' for Inactive)
REMARK    1  A    between atoms: C_1  and  C_2
REMARK    2  A    between atoms: C_2  and  N_3
REMARK    3  A    between atoms: C_2  and  C_10
REMARK    4  A    between atoms: C_13  and  C_14
REMARK    5  A    between atoms: C_14  and  N_15
REMARK    6  A    between atoms: N_15  and  C_16
REMARK    7  A    between atoms: C_16  and  C_17
REMARK                            x       y       z     vdW  Elec       q    Type
REMARK                         _______ _______ _______ _____ _____    ______ ____
ROOT
ATOM      1  C   UNL     1      44.905   4.660  12.000  0.00  0.00    +0.000 A 
ATOM      2  C   UNL     1      45.358   5.947  12.292  0.00  0.00    +0.000 A 
ATOM      3  C   UNL     1      46.346   6.116  13.257  0.00  0.00    +0.000 A 
ATOM      4  C   UNL     1      46.844   5.009  13.944  0.00  0.00    +0.000 A 
ATOM      5  C   UNL     1      46.341   3.764  13.588  0.00  0.00    +0.000 A 
ATOM      6  N   UNL     1      45.397   3.566  12.639  0.00  0.00    +0.000 NA
ENDROOT
BRANCH   1   8
ATOM      7  C   UNL     1      42.623   5.393  11.426  0.00  0.00    +0.000 C 
ATOM      8  C   UNL     1      43.741   4.421  11.031  0.00  0.00    +0.000 C 
BRANCH   8   9
ATOM      9  N   UNL     1      44.143   4.641   9.642  0.00  0.00    +0.000 N 
ATOM     10  C   UNL     1      45.003   3.806   8.964  0.00  0.00    +0.000 A 
ATOM     11  C   UNL     1      45.137   2.430   9.152  0.00  0.00    +0.000 A 
ATOM     12  N   UNL     1      45.950   1.637   8.407  0.00  0.00    +0.000 NA
ATOM     13  C   UNL     1      46.630   2.273   7.433  0.00  0.00    +0.000 A 
ATOM     14  C   UNL     1      46.507   3.633   7.226  0.00  0.00    +0.000 A 
ATOM     15  N   UNL     1      45.705   4.417   7.984  0.00  0.00    +0.000 NA
ATOM     16  H   UNL     1      44.454   5.585   9.420  0.00  0.00    +0.000 HD
ENDBRANCH   8   9
ENDBRANCH   1   8
BRANCH   4  17
ATOM     17  C   UNL     1      47.870   5.161  15.034  0.00  0.00    +0.000 C 
BRANCH  17  18
ATOM     18  N   UNL     1      47.235   5.086  16.349  0.00  0.00    +0.000 NA
ATOM     19  H   UNL     1      46.261   5.377  16.269  0.00  0.00    +0.000 HD
BRANCH  18  20
ATOM     20  C   UNL     1      47.291   3.736  16.904  0.00  0.00    +0.000 C 
BRANCH  20  21
ATOM     21  C   UNL     1      48.719   3.296  17.093  0.00  0.00    +0.000 A 
ATOM     22  C   UNL     1      49.631   4.068  17.821  0.00  0.00    +0.000 A 
ATOM     23  C   UNL     1      50.940   3.624  17.983  0.00  0.00    +0.000 A 
ATOM     24  C   UNL     1      51.299   2.418  17.405  0.00  0.00    +0.000 A 
ATOM     25  N   UNL     1      50.451   1.648  16.688  0.00  0.00    +0.000 NA
ATOM     26  C   UNL     1      49.186   2.104  16.550  0.00  0.00    +0.000 A 
ENDBRANCH  20  21
ENDBRANCH  18  20
ENDBRANCH  17  18
ENDBRANCH   4  17
TORSDOF 6
ENDMDL
MODEL 2
REMARK VINA RESULT:    -7.796      1.487      2.052
REMARK INTER + INTRA:         -11.097
REMARK INTER:                 -10.280
REMARK INTRA:                  -0.818
REMARK UNBOUND:                -0.567
REMARK  Name = 
REMARK  7 active torsions:
REMARK  status: ('A' for Active; 'I' for Inactive)
REMARK    1  A    between atoms: C_1  and  C_2
REMARK    2  A    between atoms: C_2  and  N_3
REMARK    3  A    between atoms: C_2  and  C_10
REMARK    4  A    between atoms: C_13  and  C_14
REMARK    5  A    between atoms: C_14  and  N_15
REMARK    6  A    between atoms: N_15  and  C_16
REMARK    7  A    between atoms: C_16  and  C_17
REMARK                            x       y       z     vdW  Elec       q    Type
REMARK                         _______ _______ _______ _____ _____    ______ ____
ROOT
ATOM      1  C   UNL     1      44.832   5.301  12.042  0.00  0.00    +0.000 A 
ATOM      2  C   UNL     1      45.848   4.515  12.588  0.00  0.00    +0.000 A 
ATOM      3  C   UNL     1      46.905   5.134  13.249  0.00  0.00    +0.000 A 
ATOM      4  C   UNL     1      46.956   6.526  13.327  0.00  0.00    +0.000 A 
ATOM      5  C   UNL     1      45.902   7.231  12.761  0.00  0.00    +0.000 A 
ATOM      6  N   UNL     1      44.851   6.656  12.131  0.00  0.00    +0.000 NA
ENDROOT
BRANCH   1   8
ATOM      7  C   UNL     1      42.428   5.468  11.529  0.00  0.00    +0.000 C 
ATOM      8  C   UNL     1      43.705   4.684  11.206  0.00  0.00    +0.000 C 
BRANCH   8   9
ATOM      9  N   UNL     1      43.998   4.749   9.775  0.00  0.00    +0.000 N 
ATOM     10  C   UNL     1      44.831   3.859   9.134  0.00  0.00    +0.000 A 
ATOM     11  C   UNL     1      45.020   2.517   9.468  0.00  0.00    +0.000 A 
ATOM     12  N   UNL     1      45.801   1.660   8.760  0.00  0.00    +0.000 NA
ATOM     13  C   UNL     1      46.388   2.193   7.671  0.00  0.00    +0.000 A 
ATOM     14  C   UNL     1      46.209   3.516   7.319  0.00  0.00    +0.000 A 
ATOM     15  N   UNL     1      45.442   4.366   8.041  0.00  0.00    +0.000 NA
ATOM     16  H   UNL     1      44.264   5.667   9.423  0.00  0.00    +0.000 HD
ENDBRANCH   8   9
ENDBRANCH   1   8
BRANCH   4  17
ATOM     17  C   UNL     1      48.113   7.230  13.982  0.00  0.00    +0.000 C 
BRANCH  17  18
ATOM     18  N   UNL     1      48.975   6.271  14.669  0.00  0.00    +0.000 NA
ATOM     19  H   UNL     1      49.943   6.428  14.389  0.00  0.00    +0.000 HD
BRANCH  18  20
ATOM     20  C   UNL     1      48.870   6.387  16.121  0.00  0.00    +0.000 C 
BRANCH  20  21
ATOM     21  C   UNL     1      48.482   5.068  16.736  0.00  0.00    +0.000 A 
ATOM     22  C   UNL     1      49.401   4.300  17.459  0.00  0.00    +0.000 A 
ATOM     23  C   UNL     1      49.003   3.091  18.020  0.00  0.00    +0.000 A 
ATOM     24  C   UNL     1      47.693   2.682  17.836  0.00  0.00    +0.000 A 
ATOM     25  N   UNL     1      46.779   3.389  17.136  0.00  0.00    +0.000 NA
ATOM     26  C   UNL     1      47.194   4.561  16.605  0.00  0.00    +0.000 A 
ENDBRANCH  20  21
ENDBRANCH  18  20
ENDBRANCH  17  18
ENDBRANCH   4  17
TORSDOF 6
ENDMDL
MODEL 3
REMARK VINA RESULT:    -7.621      2.365      7.982
REMARK INTER + INTRA:         -10.861
REMARK INTER:                  -9.927
REMARK INTRA:                  -0.934
REMARK UNBOUND:                -0.567
REMARK  Name = 
REMARK  7 active torsions:
REMARK  status: ('A' for Active; 'I' for Inactive)
REMARK    1  A    between atoms: C_1  and  C_2
REMARK    2  A    between atoms: C_2  and  N_3
REMARK    3  A    between atoms: C_2  and  C_10
REMARK    4  A    between atoms: C_13  and  C_14
REMARK    5  A    between atoms: C_14  and  N_15
REMARK    6  A    between atoms: N_15  and  C_16
REMARK    7  A    between atoms: C_16  and  C_17
REMARK                            x       y       z     vdW  Elec       q    Type
REMARK                         _______ _______ _______ _____ _____    ______ ____
ROOT
ATOM      1  C   UNL     1      46.399   6.292  12.472  0.00  0.00    +0.000 A 
ATOM      2  C   UNL     1      46.144   6.288  11.100  0.00  0.00    +0.000 A 
ATOM      3  C   UNL     1      45.257   5.352  10.577  0.00  0.00    +0.000 A 
ATOM      4  C   UNL     1      44.663   4.410  11.418  0.00  0.00    +0.000 A 
ATOM      5  C   UNL     1      44.969   4.489  12.771  0.00  0.00    +0.000 A 
ATOM      6  N   UNL     1      45.810   5.401  13.312  0.00  0.00    +0.000 NA
ENDROOT
BRANCH   1   8
ATOM      7  C   UNL     1      46.921   8.654  12.943  0.00  0.00    +0.000 C 
ATOM      8  C   UNL     1      47.450   7.223  13.088  0.00  0.00    +0.000 C 
BRANCH   8   9
ATOM      9  N   UNL     1      47.692   6.906  14.494  0.00  0.00    +0.000 N 
ATOM     10  C   UNL     1      48.952   6.837  15.046  0.00  0.00    +0.000 A 
ATOM     11  C   UNL     1      50.065   7.586  14.661  0.00  0.00    +0.000 A 
ATOM     12  N   UNL     1      51.270   7.532  15.286  0.00  0.00    +0.000 NA
ATOM     13  C   UNL     1      51.327   6.699  16.343  0.00  0.00    +0.000 A 
ATOM     14  C   UNL     1      50.236   5.954  16.745  0.00  0.00    +0.000 A 
ATOM     15  N   UNL     1      49.044   6.003  16.106  0.00  0.00    +0.000 NA
ATOM     16  H   UNL     1      47.197   6.091  14.851  0.00  0.00    +0.000 HD
ENDBRANCH   8   9
ENDBRANCH   1   8
BRANCH   4  17
ATOM     17  C   UNL     1      43.746   3.348  10.878  0.00  0.00    +0.000 C 
BRANCH  17  18
ATOM     18  N   UNL     1      43.981   3.144   9.450  0.00  0.00    +0.000 NA
ATOM     19  H   UNL     1      44.525   3.925   9.084  0.00  0.00    +0.000 HD
BRANCH  18  20
ATOM     20  C   UNL     1      44.694   1.897   9.189  0.00  0.00    +0.000 C 
BRANCH  20  21
ATOM     21  C   UNL     1      45.821   2.120   8.215  0.00  0.00    +0.000 A 
ATOM     22  C   UNL     1      46.031   3.366   7.614  0.00  0.00    +0.000 A 
ATOM     23  C   UNL     1      47.089   3.537   6.726  0.00  0.00    +0.000 A 
ATOM     24  C   UNL     1      47.905   2.451   6.463  0.00  0.00    +0.000 A 
ATOM     25  N   UNL     1      47.731   1.230   7.015  0.00  0.00    +0.000 NA
ATOM     26  C   UNL     1      46.696   1.095   7.875  0.00  0.00    +0.000 A 
ENDBRANCH  20  21
ENDBRANCH  18  20
ENDBRANCH  17  18
ENDBRANCH   4  17
TORSDOF 6
ENDMDL
MODEL 4
REMARK VINA RESULT:    -7.368      1.620      8.319
REMARK INTER + INTRA:         -10.519
REMARK INTER:                 -10.007
REMARK INTRA:                  -0.512
REMARK UNBOUND:                -0.567
REMARK  Name = 
REMARK  7 active torsions:
REMARK  status: ('A' for Active; 'I' for Inactive)
REMARK    1  A    between atoms: C_1  and  C_2
REMARK    2  A    between atoms: C_2  and  N_3
REMARK    3  A    between atoms: C_2  and  C_10
REMARK    4  A    between atoms: C_13  and  C_14
REMARK    5  A    between atoms: C_14  and  N_15
REMARK    6  A    between atoms: N_15  and  C_16
REMARK    7  A    between atoms: C_16  and  C_17
REMARK                            x       y       z     vdW  Elec       q    Type
REMARK                         _______ _______ _______ _____ _____    ______ ____
ROOT
ATOM      1  C   UNL     1      46.546   5.326  13.292  0.00  0.00    +0.000 A 
ATOM      2  C   UNL     1      46.427   6.155  12.176  0.00  0.00    +0.000 A 
ATOM      3  C   UNL     1      45.431   5.894  11.239  0.00  0.00    +0.000 A 
ATOM      4  C   UNL     1      44.591   4.792  11.405  0.00  0.00    +0.000 A 
ATOM      5  C   UNL     1      44.776   4.022  12.546  0.00  0.00    +0.000 A 
ATOM      6  N   UNL     1      45.720   4.264  13.485  0.00  0.00    +0.000 NA
ENDROOT
BRANCH   1   8
ATOM      7  C   UNL     1      48.178   6.944  14.180  0.00  0.00    +0.000 C 
ATOM      8  C   UNL     1      47.691   5.495  14.296  0.00  0.00    +0.000 C 
BRANCH   8   9
ATOM      9  N   UNL     1      47.257   5.209  15.662  0.00  0.00    +0.000 N 
ATOM     10  C   UNL     1      48.130   4.909  16.685  0.00  0.00    +0.000 A 
ATOM     11  C   UNL     1      49.432   5.390  16.827  0.00  0.00    +0.000 A 
ATOM     12  N   UNL     1      50.230   5.121  17.893  0.00  0.00    +0.000 NA
ATOM     13  C   UNL     1      49.668   4.351  18.845  0.00  0.00    +0.000 A 
ATOM     14  C   UNL     1      48.379   3.870  18.727  0.00  0.00    +0.000 A 
ATOM     15  N   UNL     1      47.597   4.131  17.653  0.00  0.00    +0.000 NA
ATOM     16  H   UNL     1      46.500   4.534  15.750  0.00  0.00    +0.000 HD
ENDBRANCH   8   9
ENDBRANCH   1   8
BRANCH   4  17
ATOM     17  C   UNL     1      43.544   4.446  10.383  0.00  0.00    +0.000 C 
BRANCH  17  18
ATOM     18  N   UNL     1      44.169   4.032   9.128  0.00  0.00    +0.000 NA
ATOM     19  H   UNL     1      44.953   4.651   8.923  0.00  0.00    +0.000 HD
BRANCH  18  20
ATOM     20  C   UNL     1      44.645   2.653   9.186  0.00  0.00    +0.000 C 
BRANCH  20  21
ATOM     21  C   UNL     1      45.683   2.402   8.124  0.00  0.00    +0.000 A 
ATOM     22  C   UNL     1      45.996   3.370   7.164  0.00  0.00    +0.000 A 
ATOM     23  C   UNL     1      46.968   3.105   6.204  0.00  0.00    +0.000 A 
ATOM     24  C   UNL     1      47.596   1.872   6.231  0.00  0.00    +0.000 A 
ATOM     25  N   UNL     1      47.316   0.907   7.134  0.00  0.00    +0.000 NA
ATOM     26  C   UNL     1      46.370   1.195   8.056  0.00  0.00    +0.000 A 
ENDBRANCH  20  21
ENDBRANCH  18  20
ENDBRANCH  17  18
ENDBRANCH   4  17
TORSDOF 6
ENDMDL
MODEL 5
REMARK VINA RESULT:    -7.039      2.885      4.700
REMARK INTER + INTRA:         -10.075
REMARK INTER:                  -9.150
REMARK INTRA:                  -0.926
REMARK UNBOUND:                -0.567
REMARK  Name = 
REMARK  7 active torsions:
REMARK  status: ('A' for Active; 'I' for Inactive)
REMARK    1  A    between atoms: C_1  and  C_2
REMARK    2  A    between atoms: C_2  and  N_3
REMARK    3  A    between atoms: C_2  and  C_10
REMARK    4  A    between atoms: C_13  and  C_14
REMARK    5  A    between atoms: C_14  and  N_15
REMARK    6  A    between atoms: N_15  and  C_16
REMARK    7  A    between atoms: C_16  and  C_17
REMARK                            x       y       z     vdW  Elec       q    Type
REMARK                         _______ _______ _______ _____ _____    ______ ____
ROOT
ATOM      1  C   UNL     1      45.000   4.780  11.862  0.00  0.00    +0.000 A 
ATOM      2  C   UNL     1      45.717   5.951  11.610  0.00  0.00    +0.000 A 
ATOM      3  C   UNL     1      46.734   6.326  12.483  0.00  0.00    +0.000 A 
ATOM      4  C   UNL     1      47.001   5.553  13.614  0.00  0.00    +0.000 A 
ATOM      5  C   UNL     1      46.243   4.403  13.787  0.00  0.00    +0.000 A 
ATOM      6  N   UNL     1      45.263   4.000  12.944  0.00  0.00    +0.000 NA
ENDROOT
BRANCH   1   8
ATOM      7  C   UNL     1      42.640   5.306  11.387  0.00  0.00    +0.000 C 
ATOM      8  C   UNL     1      43.797   4.377  11.002  0.00  0.00    +0.000 C 
BRANCH   8   9
ATOM      9  N   UNL     1      44.093   4.492   9.575  0.00  0.00    +0.000 N 
ATOM     10  C   UNL     1      44.967   3.655   8.916  0.00  0.00    +0.000 A 
ATOM     11  C   UNL     1      45.212   2.315   9.216  0.00  0.00    +0.000 A 
ATOM     12  N   UNL     1      46.031   1.511   8.490  0.00  0.00    +0.000 NA
ATOM     13  C   UNL     1      46.600   2.097   7.418  0.00  0.00    +0.000 A 
ATOM     14  C   UNL     1      46.366   3.420   7.099  0.00  0.00    +0.000 A 
ATOM     15  N   UNL     1      45.559   4.217   7.839  0.00  0.00    +0.000 NA
ATOM     16  H   UNL     1      44.321   5.429   9.248  0.00  0.00    +0.000 HD
ENDBRANCH   8   9
ENDBRANCH   1   8
BRANCH   4  17
ATOM     17  C   UNL     1      48.052   5.961  14.609  0.00  0.00    +0.000 C 
BRANCH  17  18
ATOM     18  N   UNL     1      49.129   6.694  13.947  0.00  0.00    +0.000 NA
ATOM     19  H   UNL     1      48.995   6.649  12.937  0.00  0.00    +0.000 HD
BRANCH  18  20
ATOM     20  C   UNL     1      49.172   8.092  14.365  0.00  0.00    +0.000 C 
BRANCH  20  21
ATOM     21  C   UNL     1      49.100   9.008  13.172  0.00  0.00    +0.000 A 
ATOM     22  C   UNL     1      47.957   9.768  12.901  0.00  0.00    +0.000 A 
ATOM     23  C   UNL     1      47.931  10.611  11.794  0.00  0.00    +0.000 A 
ATOM     24  C   UNL     1      49.053  10.664  10.985  0.00  0.00    +0.000 A 
ATOM     25  N   UNL     1      50.172   9.941  11.206  0.00  0.00    +0.000 NA
ATOM     26  C   UNL     1      50.169   9.133  12.291  0.00  0.00    +0.000 A 
ENDBRANCH  20  21
ENDBRANCH  18  20
ENDBRANCH  17  18
ENDBRANCH   4  17
TORSDOF 6
ENDMDL
MODEL 6
REMARK VINA RESULT:    -6.521      3.707      8.068
REMARK INTER + INTRA:          -9.375
REMARK INTER:                  -8.468
REMARK INTRA:                  -0.907
REMARK UNBOUND:                -0.567
REMARK  Name = 
REMARK  7 active torsions:
REMARK  status: ('A' for Active; 'I' for Inactive)
REMARK    1  A    between atoms: C_1  and  C_2
REMARK    2  A    between atoms: C_2  and  N_3
REMARK    3  A    between atoms: C_2  and  C_10
REMARK    4  A    between atoms: C_13  and  C_14
REMARK    5  A    between atoms: C_14  and  N_15
REMARK    6  A    between atoms: N_15  and  C_16
REMARK    7  A    between atoms: C_16  and  C_17
REMARK                            x       y       z     vdW  Elec       q    Type
REMARK                         _______ _______ _______ _____ _____    ______ ____
ROOT
ATOM      1  C   UNL     1      46.937   6.710  12.649  0.00  0.00    +0.000 A 
ATOM      2  C   UNL     1      46.406   6.637  11.360  0.00  0.00    +0.000 A 
ATOM      3  C   UNL     1      45.610   5.548  11.015  0.00  0.00    +0.000 A 
ATOM      4  C   UNL     1      45.382   4.531  11.942  0.00  0.00    +0.000 A 
ATOM      5  C   UNL     1      45.946   4.685  13.202  0.00  0.00    +0.000 A 
ATOM      6  N   UNL     1      46.705   5.743  13.574  0.00  0.00    +0.000 NA
ENDROOT
BRANCH   1   8
ATOM      7  C   UNL     1      49.310   7.199  13.100  0.00  0.00    +0.000 C 
ATOM      8  C   UNL     1      47.911   7.824  13.051  0.00  0.00    +0.000 C 
BRANCH   8   9
ATOM      9  N   UNL     1      47.880   8.935  12.102  0.00  0.00    +0.000 N 
ATOM     10  C   UNL     1      47.982  10.255  12.482  0.00  0.00    +0.000 A 
ATOM     11  C   UNL     1      48.700  10.748  13.572  0.00  0.00    +0.000 A 
ATOM     12  N   UNL     1      48.828  12.068  13.864  0.00  0.00    +0.000 NA
ATOM     13  C   UNL     1      48.215  12.904  13.003  0.00  0.00    +0.000 A 
ATOM     14  C   UNL     1      47.505  12.437  11.914  0.00  0.00    +0.000 A 
ATOM     15  N   UNL     1      47.370  11.118  11.641  0.00  0.00    +0.000 NA
ATOM     16  H   UNL     1      47.123   8.909  11.421  0.00  0.00    +0.000 HD
ENDBRANCH   8   9
ENDBRANCH   1   8
BRANCH   4  17
ATOM     17  C   UNL     1      44.576   3.312  11.584  0.00  0.00    +0.000 C 
BRANCH  17  18
ATOM     18  N   UNL     1      44.114   3.392  10.200  0.00  0.00    +0.000 NA
ATOM     19  H   UNL     1      44.586   4.165   9.731  0.00  0.00    +0.000 HD
BRANCH  18  20
ATOM     20  C   UNL     1      44.374   2.155   9.468  0.00  0.00    +0.000 C 
BRANCH  20  21
ATOM     21  C   UNL     1      45.492   2.346   8.477  0.00  0.00    +0.000 A 
ATOM     22  C   UNL     1      45.768   3.599   7.919  0.00  0.00    +0.000 A 
ATOM     23  C   UNL     1      46.816   3.739   7.014  0.00  0.00    +0.000 A 
ATOM     24  C   UNL     1      47.556   2.615   6.690  0.00  0.00    +0.000 A 
ATOM     25  N   UNL     1      47.315   1.386   7.199  0.00  0.00    +0.000 NA
ATOM     26  C   UNL     1      46.293   1.282   8.077  0.00  0.00    +0.000 A 
ENDBRANCH  20  21
ENDBRANCH  18  20
ENDBRANCH  17  18
ENDBRANCH   4  17
TORSDOF 6
ENDMDL
MODEL 7
REMARK VINA RESULT:    -6.520      1.936      2.537
REMARK INTER + INTRA:          -9.374
REMARK INTER:                  -8.637
REMARK INTRA:                  -0.738
REMARK UNBOUND:                -0.567
REMARK  Name = 
REMARK  7 active torsions:
REMARK  status: ('A' for Active; 'I' for Inactive)
REMARK    1  A    between atoms: C_1  and  C_2
REMARK    2  A    between atoms: C_2  and  N_3
REMARK    3  A    between atoms: C_2  and  C_10
REMARK    4  A    between atoms: C_13  and  C_14
REMARK    5  A    between atoms: C_14  and  N_15
REMARK    6  A    between atoms: N_15  and  C_16
REMARK    7  A    between atoms: C_16  and  C_17
REMARK                            x       y       z     vdW  Elec       q    Type
REMARK                         _______ _______ _______ _____ _____    ______ ____
ROOT
ATOM      1  C   UNL     1      45.186   4.994  11.975  0.00  0.00    +0.000 A 
ATOM      2  C   UNL     1      45.659   6.304  11.880  0.00  0.00    +0.000 A 
ATOM      3  C   UNL     1      46.641   6.737  12.766  0.00  0.00    +0.000 A 
ATOM      4  C   UNL     1      47.115   5.875  13.755  0.00  0.00    +0.000 A 
ATOM      5  C   UNL     1      46.593   4.588  13.776  0.00  0.00    +0.000 A 
ATOM      6  N   UNL     1      45.654   4.131  12.914  0.00  0.00    +0.000 NA
ENDROOT
BRANCH   1   8
ATOM      7  C   UNL     1      42.801   5.344  11.463  0.00  0.00    +0.000 C 
ATOM      8  C   UNL     1      44.027   4.497  11.103  0.00  0.00    +0.000 C 
BRANCH   8   9
ATOM      9  N   UNL     1      44.333   4.619   9.679  0.00  0.00    +0.000 N 
ATOM     10  C   UNL     1      45.137   3.728   9.001  0.00  0.00    +0.000 A 
ATOM     11  C   UNL     1      45.272   2.366   9.272  0.00  0.00    +0.000 A 
ATOM     12  N   UNL     1      46.024   1.515   8.527  0.00  0.00    +0.000 NA
ATOM     13  C   UNL     1      46.640   2.075   7.468  0.00  0.00    +0.000 A 
ATOM     14  C   UNL     1      46.514   3.420   7.179  0.00  0.00    +0.000 A 
ATOM     15  N   UNL     1      45.774   4.264   7.936  0.00  0.00    +0.000 NA
ATOM     16  H   UNL     1      44.637   5.541   9.373  0.00  0.00    +0.000 HD
ENDBRANCH   8   9
ENDBRANCH   1   8
BRANCH   4  17
ATOM     17  C   UNL     1      48.133   6.328  14.766  0.00  0.00    +0.000 C 
BRANCH  17  18
ATOM     18  N   UNL     1      48.472   5.236  15.677  0.00  0.00    +0.000 NA
ATOM     19  H   UNL     1      49.456   4.993  15.560  0.00  0.00    +0.000 HD
BRANCH  18  20
ATOM     20  C   UNL     1      48.228   5.595  17.071  0.00  0.00    +0.000 C 
BRANCH  20  21
ATOM     21  C   UNL     1      49.360   6.426  17.614  0.00  0.00    +0.000 A 
ATOM     22  C   UNL     1      50.690   6.000  17.521  0.00  0.00    +0.000 A 
ATOM     23  C   UNL     1      51.710   6.800  18.025  0.00  0.00    +0.000 A 
ATOM     24  C   UNL     1      51.368   8.004  18.616  0.00  0.00    +0.000 A 
ATOM     25  N   UNL     1      50.097   8.447  18.735  0.00  0.00    +0.000 NA
ATOM     26  C   UNL     1      49.127   7.650  18.232  0.00  0.00    +0.000 A 
ENDBRANCH  20  21
ENDBRANCH  18  20
ENDBRANCH  17  18
ENDBRANCH   4  17
TORSDOF 6
ENDMDL
MODEL 8
REMARK VINA RESULT:    -6.478      3.038      8.354
REMARK INTER + INTRA:          -9.317
REMARK INTER:                  -8.553
REMARK INTRA:                  -0.764
REMARK UNBOUND:                -0.567
REMARK  Name = 
REMARK  7 active torsions:
REMARK  status: ('A' for Active; 'I' for Inactive)
REMARK    1  A    between atoms: C_1  and  C_2
REMARK    2  A    between atoms: C_2  and  N_3
REMARK    3  A    between atoms: C_2  and  C_10
REMARK    4  A    between atoms: C_13  and  C_14
REMARK    5  A    between atoms: C_14  and  N_15
REMARK    6  A    between atoms: N_15  and  C_16
REMARK    7  A    between atoms: C_16  and  C_17
REMARK                            x       y       z     vdW  Elec       q    Type
REMARK                         _______ _______ _______ _____ _____    ______ ____
ROOT
ATOM      1  C   UNL     1      47.166   5.998  13.458  0.00  0.00    +0.000 A 
ATOM      2  C   UNL     1      46.073   6.599  12.832  0.00  0.00    +0.000 A 
ATOM      3  C   UNL     1      45.030   5.800  12.371  0.00  0.00    +0.000 A 
ATOM      4  C   UNL     1      45.104   4.414  12.506  0.00  0.00    +0.000 A 
ATOM      5  C   UNL     1      46.224   3.899  13.145  0.00  0.00    +0.000 A 
ATOM      6  N   UNL     1      47.243   4.651  13.623  0.00  0.00    +0.000 NA
ENDROOT
BRANCH   1   8
ATOM      7  C   UNL     1      49.172   7.148  12.606  0.00  0.00    +0.000 C 
ATOM      8  C   UNL     1      48.393   6.812  13.883  0.00  0.00    +0.000 C 
BRANCH   8   9
ATOM      9  N   UNL     1      48.010   8.036  14.585  0.00  0.00    +0.000 N 
ATOM     10  C   UNL     1      48.677   8.510  15.694  0.00  0.00    +0.000 A 
ATOM     11  C   UNL     1      50.038   8.364  15.964  0.00  0.00    +0.000 A 
ATOM     12  N   UNL     1      50.663   8.912  17.038  0.00  0.00    +0.000 NA
ATOM     13  C   UNL     1      49.870   9.643  17.846  0.00  0.00    +0.000 A 
ATOM     14  C   UNL     1      48.522   9.805  17.594  0.00  0.00    +0.000 A 
ATOM     15  N   UNL     1      47.906   9.241  16.529  0.00  0.00    +0.000 NA
ATOM     16  H   UNL     1      47.021   8.121  14.810  0.00  0.00    +0.000 HD
ENDBRANCH   8   9
ENDBRANCH   1   8
BRANCH   4  17
ATOM     17  C   UNL     1      44.023   3.517  11.967  0.00  0.00    +0.000 C 
BRANCH  17  18
ATOM     18  N   UNL     1      43.947   3.623  10.511  0.00  0.00    +0.000 NA
ATOM     19  H   UNL     1      44.597   4.341  10.192  0.00  0.00    +0.000 HD
BRANCH  18  20
ATOM     20  C   UNL     1      44.269   2.358   9.857  0.00  0.00    +0.000 C 
BRANCH  20  21
ATOM     21  C   UNL     1      45.334   2.555   8.810  0.00  0.00    +0.000 A 
ATOM     22  C   UNL     1      45.602   3.817   8.269  0.00  0.00    +0.000 A 
ATOM     23  C   UNL     1      46.601   3.961   7.310  0.00  0.00    +0.000 A 
ATOM     24  C   UNL     1      47.299   2.832   6.916  0.00  0.00    +0.000 A 
ATOM     25  N   UNL     1      47.063   1.596   7.406  0.00  0.00    +0.000 NA
ATOM     26  C   UNL     1      46.090   1.487   8.338  0.00  0.00    +0.000 A 
ENDBRANCH  20  21
ENDBRANCH  18  20
ENDBRANCH  17  18
ENDBRANCH   4  17
TORSDOF 6
ENDMDL
MODEL 9
REMARK VINA RESULT:    -6.429      2.028      8.343
REMARK INTER + INTRA:          -9.251
REMARK INTER:                  -8.643
REMARK INTRA:                  -0.608
REMARK UNBOUND:                -0.567
REMARK  Name = 
REMARK  7 active torsions:
REMARK  status: ('A' for Active; 'I' for Inactive)
REMARK    1  A    between atoms: C_1  and  C_2
REMARK    2  A    between atoms: C_2  and  N_3
REMARK    3  A    between atoms: C_2  and  C_10
REMARK    4  A    between atoms: C_13  and  C_14
REMARK    5  A    between atoms: C_14  and  N_15
REMARK    6  A    between atoms: N_15  and  C_16
REMARK    7  A    between atoms: C_16  and  C_17
REMARK                            x       y       z     vdW  Elec       q    Type
REMARK                         _______ _______ _______ _____ _____    ______ ____
ROOT
ATOM      1  C   UNL     1      47.683   7.348  13.908  0.00  0.00    +0.000 A 
ATOM      2  C   UNL     1      47.650   6.003  13.535  0.00  0.00    +0.000 A 
ATOM      3  C   UNL     1      46.687   5.575  12.626  0.00  0.00    +0.000 A 
ATOM      4  C   UNL     1      45.749   6.479  12.129  0.00  0.00    +0.000 A 
ATOM      5  C   UNL     1      45.856   7.798  12.549  0.00  0.00    +0.000 A 
ATOM      6  N   UNL     1      46.795   8.249  13.414  0.00  0.00    +0.000 NA
ENDROOT
BRANCH   1   8
ATOM      7  C   UNL     1      48.527   9.383  15.012  0.00  0.00    +0.000 C 
ATOM      8  C   UNL     1      48.645   7.855  14.989  0.00  0.00    +0.000 C 
BRANCH   8   9
ATOM      9  N   UNL     1      48.324   7.296  16.301  0.00  0.00    +0.000 N 
ATOM     10  C   UNL     1      48.964   6.197  16.830  0.00  0.00    +0.000 A 
ATOM     11  C   UNL     1      50.291   5.827  16.608  0.00  0.00    +0.000 A 
ATOM     12  N   UNL     1      50.896   4.771  17.211  0.00  0.00    +0.000 NA
ATOM     13  C   UNL     1      50.121   4.087  18.076  0.00  0.00    +0.000 A 
ATOM     14  C   UNL     1      48.808   4.440  18.314  0.00  0.00    +0.000 A 
ATOM     15  N   UNL     1      48.209   5.485  17.696  0.00  0.00    +0.000 NA
ATOM     16  H   UNL     1      47.334   7.145  16.483  0.00  0.00    +0.000 HD
ENDBRANCH   8   9
ENDBRANCH   1   8
BRANCH   4  17
ATOM     17  C   UNL     1      44.658   6.038  11.191  0.00  0.00    +0.000 C 
BRANCH  17  18
ATOM     18  N   UNL     1      45.229   5.467   9.973  0.00  0.00    +0.000 NA
ATOM     19  H   UNL     1      46.201   5.211  10.145  0.00  0.00    +0.000 HD
BRANCH  18  20
ATOM     20  C   UNL     1      44.493   4.286   9.529  0.00  0.00    +0.000 C 
BRANCH  20  21
ATOM     21  C   UNL     1      45.377   3.382   8.712  0.00  0.00    +0.000 A 
ATOM     22  C   UNL     1      45.366   1.994   8.889  0.00  0.00    +0.000 A 
ATOM     23  C   UNL     1      46.190   1.189   8.108  0.00  0.00    +0.000 A 
ATOM     24  C   UNL     1      47.009   1.801   7.174  0.00  0.00    +0.000 A 
ATOM     25  N   UNL     1      47.057   3.137   6.980  0.00  0.00    +0.000 NA
ATOM     26  C   UNL     1      46.243   3.893   7.750  0.00  0.00    +0.000 A 
ENDBRANCH  20  21
ENDBRANCH  18  20
ENDBRANCH  17  18
ENDBRANCH   4  17
TORSDOF 6
ENDMDL
