MODEL 1
REMARK VINA RESULT:    -8.219      0.000      0.000
REMARK INTER + INTRA:         -12.629
REMARK INTER:                 -11.822
REMARK INTRA:                  -0.806
REMARK UNBOUND:                -0.806
REMARK  Name = 
REMARK  8 active torsions:
REMARK  status: ('A' for Active; 'I' for Inactive)
REMARK    1  A    between atoms: N_1  and  C_2
REMARK    2  A    between atoms: C_2  and  C_3
REMARK    3  A    between atoms: C_2  and  C_24
REMARK    4  A    between atoms: C_3  and  C_4
REMARK    5  A    between atoms: C_7  and  C_8
REMARK    6  A    between atoms: C_8  and  N_9
REMARK    7  A    between atoms: C_10  and  C_12
REMARK    8  A    between atoms: C_24  and  C_26
REMARK                            x       y       z     vdW  Elec       q    Type
REMARK                         _______ _______ _______ _____ _____    ______ ____
ROOT
ATOM      1  C   UNL     1      45.642   4.704  12.083  0.00  0.00    +0.000 A 
ATOM      2  C   UNL     1      46.108   5.922  11.568  0.00  0.00    +0.000 A 
ATOM      3  C   UNL     1      47.095   6.651  12.239  0.00  0.00    +0.000 A 
ATOM      4  C   UNL     1      47.632   6.177  13.443  0.00  0.00    +0.000 A 
ATOM      5  C   UNL     1      47.133   4.982  13.979  0.00  0.00    +0.000 A 
ATOM      6  C   UNL     1      46.156   4.247  13.302  0.00  0.00    +0.000 A 
ENDROOT
BRANCH   1   7
ATOM      7  C   UNL     1      44.631   3.881  11.313  0.00  0.00    +0.000 C 
BRANCH   7   8
ATOM      8  C   UNL     1      44.773   4.019   9.777  0.00  0.00    +0.000 C 
BRANCH   8   9
ATOM      9  N   UNL     1      43.625   4.708   9.153  0.00  0.00    +0.000 NA
ATOM     10  H   UNL     1      43.523   4.362   8.196  0.00  0.00    +0.000 HD
ATOM     11  H   UNL     1      43.855   5.700   9.059  0.00  0.00    +0.000 HD
ENDBRANCH   8   9
BRANCH   8  12
ATOM     12  C   UNL     1      44.900   2.630   9.135  0.00  0.00    +0.000 C 
ATOM     13  O   UNL     1      44.231   1.665   9.504  0.00  0.00    +0.000 OA
BRANCH  12  14
ATOM     14  C   UNL     1      45.861   2.446   8.020  0.00  0.00    +0.000 A 
ATOM     15  C   UNL     1      46.099   3.418   7.047  0.00  0.00    +0.000 A 
ATOM     16  C   UNL     1      47.008   3.154   6.024  0.00  0.00    +0.000 A 
ATOM     17  C   UNL     1      47.658   1.930   6.018  0.00  0.00    +0.000 A 
ATOM     18  N   UNL     1      47.457   0.971   6.947  0.00  0.00    +0.000 NA
ATOM     19  C   UNL     1      46.552   1.245   7.921  0.00  0.00    +0.000 A 
ENDBRANCH  12  14
ENDBRANCH   8  12
ENDBRANCH   7   8
ENDBRANCH   1   7
BRANCH   4  20
ATOM     20  C   UNL     1      48.694   6.953  14.177  0.00  0.00    +0.000 C 
BRANCH  20  21
ATOM     21  N   UNL     1      48.347   7.120  15.564  0.00  0.00    +0.000 N 
ATOM     22  C   UNL     1      49.144   6.625  16.563  0.00  0.00    +0.000 C 
ATOM     23  O   UNL     1      50.203   6.049  16.327  0.00  0.00    +0.000 OA
ATOM     24  H   UNL     1      47.383   7.363  15.771  0.00  0.00    +0.000 HD
BRANCH  22  25
ATOM     25  C   UNL     1      48.697   6.876  17.939  0.00  0.00    +0.000 A 
ATOM     26  C   UNL     1      48.317   8.157  18.315  0.00  0.00    +0.000 A 
ATOM     27  S   UNL     1      47.776   8.263  19.928  0.00  0.00    +0.000 S 
ATOM     28  C   UNL     1      48.079   6.612  20.197  0.00  0.00    +0.000 A 
ATOM     29  N   UNL     1      47.853   6.047  21.413  0.00  0.00    +0.000 NA
ATOM     30  C   UNL     1      48.147   4.794  21.484  0.00  0.00    +0.000 A 
ATOM     31  N   UNL     1      48.644   4.048  20.446  0.00  0.00    +0.000 N 
ATOM     32  C   UNL     1      48.869   4.568  19.194  0.00  0.00    +0.000 A 
ATOM     33  O   UNL     1      49.276   3.865  18.276  0.00  0.00    +0.000 OA
ATOM     34  C   UNL     1      48.562   5.983  19.063  0.00  0.00    +0.000 A 
ATOM     35  H   UNL     1      48.845   3.066  20.564  0.00  0.00    +0.000 HD
ENDBRANCH  22  25
ENDBRANCH  20  21
ENDBRANCH   4  20
TORSDOF 8
ENDMDL
MODEL 2
REMARK VINA RESULT:    -8.094      2.929      4.725
REMARK INTER + INTRA:         -12.449
REMARK INTER:                 -11.758
REMARK INTRA:                  -0.691
REMARK UNBOUND:                -0.806
REMARK  Name = 
REMARK  8 active torsions:
REMARK  status: ('A' for Active; 'I' for Inactive)
REMARK    1  A    between atoms: N_1  and  C_2
REMARK    2  A    between atoms: C_2  and  C_3
REMARK    3  A    between atoms: C_2  and  C_24
REMARK    4  A    between atoms: C_3  and  C_4
REMARK    5  A    between atoms: C_7  and  C_8
REMARK    6  A    between atoms: C_8  and  N_9
REMARK    7  A    between atoms: C_10  and  C_12
REMARK    8  A    between atoms: C_24  and  C_26
REMARK                            x       y       z     vdW  Elec       q    Type
REMARK                         _______ _______ _______ _____ _____    ______ ____
ROOT
ATOM      1  C   UNL     1      45.699   3.433   7.883  0.00  0.00    +0.000 A 
ATOM      2  C   UNL     1      45.853   4.682   8.501  0.00  0.00    +0.000 A 
ATOM      3  C   UNL     1      45.444   4.880   9.823  0.00  0.00    +0.000 A 
ATOM      4  C   UNL     1      44.867   3.834  10.553  0.00  0.00    +0.000 A 
ATOM      5  C   UNL     1      44.671   2.598   9.919  0.00  0.00    +0.000 A 
ATOM      6  C   UNL     1      45.093   2.396   8.602  0.00  0.00    +0.000 A 
ENDROOT
BRANCH   1   7
ATOM      7  C   UNL     1      46.216   3.201   6.479  0.00  0.00    +0.000 C 
BRANCH   7   8
ATOM      8  C   UNL     1      46.784   1.778   6.264  0.00  0.00    +0.000 C 
BRANCH   8   9
ATOM      9  N   UNL     1      47.878   1.446   7.201  0.00  0.00    +0.000 NA
ATOM     10  H   UNL     1      48.046   0.439   7.157  0.00  0.00    +0.000 HD
ATOM     11  H   UNL     1      47.553   1.625   8.154  0.00  0.00    +0.000 HD
ENDBRANCH   8   9
BRANCH   8  12
ATOM     12  C   UNL     1      47.326   1.640   4.834  0.00  0.00    +0.000 C 
ATOM     13  O   UNL     1      48.299   2.277   4.429  0.00  0.00    +0.000 OA
BRANCH  12  14
ATOM     14  C   UNL     1      46.658   0.695   3.907  0.00  0.00    +0.000 A 
ATOM     15  C   UNL     1      45.743   1.098   2.932  0.00  0.00    +0.000 A 
ATOM     16  C   UNL     1      45.148   0.140   2.113  0.00  0.00    +0.000 A 
ATOM     17  C   UNL     1      45.500  -1.189   2.290  0.00  0.00    +0.000 A 
ATOM     18  N   UNL     1      46.384  -1.612   3.218  0.00  0.00    +0.000 NA
ATOM     19  C   UNL     1      46.934  -0.662   4.015  0.00  0.00    +0.000 A 
ENDBRANCH  12  14
ENDBRANCH   8  12
ENDBRANCH   7   8
ENDBRANCH   1   7
BRANCH   4  20
ATOM     20  C   UNL     1      44.419   4.035  11.977  0.00  0.00    +0.000 C 
BRANCH  20  21
ATOM     21  N   UNL     1      45.361   4.843  12.706  0.00  0.00    +0.000 N 
ATOM     22  C   UNL     1      46.370   4.275  13.439  0.00  0.00    +0.000 C 
ATOM     23  O   UNL     1      46.541   3.060  13.482  0.00  0.00    +0.000 OA
ATOM     24  H   UNL     1      45.098   5.808  12.883  0.00  0.00    +0.000 HD
BRANCH  22  25
ATOM     25  C   UNL     1      47.281   5.203  14.122  0.00  0.00    +0.000 A 
ATOM     26  C   UNL     1      47.901   6.212  13.400  0.00  0.00    +0.000 A 
ATOM     27  S   UNL     1      48.882   7.230  14.353  0.00  0.00    +0.000 S 
ATOM     28  C   UNL     1      48.555   6.326  15.755  0.00  0.00    +0.000 A 
ATOM     29  N   UNL     1      49.119   6.653  16.948  0.00  0.00    +0.000 NA
ATOM     30  C   UNL     1      48.804   5.871  17.922  0.00  0.00    +0.000 A 
ATOM     31  N   UNL     1      47.967   4.789  17.816  0.00  0.00    +0.000 N 
ATOM     32  C   UNL     1      47.355   4.432  16.638  0.00  0.00    +0.000 A 
ATOM     33  O   UNL     1      46.581   3.482  16.584  0.00  0.00    +0.000 OA
ATOM     34  C   UNL     1      47.687   5.277  15.503  0.00  0.00    +0.000 A 
ATOM     35  H   UNL     1      47.751   4.221  18.621  0.00  0.00    +0.000 HD
ENDBRANCH  22  25
ENDBRANCH  20  21
ENDBRANCH   4  20
TORSDOF 8
ENDMDL
MODEL 3
REMARK VINA RESULT:    -7.951      3.123      4.121
REMARK INTER + INTRA:         -12.244
REMARK INTER:                 -11.018
REMARK INTRA:                  -1.225
REMARK UNBOUND:                -0.806
REMARK  Name = 
REMARK  8 active torsions:
REMARK  status: ('A' for Active; 'I' for Inactive)
REMARK    1  A    between atoms: N_1  and  C_2
REMARK    2  A    between atoms: C_2  and  C_3
REMARK    3  A    between atoms: C_2  and  C_24
REMARK    4  A    between atoms: C_3  and  C_4
REMARK    5  A    between atoms: C_7  and  C_8
REMARK    6  A    between atoms: C_8  and  N_9
REMARK    7  A    between atoms: C_10  and  C_12
REMARK    8  A    between atoms: C_24  and  C_26
REMARK                            x       y       z     vdW  Elec       q    Type
REMARK                         _______ _______ _______ _____ _____    ______ ____
ROOT
ATOM      1  C   UNL     1      46.742   4.834  13.786  0.00  0.00    +0.000 A 
ATOM      2  C   UNL     1      46.932   4.331  15.081  0.00  0.00    +0.000 A 
ATOM      3  C   UNL     1      47.820   4.951  15.965  0.00  0.00    +0.000 A 
ATOM      4  C   UNL     1      48.541   6.084  15.569  0.00  0.00    +0.000 A 
ATOM      5  C   UNL     1      48.384   6.559  14.259  0.00  0.00    +0.000 A 
ATOM      6  C   UNL     1      47.486   5.948  13.380  0.00  0.00    +0.000 A 
ENDROOT
BRANCH   1   7
ATOM      7  C   UNL     1      45.721   4.208  12.860  0.00  0.00    +0.000 C 
BRANCH   7   8
ATOM      8  C   UNL     1      44.768   5.241  12.213  0.00  0.00    +0.000 C 
BRANCH   8   9
ATOM      9  N   UNL     1      43.810   5.824  13.176  0.00  0.00    +0.000 NA
ATOM     10  H   UNL     1      44.177   6.726  13.488  0.00  0.00    +0.000 HD
ATOM     11  H   UNL     1      43.792   5.235  14.011  0.00  0.00    +0.000 HD
ENDBRANCH   8   9
BRANCH   8  12
ATOM     12  C   UNL     1      43.962   4.578  11.086  0.00  0.00    +0.000 C 
ATOM     13  O   UNL     1      42.735   4.486  11.113  0.00  0.00    +0.000 OA
BRANCH  12  14
ATOM     14  C   UNL     1      44.692   4.033   9.914  0.00  0.00    +0.000 A 
ATOM     15  C   UNL     1      44.686   2.680   9.571  0.00  0.00    +0.000 A 
ATOM     16  C   UNL     1      45.414   2.252   8.462  0.00  0.00    +0.000 A 
ATOM     17  C   UNL     1      46.112   3.197   7.727  0.00  0.00    +0.000 A 
ATOM     18  N   UNL     1      46.133   4.513   8.026  0.00  0.00    +0.000 NA
ATOM     19  C   UNL     1      45.433   4.901   9.123  0.00  0.00    +0.000 A 
ENDBRANCH  12  14
ENDBRANCH   8  12
ENDBRANCH   7   8
ENDBRANCH   1   7
BRANCH   4  20
ATOM     20  C   UNL     1      49.503   6.760  16.510  0.00  0.00    +0.000 C 
BRANCH  20  21
ATOM     21  N   UNL     1      50.539   5.853  16.931  0.00  0.00    +0.000 N 
ATOM     22  C   UNL     1      50.651   5.455  18.238  0.00  0.00    +0.000 C 
ATOM     23  O   UNL     1      49.860   5.822  19.101  0.00  0.00    +0.000 OA
ATOM     24  H   UNL     1      51.330   5.737  16.305  0.00  0.00    +0.000 HD
BRANCH  22  25
ATOM     25  C   UNL     1      51.735   4.510  18.540  0.00  0.00    +0.000 A 
ATOM     26  C   UNL     1      52.813   4.926  19.309  0.00  0.00    +0.000 A 
ATOM     27  S   UNL     1      53.952   3.694  19.609  0.00  0.00    +0.000 S 
ATOM     28  C   UNL     1      53.072   2.576  18.678  0.00  0.00    +0.000 A 
ATOM     29  N   UNL     1      53.521   1.305  18.499  0.00  0.00    +0.000 NA
ATOM     30  C   UNL     1      52.768   0.572  17.753  0.00  0.00    +0.000 A 
ATOM     31  N   UNL     1      51.598   0.990  17.172  0.00  0.00    +0.000 N 
ATOM     32  C   UNL     1      51.092   2.257  17.342  0.00  0.00    +0.000 A 
ATOM     33  O   UNL     1      50.022   2.587  16.842  0.00  0.00    +0.000 OA
ATOM     34  C   UNL     1      51.910   3.129  18.168  0.00  0.00    +0.000 A 
ATOM     35  H   UNL     1      51.048   0.362  16.606  0.00  0.00    +0.000 HD
ENDBRANCH  22  25
ENDBRANCH  20  21
ENDBRANCH   4  20
TORSDOF 8
ENDMDL
MODEL 4
REMARK VINA RESULT:    -7.921      2.596      3.214
REMARK INTER + INTRA:         -12.200
REMARK INTER:                 -10.795
REMARK INTRA:                  -1.405
REMARK UNBOUND:                -0.806
REMARK  Name = 
REMARK  8 active torsions:
REMARK  status: ('A' for Active; 'I' for Inactive)
REMARK    1  A    between atoms: N_1  and  C_2
REMARK    2  A    between atoms: C_2  and  C_3
REMARK    3  A    between atoms: C_2  and  C_24
REMARK    4  A    between atoms: C_3  and  C_4
REMARK    5  A    between atoms: C_7  and  C_8
REMARK    6  A    between atoms: C_8  and  N_9
REMARK    7  A    between atoms: C_10  and  C_12
REMARK    8  A    between atoms: C_24  and  C_26
REMARK                            x       y       z     vdW  Elec       q    Type
REMARK                         _______ _______ _______ _____ _____    ______ ____
ROOT
ATOM      1  C   UNL     1      45.314   5.963  12.856  0.00  0.00    +0.000 A 
ATOM      2  C   UNL     1      45.446   7.318  12.521  0.00  0.00    +0.000 A 
ATOM      3  C   UNL     1      46.708   7.911  12.427  0.00  0.00    +0.000 A 
ATOM      4  C   UNL     1      47.865   7.162  12.673  0.00  0.00    +0.000 A 
ATOM      5  C   UNL     1      47.730   5.819  13.052  0.00  0.00    +0.000 A 
ATOM      6  C   UNL     1      46.469   5.222  13.132  0.00  0.00    +0.000 A 
ENDROOT
BRANCH   1   7
ATOM      7  C   UNL     1      43.950   5.306  12.878  0.00  0.00    +0.000 C 
BRANCH   7   8
ATOM      8  C   UNL     1      43.333   5.132  11.469  0.00  0.00    +0.000 C 
BRANCH   8   9
ATOM      9  N   UNL     1      41.876   5.373  11.444  0.00  0.00    +0.000 NA
ATOM     10  H   UNL     1      41.685   6.122  10.775  0.00  0.00    +0.000 HD
ATOM     11  H   UNL     1      41.594   5.745  12.354  0.00  0.00    +0.000 HD
ENDBRANCH   8   9
BRANCH   8  12
ATOM     12  C   UNL     1      43.587   3.705  10.959  0.00  0.00    +0.000 C 
ATOM     13  O   UNL     1      43.050   2.717  11.459  0.00  0.00    +0.000 OA
BRANCH  12  14
ATOM     14  C   UNL     1      44.508   3.512   9.813  0.00  0.00    +0.000 A 
ATOM     15  C   UNL     1      44.901   2.254   9.351  0.00  0.00    +0.000 A 
ATOM     16  C   UNL     1      45.785   2.165   8.277  0.00  0.00    +0.000 A 
ATOM     17  C   UNL     1      46.234   3.339   7.693  0.00  0.00    +0.000 A 
ATOM     18  N   UNL     1      45.870   4.570   8.110  0.00  0.00    +0.000 NA
ATOM     19  C   UNL     1      45.024   4.630   9.170  0.00  0.00    +0.000 A 
ENDBRANCH  12  14
ENDBRANCH   8  12
ENDBRANCH   7   8
ENDBRANCH   1   7
BRANCH   4  20
ATOM     20  C   UNL     1      49.232   7.789  12.578  0.00  0.00    +0.000 C 
BRANCH  20  21
ATOM     21  N   UNL     1      50.106   7.282  13.603  0.00  0.00    +0.000 N 
ATOM     22  C   UNL     1      50.375   8.008  14.735  0.00  0.00    +0.000 C 
ATOM     23  O   UNL     1      49.861   9.103  14.944  0.00  0.00    +0.000 OA
ATOM     24  H   UNL     1      50.719   6.515  13.346  0.00  0.00    +0.000 HD
BRANCH  22  25
ATOM     25  C   UNL     1      51.264   7.377  15.718  0.00  0.00    +0.000 A 
ATOM     26  C   UNL     1      52.560   7.848  15.874  0.00  0.00    +0.000 A 
ATOM     27  S   UNL     1      53.438   7.040  17.091  0.00  0.00    +0.000 S 
ATOM     28  C   UNL     1      52.135   5.996  17.416  0.00  0.00    +0.000 A 
ATOM     29  N   UNL     1      52.238   5.019  18.356  0.00  0.00    +0.000 NA
ATOM     30  C   UNL     1      51.185   4.287  18.484  0.00  0.00    +0.000 A 
ATOM     31  N   UNL     1      50.031   4.445  17.759  0.00  0.00    +0.000 N 
ATOM     32  C   UNL     1      49.872   5.430  16.815  0.00  0.00    +0.000 A 
ATOM     33  O   UNL     1      48.813   5.570  16.212  0.00  0.00    +0.000 OA
ATOM     34  C   UNL     1      51.037   6.279  16.624  0.00  0.00    +0.000 A 
ATOM     35  H   UNL     1      49.236   3.843  17.915  0.00  0.00    +0.000 HD
ENDBRANCH  22  25
ENDBRANCH  20  21
ENDBRANCH   4  20
TORSDOF 8
ENDMDL
MODEL 5
REMARK VINA RESULT:    -7.878      3.293      5.115
REMARK INTER + INTRA:         -12.139
REMARK INTER:                 -11.767
REMARK INTRA:                  -0.372
REMARK UNBOUND:                -0.806
REMARK  Name = 
REMARK  8 active torsions:
REMARK  status: ('A' for Active; 'I' for Inactive)
REMARK    1  A    between atoms: N_1  and  C_2
REMARK    2  A    between atoms: C_2  and  C_3
REMARK    3  A    between atoms: C_2  and  C_24
REMARK    4  A    between atoms: C_3  and  C_4
REMARK    5  A    between atoms: C_7  and  C_8
REMARK    6  A    between atoms: C_8  and  N_9
REMARK    7  A    between atoms: C_10  and  C_12
REMARK    8  A    between atoms: C_24  and  C_26
REMARK                            x       y       z     vdW  Elec       q    Type
REMARK                         _______ _______ _______ _____ _____    ______ ____
ROOT
ATOM      1  C   UNL     1      45.659   3.553   8.171  0.00  0.00    +0.000 A 
ATOM      2  C   UNL     1      45.838   4.826   8.730  0.00  0.00    +0.000 A 
ATOM      3  C   UNL     1      45.301   5.139   9.982  0.00  0.00    +0.000 A 
ATOM      4  C   UNL     1      44.568   4.185  10.699  0.00  0.00    +0.000 A 
ATOM      5  C   UNL     1      44.351   2.927  10.119  0.00  0.00    +0.000 A 
ATOM      6  C   UNL     1      44.900   2.610   8.874  0.00  0.00    +0.000 A 
ENDROOT
BRANCH   1   7
ATOM      7  C   UNL     1      46.310   3.194   6.852  0.00  0.00    +0.000 C 
BRANCH   7   8
ATOM      8  C   UNL     1      47.553   2.286   7.012  0.00  0.00    +0.000 C 
BRANCH   8   9
ATOM      9  N   UNL     1      48.648   2.639   6.083  0.00  0.00    +0.000 NA
ATOM     10  H   UNL     1      49.535   2.549   6.582  0.00  0.00    +0.000 HD
ATOM     11  H   UNL     1      48.567   3.631   5.851  0.00  0.00    +0.000 HD
ENDBRANCH   8   9
BRANCH   8  12
ATOM     12  C   UNL     1      47.169   0.821   6.757  0.00  0.00    +0.000 C 
ATOM     13  O   UNL     1      47.060  -0.004   7.665  0.00  0.00    +0.000 OA
BRANCH  12  14
ATOM     14  C   UNL     1      46.910   0.384   5.363  0.00  0.00    +0.000 A 
ATOM     15  C   UNL     1      46.620   1.271   4.325  0.00  0.00    +0.000 A 
ATOM     16  C   UNL     1      46.374   0.772   3.047  0.00  0.00    +0.000 A 
ATOM     17  C   UNL     1      46.438  -0.598   2.850  0.00  0.00    +0.000 A 
ATOM     18  N   UNL     1      46.722  -1.483   3.829  0.00  0.00    +0.000 NA
ATOM     19  C   UNL     1      46.939  -0.973   5.068  0.00  0.00    +0.000 A 
ENDBRANCH  12  14
ENDBRANCH   8  12
ENDBRANCH   7   8
ENDBRANCH   1   7
BRANCH   4  20
ATOM     20  C   UNL     1      43.981   4.510  12.047  0.00  0.00    +0.000 C 
BRANCH  20  21
ATOM     21  N   UNL     1      44.983   5.044  12.933  0.00  0.00    +0.000 N 
ATOM     22  C   UNL     1      45.966   4.248  13.460  0.00  0.00    +0.000 C 
ATOM     23  O   UNL     1      46.061   3.056  13.178  0.00  0.00    +0.000 OA
ATOM     24  H   UNL     1      44.784   5.942  13.364  0.00  0.00    +0.000 HD
BRANCH  22  25
ATOM     25  C   UNL     1      46.944   4.911  14.332  0.00  0.00    +0.000 A 
ATOM     26  C   UNL     1      47.146   4.437  15.621  0.00  0.00    +0.000 A 
ATOM     27  S   UNL     1      48.350   5.286  16.479  0.00  0.00    +0.000 S 
ATOM     28  C   UNL     1      48.606   6.350  15.177  0.00  0.00    +0.000 A 
ATOM     29  N   UNL     1      49.510   7.362  15.267  0.00  0.00    +0.000 NA
ATOM     30  C   UNL     1      49.587   8.105  14.217  0.00  0.00    +0.000 A 
ATOM     31  N   UNL     1      48.844   7.927  13.077  0.00  0.00    +0.000 N 
ATOM     32  C   UNL     1      47.935   6.907  12.932  0.00  0.00    +0.000 A 
ATOM     33  O   UNL     1      47.315   6.751  11.885  0.00  0.00    +0.000 OA
ATOM     34  C   UNL     1      47.802   6.044  14.094  0.00  0.00    +0.000 A 
ATOM     35  H   UNL     1      48.959   8.540  12.284  0.00  0.00    +0.000 HD
ENDBRANCH  22  25
ENDBRANCH  20  21
ENDBRANCH   4  20
TORSDOF 8
ENDMDL
MODEL 6
REMARK VINA RESULT:    -7.705      1.691      2.250
REMARK INTER + INTRA:         -11.890
REMARK INTER:                 -10.775
REMARK INTRA:                  -1.114
REMARK UNBOUND:                -0.806
REMARK  Name = 
REMARK  8 active torsions:
REMARK  status: ('A' for Active; 'I' for Inactive)
REMARK    1  A    between atoms: N_1  and  C_2
REMARK    2  A    between atoms: C_2  and  C_3
REMARK    3  A    between atoms: C_2  and  C_24
REMARK    4  A    between atoms: C_3  and  C_4
REMARK    5  A    between atoms: C_7  and  C_8
REMARK    6  A    between atoms: C_8  and  N_9
REMARK    7  A    between atoms: C_10  and  C_12
REMARK    8  A    between atoms: C_24  and  C_26
REMARK                            x       y       z     vdW  Elec       q    Type
REMARK                         _______ _______ _______ _____ _____    ______ ____
ROOT
ATOM      1  C   UNL     1      45.128   5.496  13.246  0.00  0.00    +0.000 A 
ATOM      2  C   UNL     1      46.067   4.690  13.905  0.00  0.00    +0.000 A 
ATOM      3  C   UNL     1      47.334   5.186  14.226  0.00  0.00    +0.000 A 
ATOM      4  C   UNL     1      47.690   6.498  13.889  0.00  0.00    +0.000 A 
ATOM      5  C   UNL     1      46.766   7.288  13.190  0.00  0.00    +0.000 A 
ATOM      6  C   UNL     1      45.495   6.797  12.882  0.00  0.00    +0.000 A 
ENDROOT
BRANCH   1   7
ATOM      7  C   UNL     1      43.731   4.981  12.973  0.00  0.00    +0.000 C 
BRANCH   7   8
ATOM      8  C   UNL     1      43.332   5.057  11.479  0.00  0.00    +0.000 C 
BRANCH   8   9
ATOM      9  N   UNL     1      41.898   5.352  11.279  0.00  0.00    +0.000 NA
ATOM     10  H   UNL     1      41.595   5.993  12.016  0.00  0.00    +0.000 HD
ATOM     11  H   UNL     1      41.367   4.493  11.433  0.00  0.00    +0.000 HD
ENDBRANCH   8   9
BRANCH   8  12
ATOM     12  C   UNL     1      43.644   3.724  10.785  0.00  0.00    +0.000 C 
ATOM     13  O   UNL     1      43.139   2.658  11.139  0.00  0.00    +0.000 OA
BRANCH  12  14
ATOM     14  C   UNL     1      44.583   3.720   9.637  0.00  0.00    +0.000 A 
ATOM     15  C   UNL     1      44.820   2.595   8.845  0.00  0.00    +0.000 A 
ATOM     16  C   UNL     1      45.733   2.677   7.795  0.00  0.00    +0.000 A 
ATOM     17  C   UNL     1      46.369   3.887   7.566  0.00  0.00    +0.000 A 
ATOM     18  N   UNL     1      46.159   4.995   8.308  0.00  0.00    +0.000 NA
ATOM     19  C   UNL     1      45.280   4.884   9.336  0.00  0.00    +0.000 A 
ENDBRANCH  12  14
ENDBRANCH   8  12
ENDBRANCH   7   8
ENDBRANCH   1   7
BRANCH   4  20
ATOM     20  C   UNL     1      49.053   7.043  14.226  0.00  0.00    +0.000 C 
BRANCH  20  21
ATOM     21  N   UNL     1      49.123   7.444  15.607  0.00  0.00    +0.000 N 
ATOM     22  C   UNL     1      49.576   6.586  16.575  0.00  0.00    +0.000 C 
ATOM     23  O   UNL     1      49.973   5.455  16.310  0.00  0.00    +0.000 OA
ATOM     24  H   UNL     1      48.583   8.260  15.877  0.00  0.00    +0.000 HD
BRANCH  22  25
ATOM     25  C   UNL     1      49.622   7.115  17.945  0.00  0.00    +0.000 A 
ATOM     26  C   UNL     1      50.575   8.066  18.281  0.00  0.00    +0.000 A 
ATOM     27  S   UNL     1      50.457   8.611  19.892  0.00  0.00    +0.000 S 
ATOM     28  C   UNL     1      49.161   7.557  20.212  0.00  0.00    +0.000 A 
ATOM     29  N   UNL     1      48.593   7.500  21.446  0.00  0.00    +0.000 NA
ATOM     30  C   UNL     1      47.637   6.642  21.555  0.00  0.00    +0.000 A 
ATOM     31  N   UNL     1      47.190   5.836  20.539  0.00  0.00    +0.000 N 
ATOM     32  C   UNL     1      47.717   5.874  19.270  0.00  0.00    +0.000 A 
ATOM     33  O   UNL     1      47.268   5.168  18.373  0.00  0.00    +0.000 OA
ATOM     34  C   UNL     1      48.808   6.819  19.096  0.00  0.00    +0.000 A 
ATOM     35  H   UNL     1      46.428   5.192  20.687  0.00  0.00    +0.000 HD
ENDBRANCH  22  25
ENDBRANCH  20  21
ENDBRANCH   4  20
TORSDOF 8
ENDMDL
MODEL 7
REMARK VINA RESULT:    -7.611      1.619      2.102
REMARK INTER + INTRA:         -11.754
REMARK INTER:                 -10.604
REMARK INTRA:                  -1.150
REMARK UNBOUND:                -0.806
REMARK  Name = 
REMARK  8 active torsions:
REMARK  status: ('A' for Active; 'I' for Inactive)
REMARK    1  A    between atoms: N_1  and  C_2
REMARK    2  A    between atoms: C_2  and  C_3
REMARK    3  A    between atoms: C_2  and  C_24
REMARK    4  A    between atoms: C_3  and  C_4
REMARK    5  A    between atoms: C_7  and  C_8
REMARK    6  A    between atoms: C_8  and  N_9
REMARK    7  A    between atoms: C_10  and  C_12
REMARK    8  A    between atoms: C_24  and  C_26
REMARK                            x       y       z     vdW  Elec       q    Type
REMARK                         _______ _______ _______ _____ _____    ______ ____
ROOT
ATOM      1  C   UNL     1      45.832   5.066  12.501  0.00  0.00    +0.000 A 
ATOM      2  C   UNL     1      46.989   5.078  13.292  0.00  0.00    +0.000 A 
ATOM      3  C   UNL     1      47.563   6.285  13.700  0.00  0.00    +0.000 A 
ATOM      4  C   UNL     1      46.992   7.507  13.321  0.00  0.00    +0.000 A 
ATOM      5  C   UNL     1      45.861   7.494  12.493  0.00  0.00    +0.000 A 
ATOM      6  C   UNL     1      45.280   6.287  12.096  0.00  0.00    +0.000 A 
ENDROOT
BRANCH   1   7
ATOM      7  C   UNL     1      45.169   3.757  12.128  0.00  0.00    +0.000 C 
BRANCH   7   8
ATOM      8  C   UNL     1      44.163   3.891  10.960  0.00  0.00    +0.000 C 
BRANCH   8   9
ATOM      9  N   UNL     1      42.757   3.929  11.411  0.00  0.00    +0.000 NA
ATOM     10  H   UNL     1      42.167   4.166  10.610  0.00  0.00    +0.000 HD
ATOM     11  H   UNL     1      42.648   4.705  12.067  0.00  0.00    +0.000 HD
ENDBRANCH   8   9
BRANCH   8  12
ATOM     12  C   UNL     1      44.320   2.708   9.993  0.00  0.00    +0.000 C 
ATOM     13  O   UNL     1      43.633   1.690  10.074  0.00  0.00    +0.000 OA
BRANCH  12  14
ATOM     14  C   UNL     1      45.334   2.799   8.915  0.00  0.00    +0.000 A 
ATOM     15  C   UNL     1      45.692   4.001   8.300  0.00  0.00    +0.000 A 
ATOM     16  C   UNL     1      46.644   3.992   7.282  0.00  0.00    +0.000 A 
ATOM     17  C   UNL     1      47.214   2.782   6.922  0.00  0.00    +0.000 A 
ATOM     18  N   UNL     1      46.896   1.603   7.499  0.00  0.00    +0.000 NA
ATOM     19  C   UNL     1      45.953   1.636   8.474  0.00  0.00    +0.000 A 
ENDBRANCH  12  14
ENDBRANCH   8  12
ENDBRANCH   7   8
ENDBRANCH   1   7
BRANCH   4  20
ATOM     20  C   UNL     1      47.602   8.815  13.752  0.00  0.00    +0.000 C 
BRANCH  20  21
ATOM     21  N   UNL     1      47.376   9.055  15.154  0.00  0.00    +0.000 N 
ATOM     22  C   UNL     1      48.405   9.014  16.058  0.00  0.00    +0.000 C 
ATOM     23  O   UNL     1      49.566   8.807  15.717  0.00  0.00    +0.000 OA
ATOM     24  H   UNL     1      46.419   8.983  15.484  0.00  0.00    +0.000 HD
BRANCH  22  25
ATOM     25  C   UNL     1      48.055   9.297  17.457  0.00  0.00    +0.000 A 
ATOM     26  C   UNL     1      47.821  10.605  17.855  0.00  0.00    +0.000 A 
ATOM     27  S   UNL     1      47.375  10.751  19.494  0.00  0.00    +0.000 S 
ATOM     28  C   UNL     1      47.531   9.075  19.742  0.00  0.00    +0.000 A 
ATOM     29  N   UNL     1      47.313   8.525  20.967  0.00  0.00    +0.000 NA
ATOM     30  C   UNL     1      47.488   7.250  21.019  0.00  0.00    +0.000 A 
ATOM     31  N   UNL     1      47.857   6.467  19.954  0.00  0.00    +0.000 N 
ATOM     32  C   UNL     1      48.066   6.973  18.694  0.00  0.00    +0.000 A 
ATOM     33  O   UNL     1      48.356   6.241  17.753  0.00  0.00    +0.000 OA
ATOM     34  C   UNL     1      47.892   8.412  18.583  0.00  0.00    +0.000 A 
ATOM     35  H   UNL     1      47.967   5.470  20.059  0.00  0.00    +0.000 HD
ENDBRANCH  22  25
ENDBRANCH  20  21
ENDBRANCH   4  20
TORSDOF 8
ENDMDL
MODEL 8
REMARK VINA RESULT:    -7.436      4.006      8.897
REMARK INTER + INTRA:         -11.502
REMARK INTER:                  -9.485
REMARK INTRA:                  -2.017
REMARK UNBOUND:                -0.806
REMARK  Name = 
REMARK  8 active torsions:
REMARK  status: ('A' for Active; 'I' for Inactive)
REMARK    1  A    between atoms: N_1  and  C_2
REMARK    2  A    between atoms: C_2  and  C_3
REMARK    3  A    between atoms: C_2  and  C_24
REMARK    4  A    between atoms: C_3  and  C_4
REMARK    5  A    between atoms: C_7  and  C_8
REMARK    6  A    between atoms: C_8  and  N_9
REMARK    7  A    between atoms: C_10  and  C_12
REMARK    8  A    between atoms: C_24  and  C_26
REMARK                            x       y       z     vdW  Elec       q    Type
REMARK                         _______ _______ _______ _____ _____    ______ ____
ROOT
ATOM      1  C   UNL     1      50.710   7.030  18.074  0.00  0.00    +0.000 A 
ATOM      2  C   UNL     1      49.431   7.587  18.215  0.00  0.00    +0.000 A 
ATOM      3  C   UNL     1      48.734   8.066  17.102  0.00  0.00    +0.000 A 
ATOM      4  C   UNL     1      49.304   8.000  15.825  0.00  0.00    +0.000 A 
ATOM      5  C   UNL     1      50.601   7.484  15.691  0.00  0.00    +0.000 A 
ATOM      6  C   UNL     1      51.292   6.994  16.802  0.00  0.00    +0.000 A 
ENDROOT
BRANCH   1   7
ATOM      7  C   UNL     1      51.427   6.441  19.270  0.00  0.00    +0.000 C 
BRANCH   7   8
ATOM      8  C   UNL     1      50.880   5.056  19.690  0.00  0.00    +0.000 C 
BRANCH   8   9
ATOM      9  N   UNL     1      51.398   4.604  20.999  0.00  0.00    +0.000 NA
ATOM     10  H   UNL     1      51.096   5.271  21.712  0.00  0.00    +0.000 HD
ATOM     11  H   UNL     1      52.417   4.668  20.982  0.00  0.00    +0.000 HD
ENDBRANCH   8   9
BRANCH   8  12
ATOM     12  C   UNL     1      51.259   4.001  18.640  0.00  0.00    +0.000 C 
ATOM     13  O   UNL     1      52.415   3.608  18.483  0.00  0.00    +0.000 OA
BRANCH  12  14
ATOM     14  C   UNL     1      50.189   3.428  17.788  0.00  0.00    +0.000 A 
ATOM     15  C   UNL     1      48.906   3.972  17.701  0.00  0.00    +0.000 A 
ATOM     16  C   UNL     1      47.956   3.358  16.887  0.00  0.00    +0.000 A 
ATOM     17  C   UNL     1      48.327   2.227  16.177  0.00  0.00    +0.000 A 
ATOM     18  N   UNL     1      49.559   1.679  16.233  0.00  0.00    +0.000 NA
ATOM     19  C   UNL     1      50.460   2.284  17.048  0.00  0.00    +0.000 A 
ENDBRANCH  12  14
ENDBRANCH   8  12
ENDBRANCH   7   8
ENDBRANCH   1   7
BRANCH   4  20
ATOM     20  C   UNL     1      48.565   8.515  14.617  0.00  0.00    +0.000 C 
BRANCH  20  21
ATOM     21  N   UNL     1      47.541   7.591  14.205  0.00  0.00    +0.000 N 
ATOM     22  C   UNL     1      47.804   6.590  13.305  0.00  0.00    +0.000 C 
ATOM     23  O   UNL     1      48.924   6.413  12.836  0.00  0.00    +0.000 OA
ATOM     24  H   UNL     1      46.579   7.862  14.381  0.00  0.00    +0.000 HD
BRANCH  22  25
ATOM     25  C   UNL     1      46.684   5.697  12.979  0.00  0.00    +0.000 A 
ATOM     26  C   UNL     1      46.785   4.341  13.255  0.00  0.00    +0.000 A 
ATOM     27  S   UNL     1      45.381   3.458  12.863  0.00  0.00    +0.000 S 
ATOM     28  C   UNL     1      44.607   4.848  12.261  0.00  0.00    +0.000 A 
ATOM     29  N   UNL     1      43.356   4.781  11.734  0.00  0.00    +0.000 NA
ATOM     30  C   UNL     1      42.900   5.904  11.295  0.00  0.00    +0.000 A 
ATOM     31  N   UNL     1      43.579   7.094  11.339  0.00  0.00    +0.000 N 
ATOM     32  C   UNL     1      44.836   7.216  11.881  0.00  0.00    +0.000 A 
ATOM     33  O   UNL     1      45.401   8.303  11.942  0.00  0.00    +0.000 OA
ATOM     34  C   UNL     1      45.402   5.975  12.383  0.00  0.00    +0.000 A 
ATOM     35  H   UNL     1      43.161   7.942  10.987  0.00  0.00    +0.000 HD
ENDBRANCH  22  25
ENDBRANCH  20  21
ENDBRANCH   4  20
TORSDOF 8
ENDMDL
MODEL 9
REMARK VINA RESULT:    -7.290      3.000      9.291
REMARK INTER + INTRA:         -11.292
REMARK INTER:                  -9.494
REMARK INTRA:                  -1.798
REMARK UNBOUND:                -0.806
REMARK  Name = 
REMARK  8 active torsions:
REMARK  status: ('A' for Active; 'I' for Inactive)
REMARK    1  A    between atoms: N_1  and  C_2
REMARK    2  A    between atoms: C_2  and  C_3
REMARK    3  A    between atoms: C_2  and  C_24
REMARK    4  A    between atoms: C_3  and  C_4
REMARK    5  A    between atoms: C_7  and  C_8
REMARK    6  A    between atoms: C_8  and  N_9
REMARK    7  A    between atoms: C_10  and  C_12
REMARK    8  A    between atoms: C_24  and  C_26
REMARK                            x       y       z     vdW  Elec       q    Type
REMARK                         _______ _______ _______ _____ _____    ______ ____
ROOT
ATOM      1  C   UNL     1      49.247   7.899  16.438  0.00  0.00    +0.000 A 
ATOM      2  C   UNL     1      48.314   8.843  15.987  0.00  0.00    +0.000 A 
ATOM      3  C   UNL     1      47.850   8.817  14.669  0.00  0.00    +0.000 A 
ATOM      4  C   UNL     1      48.315   7.847  13.772  0.00  0.00    +0.000 A 
ATOM      5  C   UNL     1      49.282   6.931  14.211  0.00  0.00    +0.000 A 
ATOM      6  C   UNL     1      49.735   6.949  15.533  0.00  0.00    +0.000 A 
ENDROOT
BRANCH   1   7
ATOM      7  C   UNL     1      49.685   7.883  17.887  0.00  0.00    +0.000 C 
BRANCH   7   8
ATOM      8  C   UNL     1      48.567   7.434  18.859  0.00  0.00    +0.000 C 
BRANCH   8   9
ATOM      9  N   UNL     1      48.473   8.286  20.062  0.00  0.00    +0.000 NA
ATOM     10  H   UNL     1      49.186   9.016  19.997  0.00  0.00    +0.000 HD
ATOM     11  H   UNL     1      48.733   7.726  20.876  0.00  0.00    +0.000 HD
ENDBRANCH   8   9
BRANCH   8  12
ATOM     12  C   UNL     1      48.820   5.990  19.318  0.00  0.00    +0.000 C 
ATOM     13  O   UNL     1      49.190   5.712  20.459  0.00  0.00    +0.000 OA
BRANCH  12  14
ATOM     14  C   UNL     1      48.601   4.886  18.352  0.00  0.00    +0.000 A 
ATOM     15  C   UNL     1      47.355   4.593  17.795  0.00  0.00    +0.000 A 
ATOM     16  C   UNL     1      47.236   3.526  16.906  0.00  0.00    +0.000 A 
ATOM     17  C   UNL     1      48.373   2.796  16.596  0.00  0.00    +0.000 A 
ATOM     18  N   UNL     1      49.593   3.056  17.111  0.00  0.00    +0.000 NA
ATOM     19  C   UNL     1      49.678   4.088  17.989  0.00  0.00    +0.000 A 
ENDBRANCH  12  14
ENDBRANCH   8  12
ENDBRANCH   7   8
ENDBRANCH   1   7
BRANCH   4  20
ATOM     20  C   UNL     1      47.826   7.809  12.348  0.00  0.00    +0.000 C 
BRANCH  20  21
ATOM     21  N   UNL     1      47.089   6.600  12.086  0.00  0.00    +0.000 N 
ATOM     22  C   UNL     1      45.722   6.563  12.184  0.00  0.00    +0.000 C 
ATOM     23  O   UNL     1      45.061   7.559  12.465  0.00  0.00    +0.000 OA
ATOM     24  H   UNL     1      47.613   5.731  12.097  0.00  0.00    +0.000 HD
BRANCH  22  25
ATOM     25  C   UNL     1      45.081   5.279  11.872  0.00  0.00    +0.000 A 
ATOM     26  C   UNL     1      44.400   4.592  12.867  0.00  0.00    +0.000 A 
ATOM     27  S   UNL     1      43.672   3.149  12.324  0.00  0.00    +0.000 S 
ATOM     28  C   UNL     1      44.285   3.365  10.753  0.00  0.00    +0.000 A 
ATOM     29  N   UNL     1      44.049   2.449   9.776  0.00  0.00    +0.000 NA
ATOM     30  C   UNL     1      44.591   2.726   8.640  0.00  0.00    +0.000 A 
ATOM     31  N   UNL     1      45.347   3.842   8.387  0.00  0.00    +0.000 N 
ATOM     32  C   UNL     1      45.595   4.807   9.334  0.00  0.00    +0.000 A 
ATOM     33  O   UNL     1      46.241   5.813   9.064  0.00  0.00    +0.000 OA
ATOM     34  C   UNL     1      45.013   4.536  10.638  0.00  0.00    +0.000 A 
ATOM     35  H   UNL     1      45.736   4.007   7.470  0.00  0.00    +0.000 HD
ENDBRANCH  22  25
ENDBRANCH  20  21
ENDBRANCH   4  20
TORSDOF 8
ENDMDL
