MODEL 1
REMARK VINA RESULT:    -8.087      0.000      0.000
REMARK INTER + INTRA:         -13.442
REMARK INTER:                 -12.578
REMARK INTRA:                  -0.864
REMARK UNBOUND:                -0.864
REMARK  Name = 
REMARK  10 active torsions:
REMARK  status: ('A' for Active; 'I' for Inactive)
REMARK    1  A    between atoms: C_2  and  C_23
REMARK    2  A    between atoms: N_3  and  C_4
REMARK    3  A    between atoms: C_4  and  C_5
REMARK    4  A    between atoms: C_8  and  C_9
REMARK    5  A    between atoms: C_9  and  N_10
REMARK    6  A    between atoms: N_10  and  C_11
REMARK    7  A    between atoms: N_10  and  C_14
REMARK    8  A    between atoms: C_11  and  C_12
REMARK    9  A    between atoms: C_12  and  O_13
REMARK   10  A    between atoms: C_14  and  C_15
REMARK                            x       y       z     vdW  Elec       q    Type
REMARK                         _______ _______ _______ _____ _____    ______ ____
ROOT
ATOM      1  C   UNL     1      48.014   6.472  13.923  0.00  0.00    +0.000 A 
ATOM      2  C   UNL     1      47.043   5.477  14.090  0.00  0.00    +0.000 A 
ATOM      3  C   UNL     1      46.102   5.229  13.087  0.00  0.00    +0.000 A 
ATOM      4  C   UNL     1      46.103   5.993  11.913  0.00  0.00    +0.000 A 
ATOM      5  C   UNL     1      47.141   6.912  11.703  0.00  0.00    +0.000 A 
ATOM      6  C   UNL     1      48.095   7.142  12.697  0.00  0.00    +0.000 A 
ENDROOT
BRANCH   1   7
ATOM      7  C   UNL     1      48.916   6.854  15.067  0.00  0.00    +0.000 C 
BRANCH   7  10
ATOM      8  O   UNL     1      50.704   5.446  16.615  0.00  0.00    +0.000 OA
ATOM      9  C   UNL     1      49.539   5.513  17.006  0.00  0.00    +0.000 C 
ATOM     10  N   UNL     1      48.571   6.188  16.294  0.00  0.00    +0.000 N 
ATOM     11  H   UNL     1      47.643   6.305  16.670  0.00  0.00    +0.000 HD
BRANCH   9  12
ATOM     12  C   UNL     1      49.099   4.889  18.249  0.00  0.00    +0.000 A 
ATOM     13  C   UNL     1      48.872   3.537  18.486  0.00  0.00    +0.000 A 
ATOM     14  N   UNL     1      48.491   3.382  19.795  0.00  0.00    +0.000 N 
ATOM     15  C   UNL     1      48.465   4.594  20.419  0.00  0.00    +0.000 A 
ATOM     16  N   UNL     1      48.137   4.769  21.713  0.00  0.00    +0.000 NA
ATOM     17  C   UNL     1      48.187   6.064  22.095  0.00  0.00    +0.000 A 
ATOM     18  C   UNL     1      48.531   7.137  21.282  0.00  0.00    +0.000 A 
ATOM     19  C   UNL     1      48.862   6.893  19.948  0.00  0.00    +0.000 A 
ATOM     20  C   UNL     1      48.833   5.561  19.494  0.00  0.00    +0.000 A 
ATOM     21  H   UNL     1      48.263   2.514  20.258  0.00  0.00    +0.000 HD
ENDBRANCH   9  12
ENDBRANCH   7  10
ENDBRANCH   1   7
BRANCH   4  22
ATOM     22  C   UNL     1      44.953   5.891  10.929  0.00  0.00    +0.000 C 
BRANCH  22  23
ATOM     23  N   UNL     1      44.525   4.494  10.677  0.00  0.00    +0.000 NA
BRANCH  23  24
ATOM     24  C   UNL     1      43.344   4.112  11.481  0.00  0.00    +0.000 C 
BRANCH  24  25
ATOM     25  C   UNL     1      42.487   5.291  11.983  0.00  0.00    +0.000 C 
BRANCH  25  26
ATOM     26  O   UNL     1      42.552   5.401  13.403  0.00  0.00    +0.000 OA
ATOM     27  H   UNL     1      41.711   5.794  13.700  0.00  0.00    +0.000 HD
ENDBRANCH  25  26
ENDBRANCH  24  25
ENDBRANCH  23  24
BRANCH  23  28
ATOM     28  C   UNL     1      44.312   4.286   9.220  0.00  0.00    +0.000 C 
BRANCH  28  29
ATOM     29  C   UNL     1      45.323   3.430   8.466  0.00  0.00    +0.000 A 
ATOM     30  N   UNL     1      46.107   4.042   7.554  0.00  0.00    +0.000 NA
ATOM     31  C   UNL     1      47.027   3.273   6.941  0.00  0.00    +0.000 A 
ATOM     32  C   UNL     1      47.185   1.931   7.190  0.00  0.00    +0.000 A 
ATOM     33  C   UNL     1      46.318   1.394   8.111  0.00  0.00    +0.000 A 
ATOM     34  N   UNL     1      45.385   2.114   8.761  0.00  0.00    +0.000 NA
ENDBRANCH  28  29
ENDBRANCH  23  28
ENDBRANCH  22  23
ENDBRANCH   4  22
TORSDOF 10
ENDMDL
MODEL 2
REMARK VINA RESULT:    -7.590      2.000      2.775
REMARK INTER + INTRA:         -12.669
REMARK INTER:                 -11.159
REMARK INTRA:                  -1.511
REMARK UNBOUND:                -0.864
REMARK  Name = 
REMARK  10 active torsions:
REMARK  status: ('A' for Active; 'I' for Inactive)
REMARK    1  A    between atoms: C_2  and  C_23
REMARK    2  A    between atoms: N_3  and  C_4
REMARK    3  A    between atoms: C_4  and  C_5
REMARK    4  A    between atoms: C_8  and  C_9
REMARK    5  A    between atoms: C_9  and  N_10
REMARK    6  A    between atoms: N_10  and  C_11
REMARK    7  A    between atoms: N_10  and  C_14
REMARK    8  A    between atoms: C_11  and  C_12
REMARK    9  A    between atoms: C_12  and  O_13
REMARK   10  A    between atoms: C_14  and  C_15
REMARK                            x       y       z     vdW  Elec       q    Type
REMARK                         _______ _______ _______ _____ _____    ______ ____
ROOT
ATOM      1  C   UNL     1      47.757   7.867  12.776  0.00  0.00    +0.000 A 
ATOM      2  C   UNL     1      47.716   6.852  11.812  0.00  0.00    +0.000 A 
ATOM      3  C   UNL     1      46.494   6.418  11.292  0.00  0.00    +0.000 A 
ATOM      4  C   UNL     1      45.294   6.975  11.750  0.00  0.00    +0.000 A 
ATOM      5  C   UNL     1      45.343   8.063  12.633  0.00  0.00    +0.000 A 
ATOM      6  C   UNL     1      46.568   8.511  13.134  0.00  0.00    +0.000 A 
ENDROOT
BRANCH   1   7
ATOM      7  C   UNL     1      49.053   8.215  13.459  0.00  0.00    +0.000 C 
BRANCH   7  10
ATOM      8  O   UNL     1      48.507   8.759  16.102  0.00  0.00    +0.000 OA
ATOM      9  C   UNL     1      49.047   7.684  15.839  0.00  0.00    +0.000 C 
ATOM     10  N   UNL     1      49.366   7.328  14.547  0.00  0.00    +0.000 N 
ATOM     11  H   UNL     1      49.730   6.410  14.341  0.00  0.00    +0.000 HD
BRANCH   9  12
ATOM     12  C   UNL     1      49.384   6.710  16.872  0.00  0.00    +0.000 A 
ATOM     13  C   UNL     1      50.350   6.826  17.865  0.00  0.00    +0.000 A 
ATOM     14  N   UNL     1      50.319   5.692  18.637  0.00  0.00    +0.000 N 
ATOM     15  C   UNL     1      49.359   4.841  18.177  0.00  0.00    +0.000 A 
ATOM     16  N   UNL     1      49.082   3.647  18.732  0.00  0.00    +0.000 NA
ATOM     17  C   UNL     1      48.087   2.991  18.093  0.00  0.00    +0.000 A 
ATOM     18  C   UNL     1      47.395   3.452  16.981  0.00  0.00    +0.000 A 
ATOM     19  C   UNL     1      47.727   4.700  16.450  0.00  0.00    +0.000 A 
ATOM     20  C   UNL     1      48.754   5.432  17.077  0.00  0.00    +0.000 A 
ATOM     21  H   UNL     1      50.903   5.491  19.437  0.00  0.00    +0.000 HD
ENDBRANCH   9  12
ENDBRANCH   7  10
ENDBRANCH   1   7
BRANCH   4  22
ATOM     22  C   UNL     1      43.964   6.353  11.367  0.00  0.00    +0.000 C 
BRANCH  22  23
ATOM     23  N   UNL     1      44.056   4.898  11.100  0.00  0.00    +0.000 NA
BRANCH  23  24
ATOM     24  C   UNL     1      43.154   4.106  11.963  0.00  0.00    +0.000 C 
BRANCH  24  25
ATOM     25  C   UNL     1      43.722   2.752  12.432  0.00  0.00    +0.000 C 
BRANCH  25  26
ATOM     26  O   UNL     1      45.148   2.759  12.405  0.00  0.00    +0.000 OA
ATOM     27  H   UNL     1      45.451   2.104  13.060  0.00  0.00    +0.000 HD
ENDBRANCH  25  26
ENDBRANCH  24  25
ENDBRANCH  23  24
BRANCH  23  28
ATOM     28  C   UNL     1      43.835   4.635   9.653  0.00  0.00    +0.000 C 
BRANCH  28  29
ATOM     29  C   UNL     1      44.876   3.807   8.909  0.00  0.00    +0.000 A 
ATOM     30  N   UNL     1      44.953   2.491   9.199  0.00  0.00    +0.000 NA
ATOM     31  C   UNL     1      45.845   1.772   8.491  0.00  0.00    +0.000 A 
ATOM     32  C   UNL     1      46.661   2.310   7.525  0.00  0.00    +0.000 A 
ATOM     33  C   UNL     1      46.530   3.664   7.326  0.00  0.00    +0.000 A 
ATOM     34  N   UNL     1      45.651   4.431   7.998  0.00  0.00    +0.000 NA
ENDBRANCH  28  29
ENDBRANCH  23  28
ENDBRANCH  22  23
ENDBRANCH   4  22
TORSDOF 10
ENDMDL
MODEL 3
REMARK VINA RESULT:    -7.191      2.270      2.913
REMARK INTER + INTRA:         -12.049
REMARK INTER:                 -10.688
REMARK INTRA:                  -1.361
REMARK UNBOUND:                -0.864
REMARK  Name = 
REMARK  10 active torsions:
REMARK  status: ('A' for Active; 'I' for Inactive)
REMARK    1  A    between atoms: C_2  and  C_23
REMARK    2  A    between atoms: N_3  and  C_4
REMARK    3  A    between atoms: C_4  and  C_5
REMARK    4  A    between atoms: C_8  and  C_9
REMARK    5  A    between atoms: C_9  and  N_10
REMARK    6  A    between atoms: N_10  and  C_11
REMARK    7  A    between atoms: N_10  and  C_14
REMARK    8  A    between atoms: C_11  and  C_12
REMARK    9  A    between atoms: C_12  and  O_13
REMARK   10  A    between atoms: C_14  and  C_15
REMARK                            x       y       z     vdW  Elec       q    Type
REMARK                         _______ _______ _______ _____ _____    ______ ____
ROOT
ATOM      1  C   UNL     1      48.062   7.971  13.045  0.00  0.00    +0.000 A 
ATOM      2  C   UNL     1      48.008   6.902  12.142  0.00  0.00    +0.000 A 
ATOM      3  C   UNL     1      46.795   6.528  11.559  0.00  0.00    +0.000 A 
ATOM      4  C   UNL     1      45.613   7.201  11.893  0.00  0.00    +0.000 A 
ATOM      5  C   UNL     1      45.687   8.337  12.711  0.00  0.00    +0.000 A 
ATOM      6  C   UNL     1      46.905   8.725  13.274  0.00  0.00    +0.000 A 
ENDROOT
BRANCH   1   7
ATOM      7  C   UNL     1      49.331   8.266  13.801  0.00  0.00    +0.000 C 
BRANCH   7  10
ATOM      8  O   UNL     1      48.523   7.953  16.414  0.00  0.00    +0.000 OA
ATOM      9  C   UNL     1      49.277   7.101  15.943  0.00  0.00    +0.000 C 
ATOM     10  N   UNL     1      49.740   7.177  14.647  0.00  0.00    +0.000 N 
ATOM     11  H   UNL     1      50.287   6.428  14.251  0.00  0.00    +0.000 HD
BRANCH   9  12
ATOM     12  C   UNL     1      49.730   5.950  16.717  0.00  0.00    +0.000 A 
ATOM     13  C   UNL     1      48.948   4.956  17.295  0.00  0.00    +0.000 A 
ATOM     14  N   UNL     1      49.778   4.053  17.911  0.00  0.00    +0.000 N 
ATOM     15  C   UNL     1      51.078   4.429  17.747  0.00  0.00    +0.000 A 
ATOM     16  N   UNL     1      52.128   3.740  18.231  0.00  0.00    +0.000 NA
ATOM     17  C   UNL     1      53.314   4.317  17.936  0.00  0.00    +0.000 A 
ATOM     18  C   UNL     1      53.487   5.493  17.218  0.00  0.00    +0.000 A 
ATOM     19  C   UNL     1      52.360   6.164  16.741  0.00  0.00    +0.000 A 
ATOM     20  C   UNL     1      51.096   5.607  17.014  0.00  0.00    +0.000 A 
ATOM     21  H   UNL     1      49.499   3.221  18.411  0.00  0.00    +0.000 HD
ENDBRANCH   9  12
ENDBRANCH   7  10
ENDBRANCH   1   7
BRANCH   4  22
ATOM     22  C   UNL     1      44.268   6.657  11.449  0.00  0.00    +0.000 C 
BRANCH  22  23
ATOM     23  N   UNL     1      44.225   5.177  11.401  0.00  0.00    +0.000 NA
BRANCH  23  24
ATOM     24  C   UNL     1      43.459   4.596  12.524  0.00  0.00    +0.000 C 
BRANCH  24  25
ATOM     25  C   UNL     1      43.665   3.084  12.742  0.00  0.00    +0.000 C 
BRANCH  25  26
ATOM     26  O   UNL     1      45.025   2.717  12.525  0.00  0.00    +0.000 OA
ATOM     27  H   UNL     1      45.158   2.662  11.561  0.00  0.00    +0.000 HD
ENDBRANCH  25  26
ENDBRANCH  24  25
ENDBRANCH  23  24
BRANCH  23  28
ATOM     28  C   UNL     1      43.720   4.729  10.076  0.00  0.00    +0.000 C 
BRANCH  28  29
ATOM     29  C   UNL     1      44.640   3.874   9.212  0.00  0.00    +0.000 A 
ATOM     30  N   UNL     1      45.408   4.507   8.300  0.00  0.00    +0.000 NA
ATOM     31  C   UNL     1      46.250   3.735   7.586  0.00  0.00    +0.000 A 
ATOM     32  C   UNL     1      46.347   2.373   7.738  0.00  0.00    +0.000 A 
ATOM     33  C   UNL     1      45.501   1.819   8.669  0.00  0.00    +0.000 A 
ATOM     34  N   UNL     1      44.645   2.541   9.416  0.00  0.00    +0.000 NA
ENDBRANCH  28  29
ENDBRANCH  23  28
ENDBRANCH  22  23
ENDBRANCH   4  22
TORSDOF 10
ENDMDL
MODEL 4
REMARK VINA RESULT:    -7.153      2.870      3.944
REMARK INTER + INTRA:         -11.989
REMARK INTER:                 -10.805
REMARK INTRA:                  -1.184
REMARK UNBOUND:                -0.864
REMARK  Name = 
REMARK  10 active torsions:
REMARK  status: ('A' for Active; 'I' for Inactive)
REMARK    1  A    between atoms: C_2  and  C_23
REMARK    2  A    between atoms: N_3  and  C_4
REMARK    3  A    between atoms: C_4  and  C_5
REMARK    4  A    between atoms: C_8  and  C_9
REMARK    5  A    between atoms: C_9  and  N_10
REMARK    6  A    between atoms: N_10  and  C_11
REMARK    7  A    between atoms: N_10  and  C_14
REMARK    8  A    between atoms: C_11  and  C_12
REMARK    9  A    between atoms: C_12  and  O_13
REMARK   10  A    between atoms: C_14  and  C_15
REMARK                            x       y       z     vdW  Elec       q    Type
REMARK                         _______ _______ _______ _____ _____    ______ ____
ROOT
ATOM      1  C   UNL     1      47.325   4.194  15.359  0.00  0.00    +0.000 A 
ATOM      2  C   UNL     1      46.757   3.472  14.303  0.00  0.00    +0.000 A 
ATOM      3  C   UNL     1      46.459   4.103  13.093  0.00  0.00    +0.000 A 
ATOM      4  C   UNL     1      46.701   5.472  12.931  0.00  0.00    +0.000 A 
ATOM      5  C   UNL     1      47.369   6.168  13.949  0.00  0.00    +0.000 A 
ATOM      6  C   UNL     1      47.687   5.530  15.150  0.00  0.00    +0.000 A 
ENDROOT
BRANCH   1   7
ATOM      7  C   UNL     1      47.488   3.559  16.715  0.00  0.00    +0.000 C 
BRANCH   7  10
ATOM      8  O   UNL     1      49.598   1.845  16.282  0.00  0.00    +0.000 OA
ATOM      9  C   UNL     1      49.801   2.835  16.984  0.00  0.00    +0.000 C 
ATOM     10  N   UNL     1      48.804   3.745  17.263  0.00  0.00    +0.000 N 
ATOM     11  H   UNL     1      49.009   4.594  17.768  0.00  0.00    +0.000 HD
BRANCH   9  12
ATOM     12  C   UNL     1      51.108   3.121  17.567  0.00  0.00    +0.000 A 
ATOM     13  C   UNL     1      51.567   4.335  18.067  0.00  0.00    +0.000 A 
ATOM     14  N   UNL     1      52.843   4.155  18.540  0.00  0.00    +0.000 N 
ATOM     15  C   UNL     1      53.227   2.859  18.365  0.00  0.00    +0.000 A 
ATOM     16  N   UNL     1      54.425   2.371  18.736  0.00  0.00    +0.000 NA
ATOM     17  C   UNL     1      54.565   1.057  18.456  0.00  0.00    +0.000 A 
ATOM     18  C   UNL     1      53.610   0.251  17.849  0.00  0.00    +0.000 A 
ATOM     19  C   UNL     1      52.386   0.813  17.486  0.00  0.00    +0.000 A 
ATOM     20  C   UNL     1      52.180   2.179  17.759  0.00  0.00    +0.000 A 
ATOM     21  H   UNL     1      53.432   4.857  18.966  0.00  0.00    +0.000 HD
ENDBRANCH   9  12
ENDBRANCH   7  10
ENDBRANCH   1   7
BRANCH   4  22
ATOM     22  C   UNL     1      46.170   6.208  11.715  0.00  0.00    +0.000 C 
BRANCH  22  23
ATOM     23  N   UNL     1      45.111   5.459  10.998  0.00  0.00    +0.000 NA
BRANCH  23  24
ATOM     24  C   UNL     1      43.752   5.915  11.359  0.00  0.00    +0.000 C 
BRANCH  24  25
ATOM     25  C   UNL     1      42.869   4.854  12.048  0.00  0.00    +0.000 C 
BRANCH  25  26
ATOM     26  O   UNL     1      42.831   3.650  11.286  0.00  0.00    +0.000 OA
ATOM     27  H   UNL     1      41.935   3.278  11.381  0.00  0.00    +0.000 HD
ENDBRANCH  25  26
ENDBRANCH  24  25
ENDBRANCH  23  24
BRANCH  23  28
ATOM     28  C   UNL     1      45.358   5.514   9.532  0.00  0.00    +0.000 C 
BRANCH  28  29
ATOM     29  C   UNL     1      45.719   4.215   8.820  0.00  0.00    +0.000 A 
ATOM     30  N   UNL     1      45.292   3.059   9.370  0.00  0.00    +0.000 NA
ATOM     31  C   UNL     1      45.579   1.931   8.693  0.00  0.00    +0.000 A 
ATOM     32  C   UNL     1      46.277   1.911   7.509  0.00  0.00    +0.000 A 
ATOM     33  C   UNL     1      46.695   3.135   7.047  0.00  0.00    +0.000 A 
ATOM     34  N   UNL     1      46.431   4.296   7.676  0.00  0.00    +0.000 NA
ENDBRANCH  28  29
ENDBRANCH  23  28
ENDBRANCH  22  23
ENDBRANCH   4  22
TORSDOF 10
ENDMDL
MODEL 5
REMARK VINA RESULT:    -6.891      3.111      4.880
REMARK INTER + INTRA:         -11.582
REMARK INTER:                 -10.449
REMARK INTRA:                  -1.134
REMARK UNBOUND:                -0.864
REMARK  Name = 
REMARK  10 active torsions:
REMARK  status: ('A' for Active; 'I' for Inactive)
REMARK    1  A    between atoms: C_2  and  C_23
REMARK    2  A    between atoms: N_3  and  C_4
REMARK    3  A    between atoms: C_4  and  C_5
REMARK    4  A    between atoms: C_8  and  C_9
REMARK    5  A    between atoms: C_9  and  N_10
REMARK    6  A    between atoms: N_10  and  C_11
REMARK    7  A    between atoms: N_10  and  C_14
REMARK    8  A    between atoms: C_11  and  C_12
REMARK    9  A    between atoms: C_12  and  O_13
REMARK   10  A    between atoms: C_14  and  C_15
REMARK                            x       y       z     vdW  Elec       q    Type
REMARK                         _______ _______ _______ _____ _____    ______ ____
ROOT
ATOM      1  C   UNL     1      47.754   4.141  16.496  0.00  0.00    +0.000 A 
ATOM      2  C   UNL     1      48.457   5.346  16.614  0.00  0.00    +0.000 A 
ATOM      3  C   UNL     1      48.475   6.262  15.560  0.00  0.00    +0.000 A 
ATOM      4  C   UNL     1      47.810   5.974  14.361  0.00  0.00    +0.000 A 
ATOM      5  C   UNL     1      47.019   4.819  14.285  0.00  0.00    +0.000 A 
ATOM      6  C   UNL     1      46.984   3.915  15.349  0.00  0.00    +0.000 A 
ENDROOT
BRANCH   1   7
ATOM      7  C   UNL     1      47.875   3.082  17.559  0.00  0.00    +0.000 C 
BRANCH   7  10
ATOM      8  O   UNL     1      49.681   1.685  16.022  0.00  0.00    +0.000 OA
ATOM      9  C   UNL     1      50.072   2.127  17.103  0.00  0.00    +0.000 C 
ATOM     10  N   UNL     1      49.238   2.831  17.944  0.00  0.00    +0.000 N 
ATOM     11  H   UNL     1      49.596   3.258  18.785  0.00  0.00    +0.000 HD
BRANCH   9  12
ATOM     12  C   UNL     1      51.442   1.942  17.569  0.00  0.00    +0.000 A 
ATOM     13  C   UNL     1      52.099   0.742  17.817  0.00  0.00    +0.000 A 
ATOM     14  N   UNL     1      53.381   1.022  18.219  0.00  0.00    +0.000 N 
ATOM     15  C   UNL     1      53.578   2.371  18.238  0.00  0.00    +0.000 A 
ATOM     16  N   UNL     1      54.739   2.958  18.584  0.00  0.00    +0.000 NA
ATOM     17  C   UNL     1      54.683   4.307  18.522  0.00  0.00    +0.000 A 
ATOM     18  C   UNL     1      53.573   5.056  18.152  0.00  0.00    +0.000 A 
ATOM     19  C   UNL     1      52.396   4.391  17.805  0.00  0.00    +0.000 A 
ATOM     20  C   UNL     1      52.396   2.984  17.845  0.00  0.00    +0.000 A 
ATOM     21  H   UNL     1      54.096   0.353  18.465  0.00  0.00    +0.000 HD
ENDBRANCH   9  12
ENDBRANCH   7  10
ENDBRANCH   1   7
BRANCH   4  22
ATOM     22  C   UNL     1      48.016   6.849  13.139  0.00  0.00    +0.000 C 
BRANCH  22  23
ATOM     23  N   UNL     1      46.759   7.452  12.637  0.00  0.00    +0.000 NA
BRANCH  23  24
ATOM     24  C   UNL     1      46.839   8.925  12.535  0.00  0.00    +0.000 C 
BRANCH  24  25
ATOM     25  C   UNL     1      45.607   9.604  11.904  0.00  0.00    +0.000 C 
BRANCH  25  26
ATOM     26  O   UNL     1      44.567   9.770  12.865  0.00  0.00    +0.000 OA
ATOM     27  H   UNL     1      44.712  10.630  13.300  0.00  0.00    +0.000 HD
ENDBRANCH  25  26
ENDBRANCH  24  25
ENDBRANCH  23  24
BRANCH  23  28
ATOM     28  C   UNL     1      46.371   6.814  11.350  0.00  0.00    +0.000 C 
BRANCH  28  29
ATOM     29  C   UNL     1      45.148   5.904  11.344  0.00  0.00    +0.000 A 
ATOM     30  N   UNL     1      45.350   4.584  11.148  0.00  0.00    +0.000 NA
ATOM     31  C   UNL     1      44.260   3.796  11.200  0.00  0.00    +0.000 A 
ATOM     32  C   UNL     1      42.990   4.269  11.427  0.00  0.00    +0.000 A 
ATOM     33  C   UNL     1      42.883   5.630  11.583  0.00  0.00    +0.000 A 
ATOM     34  N   UNL     1      43.938   6.465  11.549  0.00  0.00    +0.000 NA
ENDBRANCH  28  29
ENDBRANCH  23  28
ENDBRANCH  22  23
ENDBRANCH   4  22
TORSDOF 10
ENDMDL
MODEL 6
REMARK VINA RESULT:    -6.861      1.350      2.096
REMARK INTER + INTRA:         -11.535
REMARK INTER:                 -11.018
REMARK INTRA:                  -0.517
REMARK UNBOUND:                -0.864
REMARK  Name = 
REMARK  10 active torsions:
REMARK  status: ('A' for Active; 'I' for Inactive)
REMARK    1  A    between atoms: C_2  and  C_23
REMARK    2  A    between atoms: N_3  and  C_4
REMARK    3  A    between atoms: C_4  and  C_5
REMARK    4  A    between atoms: C_8  and  C_9
REMARK    5  A    between atoms: C_9  and  N_10
REMARK    6  A    between atoms: N_10  and  C_11
REMARK    7  A    between atoms: N_10  and  C_14
REMARK    8  A    between atoms: C_11  and  C_12
REMARK    9  A    between atoms: C_12  and  O_13
REMARK   10  A    between atoms: C_14  and  C_15
REMARK                            x       y       z     vdW  Elec       q    Type
REMARK                         _______ _______ _______ _____ _____    ______ ____
ROOT
ATOM      1  C   UNL     1      47.794   6.299  13.979  0.00  0.00    +0.000 A 
ATOM      2  C   UNL     1      47.738   7.315  13.017  0.00  0.00    +0.000 A 
ATOM      3  C   UNL     1      46.848   7.227  11.944  0.00  0.00    +0.000 A 
ATOM      4  C   UNL     1      46.019   6.107  11.803  0.00  0.00    +0.000 A 
ATOM      5  C   UNL     1      45.999   5.145  12.824  0.00  0.00    +0.000 A 
ATOM      6  C   UNL     1      46.874   5.247  13.908  0.00  0.00    +0.000 A 
ENDROOT
BRANCH   1   7
ATOM      7  C   UNL     1      48.867   6.309  15.035  0.00  0.00    +0.000 C 
BRANCH   7  10
ATOM      8  O   UNL     1      50.045   7.904  16.945  0.00  0.00    +0.000 OA
ATOM      9  C   UNL     1      48.999   7.328  17.247  0.00  0.00    +0.000 C 
ATOM     10  N   UNL     1      48.342   6.503  16.360  0.00  0.00    +0.000 N 
ATOM     11  H   UNL     1      47.444   6.108  16.594  0.00  0.00    +0.000 HD
BRANCH   9  12
ATOM     12  C   UNL     1      48.378   7.480  18.559  0.00  0.00    +0.000 A 
ATOM     13  C   UNL     1      47.649   8.565  19.032  0.00  0.00    +0.000 A 
ATOM     14  N   UNL     1      47.228   8.283  20.308  0.00  0.00    +0.000 N 
ATOM     15  C   UNL     1      47.660   7.044  20.678  0.00  0.00    +0.000 A 
ATOM     16  N   UNL     1      47.400   6.481  21.873  0.00  0.00    +0.000 NA
ATOM     17  C   UNL     1      47.938   5.248  21.998  0.00  0.00    +0.000 A 
ATOM     18  C   UNL     1      48.687   4.588  21.033  0.00  0.00    +0.000 A 
ATOM     19  C   UNL     1      48.924   5.223  19.812  0.00  0.00    +0.000 A 
ATOM     20  C   UNL     1      48.384   6.509  19.622  0.00  0.00    +0.000 A 
ATOM     21  H   UNL     1      46.674   8.880  20.905  0.00  0.00    +0.000 HD
ENDBRANCH   9  12
ENDBRANCH   7  10
ENDBRANCH   1   7
BRANCH   4  22
ATOM     22  C   UNL     1      45.224   5.895  10.529  0.00  0.00    +0.000 C 
BRANCH  22  23
ATOM     23  N   UNL     1      44.709   4.512  10.387  0.00  0.00    +0.000 NA
BRANCH  23  24
ATOM     24  C   UNL     1      43.502   4.272  11.206  0.00  0.00    +0.000 C 
BRANCH  24  25
ATOM     25  C   UNL     1      43.245   2.796  11.571  0.00  0.00    +0.000 C 
BRANCH  25  26
ATOM     26  O   UNL     1      44.132   2.361  12.598  0.00  0.00    +0.000 OA
ATOM     27  H   UNL     1      45.012   2.255  12.193  0.00  0.00    +0.000 HD
ENDBRANCH  25  26
ENDBRANCH  24  25
ENDBRANCH  23  24
BRANCH  23  28
ATOM     28  C   UNL     1      44.492   4.199   8.949  0.00  0.00    +0.000 C 
BRANCH  28  29
ATOM     29  C   UNL     1      45.514   3.309   8.250  0.00  0.00    +0.000 A 
ATOM     30  N   UNL     1      46.327   3.884   7.340  0.00  0.00    +0.000 NA
ATOM     31  C   UNL     1      47.255   3.087   6.776  0.00  0.00    +0.000 A 
ATOM     32  C   UNL     1      47.393   1.753   7.073  0.00  0.00    +0.000 A 
ATOM     33  C   UNL     1      46.498   1.254   7.988  0.00  0.00    +0.000 A 
ATOM     34  N   UNL     1      45.555   2.004   8.590  0.00  0.00    +0.000 NA
ENDBRANCH  28  29
ENDBRANCH  23  28
ENDBRANCH  22  23
ENDBRANCH   4  22
TORSDOF 10
ENDMDL
MODEL 7
REMARK VINA RESULT:    -6.520      2.614      9.451
REMARK INTER + INTRA:         -11.005
REMARK INTER:                  -9.990
REMARK INTRA:                  -1.015
REMARK UNBOUND:                -0.864
REMARK  Name = 
REMARK  10 active torsions:
REMARK  status: ('A' for Active; 'I' for Inactive)
REMARK    1  A    between atoms: C_2  and  C_23
REMARK    2  A    between atoms: N_3  and  C_4
REMARK    3  A    between atoms: C_4  and  C_5
REMARK    4  A    between atoms: C_8  and  C_9
REMARK    5  A    between atoms: C_9  and  N_10
REMARK    6  A    between atoms: N_10  and  C_11
REMARK    7  A    between atoms: N_10  and  C_14
REMARK    8  A    between atoms: C_11  and  C_12
REMARK    9  A    between atoms: C_12  and  O_13
REMARK   10  A    between atoms: C_14  and  C_15
REMARK                            x       y       z     vdW  Elec       q    Type
REMARK                         _______ _______ _______ _____ _____    ______ ____
ROOT
ATOM      1  C   UNL     1      45.643   8.527  12.134  0.00  0.00    +0.000 A 
ATOM      2  C   UNL     1      46.301   7.795  13.130  0.00  0.00    +0.000 A 
ATOM      3  C   UNL     1      47.477   8.282  13.706  0.00  0.00    +0.000 A 
ATOM      4  C   UNL     1      48.026   9.496  13.275  0.00  0.00    +0.000 A 
ATOM      5  C   UNL     1      47.308  10.277  12.358  0.00  0.00    +0.000 A 
ATOM      6  C   UNL     1      46.120   9.800  11.800  0.00  0.00    +0.000 A 
ENDROOT
BRANCH   1   7
ATOM      7  C   UNL     1      44.476   7.928  11.395  0.00  0.00    +0.000 C 
BRANCH   7  10
ATOM      8  O   UNL     1      42.481   6.030  11.391  0.00  0.00    +0.000 OA
ATOM      9  C   UNL     1      43.616   5.667  11.081  0.00  0.00    +0.000 C 
ATOM     10  N   UNL     1      44.679   6.543  11.062  0.00  0.00    +0.000 N 
ATOM     11  H   UNL     1      45.583   6.249  10.724  0.00  0.00    +0.000 HD
BRANCH   9  12
ATOM     12  C   UNL     1      43.916   4.289  10.707  0.00  0.00    +0.000 A 
ATOM     13  C   UNL     1      43.452   3.126  11.311  0.00  0.00    +0.000 A 
ATOM     14  N   UNL     1      43.961   2.049  10.630  0.00  0.00    +0.000 N 
ATOM     15  C   UNL     1      44.742   2.477   9.598  0.00  0.00    +0.000 A 
ATOM     16  N   UNL     1      45.376   1.655   8.741  0.00  0.00    +0.000 NA
ATOM     17  C   UNL     1      46.087   2.322   7.805  0.00  0.00    +0.000 A 
ATOM     18  C   UNL     1      46.189   3.703   7.695  0.00  0.00    +0.000 A 
ATOM     19  C   UNL     1      45.509   4.504   8.614  0.00  0.00    +0.000 A 
ATOM     20  C   UNL     1      44.746   3.865   9.610  0.00  0.00    +0.000 A 
ATOM     21  H   UNL     1      43.796   1.074  10.834  0.00  0.00    +0.000 HD
ENDBRANCH   9  12
ENDBRANCH   7  10
ENDBRANCH   1   7
BRANCH   4  22
ATOM     22  C   UNL     1      49.413   9.915  13.724  0.00  0.00    +0.000 C 
BRANCH  22  23
ATOM     23  N   UNL     1      50.360   8.779  13.826  0.00  0.00    +0.000 NA
BRANCH  23  24
ATOM     24  C   UNL     1      51.451   8.861  12.832  0.00  0.00    +0.000 C 
BRANCH  24  25
ATOM     25  C   UNL     1      51.082   8.372  11.416  0.00  0.00    +0.000 C 
BRANCH  25  26
ATOM     26  O   UNL     1      51.817   7.200  11.074  0.00  0.00    +0.000 OA
ATOM     27  H   UNL     1      52.588   7.159  11.669  0.00  0.00    +0.000 HD
ENDBRANCH  25  26
ENDBRANCH  24  25
ENDBRANCH  23  24
BRANCH  23  28
ATOM     28  C   UNL     1      50.867   8.668  15.220  0.00  0.00    +0.000 C 
BRANCH  28  29
ATOM     29  C   UNL     1      50.097   7.781  16.191  0.00  0.00    +0.000 A 
ATOM     30  N   UNL     1      49.688   8.333  17.353  0.00  0.00    +0.000 NA
ATOM     31  C   UNL     1      48.965   7.543  18.170  0.00  0.00    +0.000 A 
ATOM     32  C   UNL     1      48.648   6.238  17.881  0.00  0.00    +0.000 A 
ATOM     33  C   UNL     1      49.137   5.759  16.690  0.00  0.00    +0.000 A 
ATOM     34  N   UNL     1      49.858   6.503  15.831  0.00  0.00    +0.000 NA
ENDBRANCH  28  29
ENDBRANCH  23  28
ENDBRANCH  22  23
ENDBRANCH   4  22
TORSDOF 10
ENDMDL
MODEL 8
REMARK VINA RESULT:    -6.473      3.270      4.919
REMARK INTER + INTRA:         -10.932
REMARK INTER:                 -10.034
REMARK INTRA:                  -0.898
REMARK UNBOUND:                -0.864
REMARK  Name = 
REMARK  10 active torsions:
REMARK  status: ('A' for Active; 'I' for Inactive)
REMARK    1  A    between atoms: C_2  and  C_23
REMARK    2  A    between atoms: N_3  and  C_4
REMARK    3  A    between atoms: C_4  and  C_5
REMARK    4  A    between atoms: C_8  and  C_9
REMARK    5  A    between atoms: C_9  and  N_10
REMARK    6  A    between atoms: N_10  and  C_11
REMARK    7  A    between atoms: N_10  and  C_14
REMARK    8  A    between atoms: C_11  and  C_12
REMARK    9  A    between atoms: C_12  and  O_13
REMARK   10  A    between atoms: C_14  and  C_15
REMARK                            x       y       z     vdW  Elec       q    Type
REMARK                         _______ _______ _______ _____ _____    ______ ____
ROOT
ATOM      1  C   UNL     1      47.729   4.701  15.864  0.00  0.00    +0.000 A 
ATOM      2  C   UNL     1      47.027   4.095  14.815  0.00  0.00    +0.000 A 
ATOM      3  C   UNL     1      46.867   4.755  13.594  0.00  0.00    +0.000 A 
ATOM      4  C   UNL     1      47.384   6.044  13.415  0.00  0.00    +0.000 A 
ATOM      5  C   UNL     1      48.178   6.604  14.426  0.00  0.00    +0.000 A 
ATOM      6  C   UNL     1      48.356   5.932  15.638  0.00  0.00    +0.000 A 
ENDROOT
BRANCH   1   7
ATOM      7  C   UNL     1      47.756   4.066  17.229  0.00  0.00    +0.000 C 
BRANCH   7  10
ATOM      8  O   UNL     1      49.750   2.296  16.549  0.00  0.00    +0.000 OA
ATOM      9  C   UNL     1      50.005   3.142  17.406  0.00  0.00    +0.000 C 
ATOM     10  N   UNL     1      49.068   4.065  17.817  0.00  0.00    +0.000 N 
ATOM     11  H   UNL     1      49.319   4.803  18.457  0.00  0.00    +0.000 HD
BRANCH   9  12
ATOM     12  C   UNL     1      51.314   3.232  18.044  0.00  0.00    +0.000 A 
ATOM     13  C   UNL     1      51.826   4.294  18.782  0.00  0.00    +0.000 A 
ATOM     14  N   UNL     1      53.082   3.954  19.219  0.00  0.00    +0.000 N 
ATOM     15  C   UNL     1      53.402   2.701  18.789  0.00  0.00    +0.000 A 
ATOM     16  N   UNL     1      54.566   2.084  19.064  0.00  0.00    +0.000 NA
ATOM     17  C   UNL     1      54.643   0.847  18.525  0.00  0.00    +0.000 A 
ATOM     18  C   UNL     1      53.659   0.233  17.761  0.00  0.00    +0.000 A 
ATOM     19  C   UNL     1      52.472   0.922  17.509  0.00  0.00    +0.000 A 
ATOM     20  C   UNL     1      52.332   2.215  18.050  0.00  0.00    +0.000 A 
ATOM     21  H   UNL     1      53.698   4.523  19.782  0.00  0.00    +0.000 HD
ENDBRANCH   9  12
ENDBRANCH   7  10
ENDBRANCH   1   7
BRANCH   4  22
ATOM     22  C   UNL     1      47.017   6.855  12.186  0.00  0.00    +0.000 C 
BRANCH  22  23
ATOM     23  N   UNL     1      45.821   7.707  12.387  0.00  0.00    +0.000 NA
BRANCH  23  24
ATOM     24  C   UNL     1      46.129   9.149  12.273  0.00  0.00    +0.000 C 
BRANCH  24  25
ATOM     25  C   UNL     1      44.941  10.039  11.854  0.00  0.00    +0.000 C 
BRANCH  25  26
ATOM     26  O   UNL     1      45.169  11.398  12.218  0.00  0.00    +0.000 OA
ATOM     27  H   UNL     1      44.820  11.952  11.496  0.00  0.00    +0.000 HD
ENDBRANCH  25  26
ENDBRANCH  24  25
ENDBRANCH  23  24
BRANCH  23  28
ATOM     28  C   UNL     1      44.737   7.282  11.461  0.00  0.00    +0.000 C 
BRANCH  28  29
ATOM     29  C   UNL     1      44.201   5.862  11.593  0.00  0.00    +0.000 A 
ATOM     30  N   UNL     1      44.369   5.029  10.545  0.00  0.00    +0.000 NA
ATOM     31  C   UNL     1      43.934   3.765  10.707  0.00  0.00    +0.000 A 
ATOM     32  C   UNL     1      43.334   3.308  11.856  0.00  0.00    +0.000 A 
ATOM     33  C   UNL     1      43.180   4.240  12.854  0.00  0.00    +0.000 A 
ATOM     34  N   UNL     1      43.602   5.514  12.752  0.00  0.00    +0.000 NA
ENDBRANCH  28  29
ENDBRANCH  23  28
ENDBRANCH  22  23
ENDBRANCH   4  22
TORSDOF 10
ENDMDL
MODEL 9
REMARK VINA RESULT:    -6.447      2.245      8.965
REMARK INTER + INTRA:         -10.891
REMARK INTER:                  -9.269
REMARK INTRA:                  -1.622
REMARK UNBOUND:                -0.864
REMARK  Name = 
REMARK  10 active torsions:
REMARK  status: ('A' for Active; 'I' for Inactive)
REMARK    1  A    between atoms: C_2  and  C_23
REMARK    2  A    between atoms: N_3  and  C_4
REMARK    3  A    between atoms: C_4  and  C_5
REMARK    4  A    between atoms: C_8  and  C_9
REMARK    5  A    between atoms: C_9  and  N_10
REMARK    6  A    between atoms: N_10  and  C_11
REMARK    7  A    between atoms: N_10  and  C_14
REMARK    8  A    between atoms: C_11  and  C_12
REMARK    9  A    between atoms: C_12  and  O_13
REMARK   10  A    between atoms: C_14  and  C_15
REMARK                            x       y       z     vdW  Elec       q    Type
REMARK                         _______ _______ _______ _____ _____    ______ ____
ROOT
ATOM      1  C   UNL     1      48.973   8.098  14.296  0.00  0.00    +0.000 A 
ATOM      2  C   UNL     1      48.148   8.941  15.050  0.00  0.00    +0.000 A 
ATOM      3  C   UNL     1      48.362   9.100  16.421  0.00  0.00    +0.000 A 
ATOM      4  C   UNL     1      49.388   8.397  17.063  0.00  0.00    +0.000 A 
ATOM      5  C   UNL     1      50.279   7.639  16.289  0.00  0.00    +0.000 A 
ATOM      6  C   UNL     1      50.078   7.500  14.914  0.00  0.00    +0.000 A 
ENDROOT
BRANCH   1   7
ATOM      7  C   UNL     1      48.641   7.793  12.859  0.00  0.00    +0.000 C 
BRANCH   7  10
ATOM      8  O   UNL     1      45.920   7.807  12.441  0.00  0.00    +0.000 OA
ATOM      9  C   UNL     1      46.484   6.715  12.497  0.00  0.00    +0.000 C 
ATOM     10  N   UNL     1      47.841   6.607  12.712  0.00  0.00    +0.000 N 
ATOM     11  H   UNL     1      48.299   5.710  12.671  0.00  0.00    +0.000 HD
BRANCH   9  12
ATOM     12  C   UNL     1      45.761   5.457  12.338  0.00  0.00    +0.000 A 
ATOM     13  C   UNL     1      45.272   4.627  13.342  0.00  0.00    +0.000 A 
ATOM     14  N   UNL     1      44.637   3.562  12.754  0.00  0.00    +0.000 N 
ATOM     15  C   UNL     1      44.696   3.675  11.396  0.00  0.00    +0.000 A 
ATOM     16  N   UNL     1      44.156   2.787  10.541  0.00  0.00    +0.000 NA
ATOM     17  C   UNL     1      44.348   3.123   9.247  0.00  0.00    +0.000 A 
ATOM     18  C   UNL     1      45.025   4.248   8.793  0.00  0.00    +0.000 A 
ATOM     19  C   UNL     1      45.564   5.133   9.727  0.00  0.00    +0.000 A 
ATOM     20  C   UNL     1      45.390   4.838  11.093  0.00  0.00    +0.000 A 
ATOM     21  H   UNL     1      44.180   2.796  13.228  0.00  0.00    +0.000 HD
ENDBRANCH   9  12
ENDBRANCH   7  10
ENDBRANCH   1   7
BRANCH   4  22
ATOM     22  C   UNL     1      49.480   8.383  18.578  0.00  0.00    +0.000 C 
BRANCH  22  23
ATOM     23  N   UNL     1      49.529   7.015  19.146  0.00  0.00    +0.000 NA
BRANCH  23  24
ATOM     24  C   UNL     1      49.987   7.002  20.551  0.00  0.00    +0.000 C 
BRANCH  24  25
ATOM     25  C   UNL     1      49.881   5.637  21.260  0.00  0.00    +0.000 C 
BRANCH  25  26
ATOM     26  O   UNL     1      50.713   4.667  20.627  0.00  0.00    +0.000 OA
ATOM     27  H   UNL     1      50.710   4.864  19.672  0.00  0.00    +0.000 HD
ENDBRANCH  25  26
ENDBRANCH  24  25
ENDBRANCH  23  24
BRANCH  23  28
ATOM     28  C   UNL     1      48.211   6.348  18.971  0.00  0.00    +0.000 C 
BRANCH  28  29
ATOM     29  C   UNL     1      48.168   5.046  18.181  0.00  0.00    +0.000 A 
ATOM     30  N   UNL     1      49.342   4.433  17.919  0.00  0.00    +0.000 NA
ATOM     31  C   UNL     1      49.273   3.258  17.265  0.00  0.00    +0.000 A 
ATOM     32  C   UNL     1      48.093   2.682  16.858  0.00  0.00    +0.000 A 
ATOM     33  C   UNL     1      46.955   3.398  17.143  0.00  0.00    +0.000 A 
ATOM     34  N   UNL     1      46.963   4.573  17.800  0.00  0.00    +0.000 NA
ENDBRANCH  28  29
ENDBRANCH  23  28
ENDBRANCH  22  23
ENDBRANCH   4  22
TORSDOF 10
ENDMDL
