MODEL 1
REMARK VINA RESULT:    -7.457      0.000      0.000
REMARK INTER + INTRA:         -11.847
REMARK INTER:                 -10.945
REMARK INTRA:                  -0.902
REMARK UNBOUND:                -0.902
REMARK  Name = 
REMARK  10 active torsions:
REMARK  status: ('A' for Active; 'I' for Inactive)
REMARK    1  A    between atoms: C_1  and  N_2
REMARK    2  A    between atoms: N_2  and  C_3
REMARK    3  A    between atoms: N_2  and  C_4
REMARK    4  A    between atoms: C_4  and  C_5
REMARK    5  A    between atoms: C_5  and  O_6
REMARK    6  A    between atoms: O_6  and  C_7
REMARK    7  A    between atoms: C_10  and  C_11
REMARK    8  A    between atoms: C_11  and  C_12
REMARK    9  A    between atoms: C_12  and  N_13
REMARK   10  A    between atoms: C_17  and  C_18
REMARK                            x       y       z     vdW  Elec       q    Type
REMARK                         _______ _______ _______ _____ _____    ______ ____
ROOT
ATOM      1  C   UNL     1      43.163   4.544  11.026  0.00  0.00    +0.000 C 
ENDROOT
BRANCH   1   2
ATOM      2  N   UNL     1      43.998   5.067   9.941  0.00  0.00    +0.000 N 
ATOM      3  C   UNL     1      44.737   4.043   9.310  0.00  0.00    +0.000 A 
ATOM      4  C   UNL     1      45.586   4.379   8.261  0.00  0.00    +0.000 A 
ATOM      5  C   UNL     1      46.333   3.378   7.633  0.00  0.00    +0.000 A 
ATOM      6  C   UNL     1      46.220   2.055   8.061  0.00  0.00    +0.000 A 
ATOM      7  C   UNL     1      45.335   1.806   9.095  0.00  0.00    +0.000 A 
ATOM      8  N   UNL     1      44.600   2.763   9.714  0.00  0.00    +0.000 NA
ATOM      9  H   UNL     1      44.649   5.778  10.265  0.00  0.00    +0.000 HD
BRANCH   6  10
ATOM     10  C   UNL     1      47.033   1.000   7.413  0.00  0.00    +0.000 C 
ATOM     11  N   UNL     1      47.871   1.335   6.386  0.00  0.00    +0.000 N 
ATOM     12  O   UNL     1      46.957  -0.170   7.780  0.00  0.00    +0.000 OA
ATOM     13  H   UNL     1      47.999   2.256   5.996  0.00  0.00    +0.000 HD
ATOM     14  H   UNL     1      48.394   0.577   5.968  0.00  0.00    +0.000 HD
ENDBRANCH   6  10
ENDBRANCH   1   2
BRANCH   1  15
ATOM     15  C   UNL     1      43.308   5.355  12.319  0.00  0.00    +0.000 C 
BRANCH  15  19
ATOM     16  C   UNL     1      47.402   5.975  13.649  0.00  0.00    +0.000 A 
ATOM     17  C   UNL     1      46.663   7.044  13.148  0.00  0.00    +0.000 A 
ATOM     18  C   UNL     1      45.350   6.856  12.710  0.00  0.00    +0.000 A 
ATOM     19  C   UNL     1      44.743   5.594  12.757  0.00  0.00    +0.000 A 
ATOM     20  C   UNL     1      45.504   4.518  13.234  0.00  0.00    +0.000 A 
ATOM     21  C   UNL     1      46.823   4.706  13.668  0.00  0.00    +0.000 A 
BRANCH  16  22
ATOM     22  O   UNL     1      48.690   6.059  14.112  0.00  0.00    +0.000 OA
BRANCH  22  23
ATOM     23  C   UNL     1      48.893   7.035  15.141  0.00  0.00    +0.000 C 
BRANCH  23  24
ATOM     24  C   UNL     1      48.779   6.374  16.523  0.00  0.00    +0.000 C 
BRANCH  24  26
ATOM     25  C   UNL     1      50.538   5.003  17.435  0.00  0.00    +0.000 C 
ATOM     26  N   UNL     1      49.343   5.008  16.585  0.00  0.00    +0.000 NA
ATOM     27  C   UNL     1      48.382   4.023  17.089  0.00  0.00    +0.000 C 
ENDBRANCH  24  26
ENDBRANCH  23  24
ENDBRANCH  22  23
ENDBRANCH  16  22
ENDBRANCH  15  19
ENDBRANCH   1  15
TORSDOF 8
ENDMDL
MODEL 2
REMARK VINA RESULT:    -7.001      1.262      1.626
REMARK INTER + INTRA:         -11.178
REMARK INTER:                 -10.482
REMARK INTRA:                  -0.696
REMARK UNBOUND:                -0.902
REMARK  Name = 
REMARK  10 active torsions:
REMARK  status: ('A' for Active; 'I' for Inactive)
REMARK    1  A    between atoms: C_1  and  N_2
REMARK    2  A    between atoms: N_2  and  C_3
REMARK    3  A    between atoms: N_2  and  C_4
REMARK    4  A    between atoms: C_4  and  C_5
REMARK    5  A    between atoms: C_5  and  O_6
REMARK    6  A    between atoms: O_6  and  C_7
REMARK    7  A    between atoms: C_10  and  C_11
REMARK    8  A    between atoms: C_11  and  C_12
REMARK    9  A    between atoms: C_12  and  N_13
REMARK   10  A    between atoms: C_17  and  C_18
REMARK                            x       y       z     vdW  Elec       q    Type
REMARK                         _______ _______ _______ _____ _____    ______ ____
ROOT
ATOM      1  C   UNL     1      43.621   5.006  10.309  0.00  0.00    +0.000 C 
ENDROOT
BRANCH   1   2
ATOM      2  N   UNL     1      43.936   3.575  10.295  0.00  0.00    +0.000 N 
ATOM      3  C   UNL     1      44.844   3.250   9.264  0.00  0.00    +0.000 A 
ATOM      4  C   UNL     1      45.240   1.925   9.113  0.00  0.00    +0.000 A 
ATOM      5  C   UNL     1      46.130   1.586   8.090  0.00  0.00    +0.000 A 
ATOM      6  C   UNL     1      46.614   2.575   7.233  0.00  0.00    +0.000 A 
ATOM      7  C   UNL     1      46.188   3.870   7.470  0.00  0.00    +0.000 A 
ATOM      8  N   UNL     1      45.328   4.219   8.458  0.00  0.00    +0.000 NA
ATOM      9  H   UNL     1      43.106   2.999  10.183  0.00  0.00    +0.000 HD
BRANCH   6  10
ATOM     10  C   UNL     1      47.536   2.209   6.132  0.00  0.00    +0.000 C 
ATOM     11  N   UNL     1      48.867   2.498   6.249  0.00  0.00    +0.000 N 
ATOM     12  O   UNL     1      47.117   1.661   5.116  0.00  0.00    +0.000 OA
ATOM     13  H   UNL     1      49.313   2.958   7.028  0.00  0.00    +0.000 HD
ATOM     14  H   UNL     1      49.452   2.240   5.465  0.00  0.00    +0.000 HD
ENDBRANCH   6  10
ENDBRANCH   1   2
BRANCH   1  15
ATOM     15  C   UNL     1      43.541   5.574  11.731  0.00  0.00    +0.000 C 
BRANCH  15  19
ATOM     16  C   UNL     1      47.316   5.778  13.881  0.00  0.00    +0.000 A 
ATOM     17  C   UNL     1      46.983   6.771  12.963  0.00  0.00    +0.000 A 
ATOM     18  C   UNL     1      45.777   6.713  12.260  0.00  0.00    +0.000 A 
ATOM     19  C   UNL     1      44.875   5.658  12.453  0.00  0.00    +0.000 A 
ATOM     20  C   UNL     1      45.232   4.647  13.356  0.00  0.00    +0.000 A 
ATOM     21  C   UNL     1      46.445   4.704  14.057  0.00  0.00    +0.000 A 
BRANCH  16  22
ATOM     22  O   UNL     1      48.467   5.752  14.626  0.00  0.00    +0.000 OA
BRANCH  22  23
ATOM     23  C   UNL     1      48.262   5.781  16.045  0.00  0.00    +0.000 C 
BRANCH  23  24
ATOM     24  C   UNL     1      49.171   4.750  16.729  0.00  0.00    +0.000 C 
BRANCH  24  26
ATOM     25  C   UNL     1      49.686   2.438  17.166  0.00  0.00    +0.000 C 
ATOM     26  N   UNL     1      48.669   3.361  16.656  0.00  0.00    +0.000 NA
ATOM     27  C   UNL     1      47.422   3.173  17.402  0.00  0.00    +0.000 C 
ENDBRANCH  24  26
ENDBRANCH  23  24
ENDBRANCH  22  23
ENDBRANCH  16  22
ENDBRANCH  15  19
ENDBRANCH   1  15
TORSDOF 8
ENDMDL
MODEL 3
REMARK VINA RESULT:    -6.859      2.014      2.773
REMARK INTER + INTRA:         -10.969
REMARK INTER:                 -10.260
REMARK INTRA:                  -0.709
REMARK UNBOUND:                -0.902
REMARK  Name = 
REMARK  10 active torsions:
REMARK  status: ('A' for Active; 'I' for Inactive)
REMARK    1  A    between atoms: C_1  and  N_2
REMARK    2  A    between atoms: N_2  and  C_3
REMARK    3  A    between atoms: N_2  and  C_4
REMARK    4  A    between atoms: C_4  and  C_5
REMARK    5  A    between atoms: C_5  and  O_6
REMARK    6  A    between atoms: O_6  and  C_7
REMARK    7  A    between atoms: C_10  and  C_11
REMARK    8  A    between atoms: C_11  and  C_12
REMARK    9  A    between atoms: C_12  and  N_13
REMARK   10  A    between atoms: C_17  and  C_18
REMARK                            x       y       z     vdW  Elec       q    Type
REMARK                         _______ _______ _______ _____ _____    ______ ____
ROOT
ATOM      1  C   UNL     1      43.157   4.219  11.054  0.00  0.00    +0.000 C 
ENDROOT
BRANCH   1   2
ATOM      2  N   UNL     1      43.958   4.923  10.049  0.00  0.00    +0.000 N 
ATOM      3  C   UNL     1      44.772   4.033   9.314  0.00  0.00    +0.000 A 
ATOM      4  C   UNL     1      45.601   4.548   8.322  0.00  0.00    +0.000 A 
ATOM      5  C   UNL     1      46.421   3.682   7.594  0.00  0.00    +0.000 A 
ATOM      6  C   UNL     1      46.401   2.313   7.865  0.00  0.00    +0.000 A 
ATOM      7  C   UNL     1      45.530   1.884   8.851  0.00  0.00    +0.000 A 
ATOM      8  N   UNL     1      44.725   2.708   9.566  0.00  0.00    +0.000 NA
ATOM      9  H   UNL     1      44.555   5.635  10.461  0.00  0.00    +0.000 HD
BRANCH   6  10
ATOM     10  C   UNL     1      47.291   1.400   7.110  0.00  0.00    +0.000 C 
ATOM     11  N   UNL     1      48.434   1.895   6.545  0.00  0.00    +0.000 N 
ATOM     12  O   UNL     1      47.011   0.212   6.980  0.00  0.00    +0.000 OA
ATOM     13  H   UNL     1      48.750   2.851   6.576  0.00  0.00    +0.000 HD
ATOM     14  H   UNL     1      49.001   1.234   6.029  0.00  0.00    +0.000 HD
ENDBRANCH   6  10
ENDBRANCH   1   2
BRANCH   1  15
ATOM     15  C   UNL     1      43.301   4.834  12.452  0.00  0.00    +0.000 C 
BRANCH  15  19
ATOM     16  C   UNL     1      47.380   5.922  13.493  0.00  0.00    +0.000 A 
ATOM     17  C   UNL     1      46.971   4.594  13.578  0.00  0.00    +0.000 A 
ATOM     18  C   UNL     1      45.661   4.233  13.253  0.00  0.00    +0.000 A 
ATOM     19  C   UNL     1      44.725   5.190  12.841  0.00  0.00    +0.000 A 
ATOM     20  C   UNL     1      45.137   6.530  12.789  0.00  0.00    +0.000 A 
ATOM     21  C   UNL     1      46.450   6.892  13.119  0.00  0.00    +0.000 A 
BRANCH  16  22
ATOM     22  O   UNL     1      48.643   6.375  13.778  0.00  0.00    +0.000 OA
BRANCH  22  23
ATOM     23  C   UNL     1      49.262   7.125  12.724  0.00  0.00    +0.000 C 
BRANCH  23  24
ATOM     24  C   UNL     1      50.401   7.985  13.290  0.00  0.00    +0.000 C 
BRANCH  24  26
ATOM     25  C   UNL     1      52.588   8.844  12.758  0.00  0.00    +0.000 C 
ATOM     26  N   UNL     1      51.224   8.650  12.257  0.00  0.00    +0.000 NA
ATOM     27  C   UNL     1      51.269   7.897  11.001  0.00  0.00    +0.000 C 
ENDBRANCH  24  26
ENDBRANCH  23  24
ENDBRANCH  22  23
ENDBRANCH  16  22
ENDBRANCH  15  19
ENDBRANCH   1  15
TORSDOF 8
ENDMDL
MODEL 4
REMARK VINA RESULT:    -6.694      2.228      3.215
REMARK INTER + INTRA:         -10.726
REMARK INTER:                  -9.811
REMARK INTRA:                  -0.915
REMARK UNBOUND:                -0.902
REMARK  Name = 
REMARK  10 active torsions:
REMARK  status: ('A' for Active; 'I' for Inactive)
REMARK    1  A    between atoms: C_1  and  N_2
REMARK    2  A    between atoms: N_2  and  C_3
REMARK    3  A    between atoms: N_2  and  C_4
REMARK    4  A    between atoms: C_4  and  C_5
REMARK    5  A    between atoms: C_5  and  O_6
REMARK    6  A    between atoms: O_6  and  C_7
REMARK    7  A    between atoms: C_10  and  C_11
REMARK    8  A    between atoms: C_11  and  C_12
REMARK    9  A    between atoms: C_12  and  N_13
REMARK   10  A    between atoms: C_17  and  C_18
REMARK                            x       y       z     vdW  Elec       q    Type
REMARK                         _______ _______ _______ _____ _____    ______ ____
ROOT
ATOM      1  C   UNL     1      43.281   4.974  10.595  0.00  0.00    +0.000 C 
ENDROOT
BRANCH   1   2
ATOM      2  N   UNL     1      43.644   3.555  10.551  0.00  0.00    +0.000 N 
ATOM      3  C   UNL     1      44.590   3.289   9.538  0.00  0.00    +0.000 A 
ATOM      4  C   UNL     1      45.033   1.982   9.361  0.00  0.00    +0.000 A 
ATOM      5  C   UNL     1      45.962   1.701   8.355  0.00  0.00    +0.000 A 
ATOM      6  C   UNL     1      46.436   2.730   7.540  0.00  0.00    +0.000 A 
ATOM      7  C   UNL     1      45.961   4.002   7.800  0.00  0.00    +0.000 A 
ATOM      8  N   UNL     1      45.063   4.295   8.773  0.00  0.00    +0.000 NA
ATOM      9  H   UNL     1      42.836   2.955  10.399  0.00  0.00    +0.000 HD
BRANCH   6  10
ATOM     10  C   UNL     1      47.399   2.425   6.456  0.00  0.00    +0.000 C 
ATOM     11  N   UNL     1      47.422   3.213   5.339  0.00  0.00    +0.000 N 
ATOM     12  O   UNL     1      48.168   1.471   6.545  0.00  0.00    +0.000 OA
ATOM     13  H   UNL     1      46.828   4.007   5.156  0.00  0.00    +0.000 HD
ATOM     14  H   UNL     1      48.088   2.956   4.622  0.00  0.00    +0.000 HD
ENDBRANCH   6  10
ENDBRANCH   1   2
BRANCH   1  15
ATOM     15  C   UNL     1      43.508   5.593  11.980  0.00  0.00    +0.000 C 
BRANCH  15  19
ATOM     16  C   UNL     1      47.708   6.050  13.005  0.00  0.00    +0.000 A 
ATOM     17  C   UNL     1      46.936   5.087  13.649  0.00  0.00    +0.000 A 
ATOM     18  C   UNL     1      45.583   4.935  13.334  0.00  0.00    +0.000 A 
ATOM     19  C   UNL     1      44.967   5.746  12.372  0.00  0.00    +0.000 A 
ATOM     20  C   UNL     1      45.745   6.734  11.751  0.00  0.00    +0.000 A 
ATOM     21  C   UNL     1      47.100   6.888  12.072  0.00  0.00    +0.000 A 
BRANCH  16  22
ATOM     22  O   UNL     1      49.043   6.269  13.235  0.00  0.00    +0.000 OA
BRANCH  22  23
ATOM     23  C   UNL     1      49.352   7.560  13.778  0.00  0.00    +0.000 C 
BRANCH  23  24
ATOM     24  C   UNL     1      50.622   8.116  13.118  0.00  0.00    +0.000 C 
BRANCH  24  26
ATOM     25  C   UNL     1      49.598   9.550  11.475  0.00  0.00    +0.000 C 
ATOM     26  N   UNL     1      50.478   8.394  11.672  0.00  0.00    +0.000 NA
ATOM     27  C   UNL     1      51.764   8.643  11.015  0.00  0.00    +0.000 C 
ENDBRANCH  24  26
ENDBRANCH  23  24
ENDBRANCH  22  23
ENDBRANCH  16  22
ENDBRANCH  15  19
ENDBRANCH   1  15
TORSDOF 8
ENDMDL
MODEL 5
REMARK VINA RESULT:    -6.665      1.897      2.611
REMARK INTER + INTRA:         -10.683
REMARK INTER:                  -9.914
REMARK INTRA:                  -0.769
REMARK UNBOUND:                -0.902
REMARK  Name = 
REMARK  10 active torsions:
REMARK  status: ('A' for Active; 'I' for Inactive)
REMARK    1  A    between atoms: C_1  and  N_2
REMARK    2  A    between atoms: N_2  and  C_3
REMARK    3  A    between atoms: N_2  and  C_4
REMARK    4  A    between atoms: C_4  and  C_5
REMARK    5  A    between atoms: C_5  and  O_6
REMARK    6  A    between atoms: O_6  and  C_7
REMARK    7  A    between atoms: C_10  and  C_11
REMARK    8  A    between atoms: C_11  and  C_12
REMARK    9  A    between atoms: C_12  and  N_13
REMARK   10  A    between atoms: C_17  and  C_18
REMARK                            x       y       z     vdW  Elec       q    Type
REMARK                         _______ _______ _______ _____ _____    ______ ____
ROOT
ATOM      1  C   UNL     1      43.544   4.905  10.498  0.00  0.00    +0.000 C 
ENDROOT
BRANCH   1   2
ATOM      2  N   UNL     1      43.919   3.492  10.399  0.00  0.00    +0.000 N 
ATOM      3  C   UNL     1      44.809   3.261   9.327  0.00  0.00    +0.000 A 
ATOM      4  C   UNL     1      45.256   1.964   9.095  0.00  0.00    +0.000 A 
ATOM      5  C   UNL     1      46.128   1.718   8.031  0.00  0.00    +0.000 A 
ATOM      6  C   UNL     1      46.544   2.771   7.215  0.00  0.00    +0.000 A 
ATOM      7  C   UNL     1      46.071   4.031   7.532  0.00  0.00    +0.000 A 
ATOM      8  N   UNL     1      45.227   4.291   8.561  0.00  0.00    +0.000 NA
ATOM      9  H   UNL     1      43.111   2.887  10.279  0.00  0.00    +0.000 HD
BRANCH   6  10
ATOM     10  C   UNL     1      47.447   2.503   6.071  0.00  0.00    +0.000 C 
ATOM     11  N   UNL     1      48.798   2.467   6.278  0.00  0.00    +0.000 N 
ATOM     12  O   UNL     1      46.998   2.324   4.942  0.00  0.00    +0.000 OA
ATOM     13  H   UNL     1      49.272   2.615   7.155  0.00  0.00    +0.000 HD
ATOM     14  H   UNL     1      49.372   2.294   5.463  0.00  0.00    +0.000 HD
ENDBRANCH   6  10
ENDBRANCH   1   2
BRANCH   1  15
ATOM     15  C   UNL     1      43.745   5.466  11.911  0.00  0.00    +0.000 C 
BRANCH  15  19
ATOM     16  C   UNL     1      47.858   6.289  13.057  0.00  0.00    +0.000 A 
ATOM     17  C   UNL     1      47.342   6.830  11.883  0.00  0.00    +0.000 A 
ATOM     18  C   UNL     1      46.024   6.566  11.500  0.00  0.00    +0.000 A 
ATOM     19  C   UNL     1      45.191   5.752  12.277  0.00  0.00    +0.000 A 
ATOM     20  C   UNL     1      45.729   5.186  13.442  0.00  0.00    +0.000 A 
ATOM     21  C   UNL     1      47.052   5.447  13.823  0.00  0.00    +0.000 A 
BRANCH  16  22
ATOM     22  O   UNL     1      49.131   6.496  13.524  0.00  0.00    +0.000 OA
BRANCH  22  23
ATOM     23  C   UNL     1      49.201   7.076  14.833  0.00  0.00    +0.000 C 
BRANCH  23  24
ATOM     24  C   UNL     1      48.912   8.583  14.756  0.00  0.00    +0.000 C 
BRANCH  24  26
ATOM     25  C   UNL     1      51.120   9.481  14.403  0.00  0.00    +0.000 C 
ATOM     26  N   UNL     1      49.982   9.431  15.326  0.00  0.00    +0.000 NA
ATOM     27  C   UNL     1      49.527  10.794  15.613  0.00  0.00    +0.000 C 
ENDBRANCH  24  26
ENDBRANCH  23  24
ENDBRANCH  22  23
ENDBRANCH  16  22
ENDBRANCH  15  19
ENDBRANCH   1  15
TORSDOF 8
ENDMDL
MODEL 6
REMARK VINA RESULT:    -6.276      2.606      8.985
REMARK INTER + INTRA:         -10.113
REMARK INTER:                  -9.629
REMARK INTRA:                  -0.484
REMARK UNBOUND:                -0.902
REMARK  Name = 
REMARK  10 active torsions:
REMARK  status: ('A' for Active; 'I' for Inactive)
REMARK    1  A    between atoms: C_1  and  N_2
REMARK    2  A    between atoms: N_2  and  C_3
REMARK    3  A    between atoms: N_2  and  C_4
REMARK    4  A    between atoms: C_4  and  C_5
REMARK    5  A    between atoms: C_5  and  O_6
REMARK    6  A    between atoms: O_6  and  C_7
REMARK    7  A    between atoms: C_10  and  C_11
REMARK    8  A    between atoms: C_11  and  C_12
REMARK    9  A    between atoms: C_12  and  N_13
REMARK   10  A    between atoms: C_17  and  C_18
REMARK                            x       y       z     vdW  Elec       q    Type
REMARK                         _______ _______ _______ _____ _____    ______ ____
ROOT
ATOM      1  C   UNL     1      47.038   4.683  14.148  0.00  0.00    +0.000 C 
ENDROOT
BRANCH   1   2
ATOM      2  N   UNL     1      46.949   3.608  15.140  0.00  0.00    +0.000 N 
ATOM      3  C   UNL     1      47.763   3.867  16.264  0.00  0.00    +0.000 A 
ATOM      4  C   UNL     1      47.795   2.935  17.297  0.00  0.00    +0.000 A 
ATOM      5  C   UNL     1      48.605   3.172  18.412  0.00  0.00    +0.000 A 
ATOM      6  C   UNL     1      49.370   4.337  18.481  0.00  0.00    +0.000 A 
ATOM      7  C   UNL     1      49.260   5.220  17.421  0.00  0.00    +0.000 A 
ATOM      8  N   UNL     1      48.478   5.010  16.333  0.00  0.00    +0.000 NA
ATOM      9  H   UNL     1      47.214   2.706  14.755  0.00  0.00    +0.000 HD
BRANCH   6  10
ATOM     10  C   UNL     1      50.249   4.572  19.650  0.00  0.00    +0.000 C 
ATOM     11  N   UNL     1      49.703   4.596  20.904  0.00  0.00    +0.000 N 
ATOM     12  O   UNL     1      51.454   4.755  19.505  0.00  0.00    +0.000 OA
ATOM     13  H   UNL     1      48.729   4.474  21.134  0.00  0.00    +0.000 HD
ATOM     14  H   UNL     1      50.343   4.774  21.668  0.00  0.00    +0.000 HD
ENDBRANCH   6  10
ENDBRANCH   1   2
BRANCH   1  15
ATOM     15  C   UNL     1      45.664   5.090  13.603  0.00  0.00    +0.000 C 
BRANCH  15  19
ATOM     16  C   UNL     1      45.069   4.399   9.351  0.00  0.00    +0.000 A 
ATOM     17  C   UNL     1      44.715   3.417  10.272  0.00  0.00    +0.000 A 
ATOM     18  C   UNL     1      44.908   3.624  11.640  0.00  0.00    +0.000 A 
ATOM     19  C   UNL     1      45.465   4.815  12.122  0.00  0.00    +0.000 A 
ATOM     20  C   UNL     1      45.849   5.786  11.186  0.00  0.00    +0.000 A 
ATOM     21  C   UNL     1      45.659   5.575   9.813  0.00  0.00    +0.000 A 
BRANCH  16  22
ATOM     22  O   UNL     1      44.910   4.296   7.992  0.00  0.00    +0.000 OA
BRANCH  22  23
ATOM     23  C   UNL     1      45.425   3.088   7.420  0.00  0.00    +0.000 C 
BRANCH  23  24
ATOM     24  C   UNL     1      46.697   3.389   6.613  0.00  0.00    +0.000 C 
BRANCH  24  26
ATOM     25  C   UNL     1      47.141   1.118   7.282  0.00  0.00    +0.000 C 
ATOM     26  N   UNL     1      47.577   2.217   6.415  0.00  0.00    +0.000 NA
ATOM     27  C   UNL     1      47.601   1.759   5.023  0.00  0.00    +0.000 C 
ENDBRANCH  24  26
ENDBRANCH  23  24
ENDBRANCH  22  23
ENDBRANCH  16  22
ENDBRANCH  15  19
ENDBRANCH   1  15
TORSDOF 8
ENDMDL
MODEL 7
REMARK VINA RESULT:    -5.740      2.267      8.448
REMARK INTER + INTRA:          -9.327
REMARK INTER:                  -8.717
REMARK INTRA:                  -0.610
REMARK UNBOUND:                -0.902
REMARK  Name = 
REMARK  10 active torsions:
REMARK  status: ('A' for Active; 'I' for Inactive)
REMARK    1  A    between atoms: C_1  and  N_2
REMARK    2  A    between atoms: N_2  and  C_3
REMARK    3  A    between atoms: N_2  and  C_4
REMARK    4  A    between atoms: C_4  and  C_5
REMARK    5  A    between atoms: C_5  and  O_6
REMARK    6  A    between atoms: O_6  and  C_7
REMARK    7  A    between atoms: C_10  and  C_11
REMARK    8  A    between atoms: C_11  and  C_12
REMARK    9  A    between atoms: C_12  and  N_13
REMARK   10  A    between atoms: C_17  and  C_18
REMARK                            x       y       z     vdW  Elec       q    Type
REMARK                         _______ _______ _______ _____ _____    ______ ____
ROOT
ATOM      1  C   UNL     1      48.057   7.176  13.240  0.00  0.00    +0.000 C 
ENDROOT
BRANCH   1   2
ATOM      2  N   UNL     1      48.425   7.906  14.457  0.00  0.00    +0.000 N 
ATOM      3  C   UNL     1      48.566   7.039  15.563  0.00  0.00    +0.000 A 
ATOM      4  C   UNL     1      48.908   7.580  16.798  0.00  0.00    +0.000 A 
ATOM      5  C   UNL     1      49.041   6.736  17.904  0.00  0.00    +0.000 A 
ATOM      6  C   UNL     1      48.833   5.364  17.761  0.00  0.00    +0.000 A 
ATOM      7  C   UNL     1      48.520   4.908  16.493  0.00  0.00    +0.000 A 
ATOM      8  N   UNL     1      48.389   5.710  15.407  0.00  0.00    +0.000 NA
ATOM      9  H   UNL     1      47.744   8.621  14.698  0.00  0.00    +0.000 HD
BRANCH   6  10
ATOM     10  C   UNL     1      48.947   4.475  18.941  0.00  0.00    +0.000 C 
ATOM     11  N   UNL     1      48.052   3.453  19.100  0.00  0.00    +0.000 N 
ATOM     12  O   UNL     1      49.827   4.651  19.780  0.00  0.00    +0.000 OA
ATOM     13  H   UNL     1      47.286   3.230  18.484  0.00  0.00    +0.000 HD
ATOM     14  H   UNL     1      48.165   2.883  19.928  0.00  0.00    +0.000 HD
ENDBRANCH   6  10
ENDBRANCH   1   2
BRANCH   1  15
ATOM     15  C   UNL     1      46.554   7.255  12.944  0.00  0.00    +0.000 C 
BRANCH  15  19
ATOM     16  C   UNL     1      44.818   3.741  11.060  0.00  0.00    +0.000 A 
ATOM     17  C   UNL     1      45.292   3.667  12.367  0.00  0.00    +0.000 A 
ATOM     18  C   UNL     1      45.859   4.787  12.980  0.00  0.00    +0.000 A 
ATOM     19  C   UNL     1      45.972   6.007  12.302  0.00  0.00    +0.000 A 
ATOM     20  C   UNL     1      45.520   6.064  10.976  0.00  0.00    +0.000 A 
ATOM     21  C   UNL     1      44.956   4.939  10.359  0.00  0.00    +0.000 A 
BRANCH  16  22
ATOM     22  O   UNL     1      44.237   2.704  10.375  0.00  0.00    +0.000 OA
BRANCH  22  23
ATOM     23  C   UNL     1      44.483   2.707   8.963  0.00  0.00    +0.000 C 
BRANCH  23  24
ATOM     24  C   UNL     1      45.717   1.852   8.643  0.00  0.00    +0.000 C 
BRANCH  24  26
ATOM     25  C   UNL     1      46.666   3.626   7.318  0.00  0.00    +0.000 C 
ATOM     26  N   UNL     1      46.369   2.191   7.359  0.00  0.00    +0.000 NA
ATOM     27  C   UNL     1      47.602   1.431   7.135  0.00  0.00    +0.000 C 
ENDBRANCH  24  26
ENDBRANCH  23  24
ENDBRANCH  22  23
ENDBRANCH  16  22
ENDBRANCH  15  19
ENDBRANCH   1  15
TORSDOF 8
ENDMDL
MODEL 8
REMARK VINA RESULT:    -5.639      2.638      7.881
REMARK INTER + INTRA:          -9.179
REMARK INTER:                  -8.734
REMARK INTRA:                  -0.444
REMARK UNBOUND:                -0.902
REMARK  Name = 
REMARK  10 active torsions:
REMARK  status: ('A' for Active; 'I' for Inactive)
REMARK    1  A    between atoms: C_1  and  N_2
REMARK    2  A    between atoms: N_2  and  C_3
REMARK    3  A    between atoms: N_2  and  C_4
REMARK    4  A    between atoms: C_4  and  C_5
REMARK    5  A    between atoms: C_5  and  O_6
REMARK    6  A    between atoms: O_6  and  C_7
REMARK    7  A    between atoms: C_10  and  C_11
REMARK    8  A    between atoms: C_11  and  C_12
REMARK    9  A    between atoms: C_12  and  N_13
REMARK   10  A    between atoms: C_17  and  C_18
REMARK                            x       y       z     vdW  Elec       q    Type
REMARK                         _______ _______ _______ _____ _____    ______ ____
ROOT
ATOM      1  C   UNL     1      43.634   5.773  12.742  0.00  0.00    +0.000 C 
ENDROOT
BRANCH   1   2
ATOM      2  N   UNL     1      44.964   5.224  13.022  0.00  0.00    +0.000 N 
ATOM      3  C   UNL     1      45.979   6.182  12.813  0.00  0.00    +0.000 A 
ATOM      4  C   UNL     1      47.303   5.813  13.030  0.00  0.00    +0.000 A 
ATOM      5  C   UNL     1      48.320   6.747  12.817  0.00  0.00    +0.000 A 
ATOM      6  C   UNL     1      48.002   8.037  12.391  0.00  0.00    +0.000 A 
ATOM      7  C   UNL     1      46.660   8.326  12.222  0.00  0.00    +0.000 A 
ATOM      8  N   UNL     1      45.658   7.435  12.427  0.00  0.00    +0.000 NA
ATOM      9  H   UNL     1      45.172   4.409  12.452  0.00  0.00    +0.000 HD
BRANCH   6  10
ATOM     10  C   UNL     1      49.084   9.018  12.138  0.00  0.00    +0.000 C 
ATOM     11  N   UNL     1      49.024  10.249  12.728  0.00  0.00    +0.000 N 
ATOM     12  O   UNL     1      50.026   8.740  11.400  0.00  0.00    +0.000 OA
ATOM     13  H   UNL     1      48.293  10.586  13.336  0.00  0.00    +0.000 HD
ATOM     14  H   UNL     1      49.780  10.887  12.513  0.00  0.00    +0.000 HD
ENDBRANCH   6  10
ENDBRANCH   1   2
BRANCH   1  15
ATOM     15  C   UNL     1      43.236   5.618  11.269  0.00  0.00    +0.000 C 
BRANCH  15  19
ATOM     16  C   UNL     1      45.116   2.324   9.142  0.00  0.00    +0.000 A 
ATOM     17  C   UNL     1      44.224   2.064  10.179  0.00  0.00    +0.000 A 
ATOM     18  C   UNL     1      43.620   3.114  10.876  0.00  0.00    +0.000 A 
ATOM     19  C   UNL     1      43.895   4.450  10.556  0.00  0.00    +0.000 A 
ATOM     20  C   UNL     1      44.817   4.703   9.531  0.00  0.00    +0.000 A 
ATOM     21  C   UNL     1      45.427   3.649   8.837  0.00  0.00    +0.000 A 
BRANCH  16  22
ATOM     22  O   UNL     1      45.750   1.366   8.393  0.00  0.00    +0.000 OA
BRANCH  22  23
ATOM     23  C   UNL     1      46.841   1.853   7.600  0.00  0.00    +0.000 C 
BRANCH  23  24
ATOM     24  C   UNL     1      47.301   0.766   6.617  0.00  0.00    +0.000 C 
BRANCH  24  26
ATOM     25  C   UNL     1      46.989   0.394   4.257  0.00  0.00    +0.000 C 
ATOM     26  N   UNL     1      47.602   1.270   5.259  0.00  0.00    +0.000 NA
ATOM     27  C   UNL     1      47.138   2.645   5.053  0.00  0.00    +0.000 C 
ENDBRANCH  24  26
ENDBRANCH  23  24
ENDBRANCH  22  23
ENDBRANCH  16  22
ENDBRANCH  15  19
ENDBRANCH   1  15
TORSDOF 8
ENDMDL
MODEL 9
REMARK VINA RESULT:    -5.532      2.840      8.034
REMARK INTER + INTRA:          -9.021
REMARK INTER:                  -8.701
REMARK INTRA:                  -0.320
REMARK UNBOUND:                -0.902
REMARK  Name = 
REMARK  10 active torsions:
REMARK  status: ('A' for Active; 'I' for Inactive)
REMARK    1  A    between atoms: C_1  and  N_2
REMARK    2  A    between atoms: N_2  and  C_3
REMARK    3  A    between atoms: N_2  and  C_4
REMARK    4  A    between atoms: C_4  and  C_5
REMARK    5  A    between atoms: C_5  and  O_6
REMARK    6  A    between atoms: O_6  and  C_7
REMARK    7  A    between atoms: C_10  and  C_11
REMARK    8  A    between atoms: C_11  and  C_12
REMARK    9  A    between atoms: C_12  and  N_13
REMARK   10  A    between atoms: C_17  and  C_18
REMARK                            x       y       z     vdW  Elec       q    Type
REMARK                         _______ _______ _______ _____ _____    ______ ____
ROOT
ATOM      1  C   UNL     1      48.576   6.722  16.614  0.00  0.00    +0.000 C 
ENDROOT
BRANCH   1   2
ATOM      2  N   UNL     1      48.020   5.366  16.653  0.00  0.00    +0.000 N 
ATOM      3  C   UNL     1      49.015   4.402  16.922  0.00  0.00    +0.000 A 
ATOM      4  C   UNL     1      48.648   3.061  16.985  0.00  0.00    +0.000 A 
ATOM      5  C   UNL     1      49.623   2.093  17.240  0.00  0.00    +0.000 A 
ATOM      6  C   UNL     1      50.951   2.477  17.430  0.00  0.00    +0.000 A 
ATOM      7  C   UNL     1      51.224   3.832  17.374  0.00  0.00    +0.000 A 
ATOM      8  N   UNL     1      50.292   4.786  17.131  0.00  0.00    +0.000 NA
ATOM      9  H   UNL     1      47.559   5.115  15.782  0.00  0.00    +0.000 HD
BRANCH   6  10
ATOM     10  C   UNL     1      51.988   1.446  17.673  0.00  0.00    +0.000 C 
ATOM     11  N   UNL     1      51.614   0.215  18.136  0.00  0.00    +0.000 N 
ATOM     12  O   UNL     1      53.175   1.688  17.472  0.00  0.00    +0.000 OA
ATOM     13  H   UNL     1      50.675  -0.083  18.349  0.00  0.00    +0.000 HD
ATOM     14  H   UNL     1      52.361  -0.449  18.298  0.00  0.00    +0.000 HD
ENDBRANCH   6  10
ENDBRANCH   1   2
BRANCH   1  15
ATOM     15  C   UNL     1      49.032   7.127  15.207  0.00  0.00    +0.000 C 
BRANCH  15  19
ATOM     16  C   UNL     1      45.998   6.792  12.110  0.00  0.00    +0.000 A 
ATOM     17  C   UNL     1      46.272   8.030  12.685  0.00  0.00    +0.000 A 
ATOM     18  C   UNL     1      47.239   8.150  13.686  0.00  0.00    +0.000 A 
ATOM     19  C   UNL     1      47.953   7.034  14.142  0.00  0.00    +0.000 A 
ATOM     20  C   UNL     1      47.648   5.786  13.580  0.00  0.00    +0.000 A 
ATOM     21  C   UNL     1      46.675   5.667  12.579  0.00  0.00    +0.000 A 
BRANCH  16  22
ATOM     22  O   UNL     1      45.078   6.574  11.117  0.00  0.00    +0.000 OA
BRANCH  22  23
ATOM     23  C   UNL     1      43.722   6.469  11.570  0.00  0.00    +0.000 C 
BRANCH  23  24
ATOM     24  C   UNL     1      43.084   5.182  11.027  0.00  0.00    +0.000 C 
BRANCH  24  26
ATOM     25  C   UNL     1      43.447   2.930  11.801  0.00  0.00    +0.000 C 
ATOM     26  N   UNL     1      44.001   4.022  10.996  0.00  0.00    +0.000 NA
ATOM     27  C   UNL     1      44.258   3.543   9.635  0.00  0.00    +0.000 C 
ENDBRANCH  24  26
ENDBRANCH  23  24
ENDBRANCH  22  23
ENDBRANCH  16  22
ENDBRANCH  15  19
ENDBRANCH   1  15
TORSDOF 8
ENDMDL
