MODEL 1
REMARK VINA RESULT:    -7.514      0.000      0.000
REMARK INTER + INTRA:          -9.768
REMARK INTER:                  -8.832
REMARK INTRA:                  -0.936
REMARK UNBOUND:                -0.936
REMARK  Name = 
REMARK  3 active torsions:
REMARK  status: ('A' for Active; 'I' for Inactive)
REMARK    1  A    between atoms: N_6  and  C_7
REMARK    2  A    between atoms: C_7  and  C_8
REMARK    3  A    between atoms: C_12  and  N_13
REMARK                            x       y       z     vdW  Elec       q    Type
REMARK                         _______ _______ _______ _____ _____    ______ ____
ROOT
ATOM      1  C   UNL     1      43.898   4.935  11.447  0.00  0.00    +0.000 C 
ATOM      2  C   UNL     1      42.502   5.088  12.052  0.00  0.00    +0.000 C 
ATOM      3  C   UNL     1      42.989   6.094  11.069  0.00  0.00    +0.000 C 
ENDROOT
BRANCH   1   9
ATOM      4  I   UNL     1      47.470   2.029   5.781  0.00  0.00    +0.000 I 
ATOM      5  C   UNL     1      46.418   2.680   7.434  0.00  0.00    +0.000 A 
ATOM      6  C   UNL     1      46.207   4.029   7.670  0.00  0.00    +0.000 A 
ATOM      7  C   UNL     1      45.457   4.422   8.785  0.00  0.00    +0.000 A 
ATOM      8  C   UNL     1      44.930   3.452   9.628  0.00  0.00    +0.000 A 
ATOM      9  N   UNL     1      44.077   3.704  10.691  0.00  0.00    +0.000 N 
ATOM     10  N   UNL     1      45.153   2.135   9.413  0.00  0.00    +0.000 NA
ATOM     11  C   UNL     1      45.889   1.775   8.335  0.00  0.00    +0.000 A 
ATOM     12  H   UNL     1      43.908   2.823  11.167  0.00  0.00    +0.000 HD
ENDBRANCH   1   9
BRANCH   1  13
ATOM     13  C   UNL     1      45.104   5.354  12.293  0.00  0.00    +0.000 A 
ATOM     14  C   UNL     1      45.713   4.449  13.175  0.00  0.00    +0.000 A 
ATOM     15  C   UNL     1      46.983   4.698  13.685  0.00  0.00    +0.000 A 
ATOM     16  C   UNL     1      47.668   5.853  13.308  0.00  0.00    +0.000 A 
ATOM     17  C   UNL     1      47.066   6.821  12.499  0.00  0.00    +0.000 A 
ATOM     18  C   UNL     1      45.756   6.582  12.068  0.00  0.00    +0.000 A 
BRANCH  17  19
ATOM     19  N   UNL     1      47.745   7.925  12.041  0.00  0.00    +0.000 N 
ATOM     20  C   UNL     1      49.109   7.839  11.512  0.00  0.00    +0.000 C 
ATOM     21  C   UNL     1      50.049   8.696  12.366  0.00  0.00    +0.000 C 
ATOM     22  O   UNL     1      49.575  10.050  12.475  0.00  0.00    +0.000 OA
ATOM     23  C   UNL     1      48.263  10.079  13.071  0.00  0.00    +0.000 C 
ATOM     24  C   UNL     1      47.238   9.284  12.242  0.00  0.00    +0.000 C 
ENDBRANCH  17  19
ENDBRANCH   1  13
TORSDOF 3
ENDMDL
MODEL 2
REMARK VINA RESULT:    -7.201      2.593      3.671
REMARK INTER + INTRA:          -9.400
REMARK INTER:                  -8.782
REMARK INTRA:                  -0.618
REMARK UNBOUND:                -0.936
REMARK  Name = 
REMARK  3 active torsions:
REMARK  status: ('A' for Active; 'I' for Inactive)
REMARK    1  A    between atoms: N_6  and  C_7
REMARK    2  A    between atoms: C_7  and  C_8
REMARK    3  A    between atoms: C_12  and  N_13
REMARK                            x       y       z     vdW  Elec       q    Type
REMARK                         _______ _______ _______ _____ _____    ______ ____
ROOT
ATOM      1  C   UNL     1      44.426   4.681  11.994  0.00  0.00    +0.000 C 
ATOM      2  C   UNL     1      43.225   4.664  12.940  0.00  0.00    +0.000 C 
ATOM      3  C   UNL     1      43.379   5.785  11.973  0.00  0.00    +0.000 C 
ENDROOT
BRANCH   1   9
ATOM      4  I   UNL     1      47.024   2.427   5.554  0.00  0.00    +0.000 I 
ATOM      5  C   UNL     1      46.257   2.889   7.415  0.00  0.00    +0.000 A 
ATOM      6  C   UNL     1      46.083   4.203   7.818  0.00  0.00    +0.000 A 
ATOM      7  C   UNL     1      45.525   4.468   9.075  0.00  0.00    +0.000 A 
ATOM      8  C   UNL     1      45.149   3.408   9.889  0.00  0.00    +0.000 A 
ATOM      9  N   UNL     1      44.482   3.536  11.099  0.00  0.00    +0.000 N 
ATOM     10  N   UNL     1      45.338   2.124   9.509  0.00  0.00    +0.000 NA
ATOM     11  C   UNL     1      45.887   1.888   8.294  0.00  0.00    +0.000 A 
ATOM     12  H   UNL     1      44.397   2.608  11.504  0.00  0.00    +0.000 HD
ENDBRANCH   1   9
BRANCH   1  13
ATOM     13  C   UNL     1      45.779   5.134  12.550  0.00  0.00    +0.000 A 
ATOM     14  C   UNL     1      46.457   6.226  11.991  0.00  0.00    +0.000 A 
ATOM     15  C   UNL     1      47.495   6.849  12.678  0.00  0.00    +0.000 A 
ATOM     16  C   UNL     1      47.859   6.393  13.945  0.00  0.00    +0.000 A 
ATOM     17  C   UNL     1      47.266   5.256  14.504  0.00  0.00    +0.000 A 
ATOM     18  C   UNL     1      46.284   4.602  13.753  0.00  0.00    +0.000 A 
BRANCH  17  19
ATOM     19  N   UNL     1      47.543   4.835  15.783  0.00  0.00    +0.000 N 
ATOM     20  C   UNL     1      48.394   5.606  16.693  0.00  0.00    +0.000 C 
ATOM     21  C   UNL     1      49.617   4.773  17.087  0.00  0.00    +0.000 C 
ATOM     22  O   UNL     1      49.232   3.496  17.628  0.00  0.00    +0.000 OA
ATOM     23  C   UNL     1      48.464   2.751  16.663  0.00  0.00    +0.000 C 
ATOM     24  C   UNL     1      47.181   3.496  16.252  0.00  0.00    +0.000 C 
ENDBRANCH  17  19
ENDBRANCH   1  13
TORSDOF 3
ENDMDL
MODEL 3
REMARK VINA RESULT:    -6.671      3.221      6.558
REMARK INTER + INTRA:          -8.776
REMARK INTER:                  -7.903
REMARK INTRA:                  -0.873
REMARK UNBOUND:                -0.936
REMARK  Name = 
REMARK  3 active torsions:
REMARK  status: ('A' for Active; 'I' for Inactive)
REMARK    1  A    between atoms: N_6  and  C_7
REMARK    2  A    between atoms: C_7  and  C_8
REMARK    3  A    between atoms: C_12  and  N_13
REMARK                            x       y       z     vdW  Elec       q    Type
REMARK                         _______ _______ _______ _____ _____    ______ ____
ROOT
ATOM      1  C   UNL     1      46.321   4.958  13.670  0.00  0.00    +0.000 C 
ATOM      2  C   UNL     1      46.659   4.049  14.852  0.00  0.00    +0.000 C 
ATOM      3  C   UNL     1      47.401   3.891  13.571  0.00  0.00    +0.000 C 
ENDROOT
BRANCH   1   9
ATOM      4  I   UNL     1      49.468  10.992  11.026  0.00  0.00    +0.000 I 
ATOM      5  C   UNL     1      48.485   9.394  11.889  0.00  0.00    +0.000 A 
ATOM      6  C   UNL     1      48.788   8.088  11.540  0.00  0.00    +0.000 A 
ATOM      7  C   UNL     1      48.121   7.035  12.178  0.00  0.00    +0.000 A 
ATOM      8  C   UNL     1      47.176   7.320  13.155  0.00  0.00    +0.000 A 
ATOM      9  N   UNL     1      46.536   6.372  13.939  0.00  0.00    +0.000 N 
ATOM     10  N   UNL     1      46.862   8.594  13.482  0.00  0.00    +0.000 NA
ATOM     11  C   UNL     1      47.511   9.599  12.848  0.00  0.00    +0.000 A 
ATOM     12  H   UNL     1      45.854   6.857  14.515  0.00  0.00    +0.000 HD
ENDBRANCH   1   9
BRANCH   1  13
ATOM     13  C   UNL     1      45.070   4.640  12.847  0.00  0.00    +0.000 A 
ATOM     14  C   UNL     1      43.840   5.242  13.147  0.00  0.00    +0.000 A 
ATOM     15  C   UNL     1      42.796   5.229  12.226  0.00  0.00    +0.000 A 
ATOM     16  C   UNL     1      42.977   4.623  10.982  0.00  0.00    +0.000 A 
ATOM     17  C   UNL     1      44.157   3.939  10.674  0.00  0.00    +0.000 A 
ATOM     18  C   UNL     1      45.157   3.898  11.652  0.00  0.00    +0.000 A 
BRANCH  17  19
ATOM     19  N   UNL     1      44.397   3.408   9.429  0.00  0.00    +0.000 N 
ATOM     20  C   UNL     1      44.515   1.964   9.204  0.00  0.00    +0.000 C 
ATOM     21  C   UNL     1      45.906   1.640   8.652  0.00  0.00    +0.000 C 
ATOM     22  O   UNL     1      46.200   2.415   7.476  0.00  0.00    +0.000 OA
ATOM     23  C   UNL     1      46.145   3.824   7.774  0.00  0.00    +0.000 C 
ATOM     24  C   UNL     1      44.757   4.249   8.285  0.00  0.00    +0.000 C 
ENDBRANCH  17  19
ENDBRANCH   1  13
TORSDOF 3
ENDMDL
MODEL 4
REMARK VINA RESULT:    -6.130      4.482      7.815
REMARK INTER + INTRA:          -8.141
REMARK INTER:                  -7.380
REMARK INTRA:                  -0.761
REMARK UNBOUND:                -0.936
REMARK  Name = 
REMARK  3 active torsions:
REMARK  status: ('A' for Active; 'I' for Inactive)
REMARK    1  A    between atoms: N_6  and  C_7
REMARK    2  A    between atoms: C_7  and  C_8
REMARK    3  A    between atoms: C_12  and  N_13
REMARK                            x       y       z     vdW  Elec       q    Type
REMARK                         _______ _______ _______ _____ _____    ______ ____
ROOT
ATOM      1  C   UNL     1      49.190   7.864  12.739  0.00  0.00    +0.000 C 
ATOM      2  C   UNL     1      49.992   7.819  11.438  0.00  0.00    +0.000 C 
ATOM      3  C   UNL     1      49.642   9.136  12.036  0.00  0.00    +0.000 C 
ENDROOT
BRANCH   1   9
ATOM      4  I   UNL     1      49.063   7.200  20.008  0.00  0.00    +0.000 I 
ATOM      5  C   UNL     1      49.211   7.242  17.949  0.00  0.00    +0.000 A 
ATOM      6  C   UNL     1      48.627   8.254  17.205  0.00  0.00    +0.000 A 
ATOM      7  C   UNL     1      48.784   8.263  15.814  0.00  0.00    +0.000 A 
ATOM      8  C   UNL     1      49.531   7.261  15.208  0.00  0.00    +0.000 A 
ATOM      9  N   UNL     1      49.858   7.221  13.860  0.00  0.00    +0.000 N 
ATOM     10  N   UNL     1      50.084   6.259  15.929  0.00  0.00    +0.000 NA
ATOM     11  C   UNL     1      49.913   6.264  17.271  0.00  0.00    +0.000 A 
ATOM     12  H   UNL     1      50.348   6.349  13.688  0.00  0.00    +0.000 HD
ENDBRANCH   1   9
BRANCH   1  13
ATOM     13  C   UNL     1      47.679   7.630  12.666  0.00  0.00    +0.000 A 
ATOM     14  C   UNL     1      46.785   8.711  12.630  0.00  0.00    +0.000 A 
ATOM     15  C   UNL     1      45.464   8.530  12.231  0.00  0.00    +0.000 A 
ATOM     16  C   UNL     1      45.023   7.263  11.849  0.00  0.00    +0.000 A 
ATOM     17  C   UNL     1      45.856   6.145  11.949  0.00  0.00    +0.000 A 
ATOM     18  C   UNL     1      47.154   6.345  12.433  0.00  0.00    +0.000 A 
BRANCH  17  19
ATOM     19  N   UNL     1      45.478   4.902  11.499  0.00  0.00    +0.000 N 
ATOM     20  C   UNL     1      45.189   4.636  10.087  0.00  0.00    +0.000 C 
ATOM     21  C   UNL     1      43.737   4.173   9.935  0.00  0.00    +0.000 C 
ATOM     22  O   UNL     1      43.451   3.049  10.786  0.00  0.00    +0.000 OA
ATOM     23  C   UNL     1      43.678   3.391  12.167  0.00  0.00    +0.000 C 
ATOM     24  C   UNL     1      45.136   3.816  12.420  0.00  0.00    +0.000 C 
ENDBRANCH  17  19
ENDBRANCH   1  13
TORSDOF 3
ENDMDL
MODEL 5
REMARK VINA RESULT:    -5.669      5.413      7.987
REMARK INTER + INTRA:          -7.599
REMARK INTER:                  -7.210
REMARK INTRA:                  -0.389
REMARK UNBOUND:                -0.936
REMARK  Name = 
REMARK  3 active torsions:
REMARK  status: ('A' for Active; 'I' for Inactive)
REMARK    1  A    between atoms: N_6  and  C_7
REMARK    2  A    between atoms: C_7  and  C_8
REMARK    3  A    between atoms: C_12  and  N_13
REMARK                            x       y       z     vdW  Elec       q    Type
REMARK                         _______ _______ _______ _____ _____    ______ ____
ROOT
ATOM      1  C   UNL     1      48.342   4.425  16.941  0.00  0.00    +0.000 C 
ATOM      2  C   UNL     1      47.236   4.287  17.987  0.00  0.00    +0.000 C 
ATOM      3  C   UNL     1      47.422   3.214  16.973  0.00  0.00    +0.000 C 
ENDROOT
BRANCH   1   9
ATOM      4  I   UNL     1      54.474   0.599  17.974  0.00  0.00    +0.000 I 
ATOM      5  C   UNL     1      52.835   1.831  17.725  0.00  0.00    +0.000 A 
ATOM      6  C   UNL     1      51.580   1.315  17.448  0.00  0.00    +0.000 A 
ATOM      7  C   UNL     1      50.491   2.186  17.324  0.00  0.00    +0.000 A 
ATOM      8  C   UNL     1      50.689   3.550  17.490  0.00  0.00    +0.000 A 
ATOM      9  N   UNL     1      49.679   4.501  17.509  0.00  0.00    +0.000 N 
ATOM     10  N   UNL     1      51.917   4.060  17.739  0.00  0.00    +0.000 NA
ATOM     11  C   UNL     1      52.958   3.202  17.846  0.00  0.00    +0.000 A 
ATOM     12  H   UNL     1      50.118   5.415  17.579  0.00  0.00    +0.000 HD
ENDBRANCH   1   9
BRANCH   1  13
ATOM     13  C   UNL     1      48.095   5.348  15.744  0.00  0.00    +0.000 A 
ATOM     14  C   UNL     1      48.979   6.398  15.452  0.00  0.00    +0.000 A 
ATOM     15  C   UNL     1      48.960   7.018  14.206  0.00  0.00    +0.000 A 
ATOM     16  C   UNL     1      48.064   6.585  13.229  0.00  0.00    +0.000 A 
ATOM     17  C   UNL     1      47.111   5.600  13.506  0.00  0.00    +0.000 A 
ATOM     18  C   UNL     1      47.099   5.053  14.793  0.00  0.00    +0.000 A 
BRANCH  17  19
ATOM     19  N   UNL     1      46.274   5.094  12.540  0.00  0.00    +0.000 N 
ATOM     20  C   UNL     1      45.912   5.855  11.341  0.00  0.00    +0.000 C 
ATOM     21  C   UNL     1      44.397   6.072  11.305  0.00  0.00    +0.000 C 
ATOM     22  O   UNL     1      43.683   4.827  11.413  0.00  0.00    +0.000 OA
ATOM     23  C   UNL     1      44.020   4.159  12.645  0.00  0.00    +0.000 C 
ATOM     24  C   UNL     1      45.525   3.851  12.738  0.00  0.00    +0.000 C 
ENDBRANCH  17  19
ENDBRANCH   1  13
TORSDOF 3
ENDMDL
MODEL 6
REMARK VINA RESULT:    -5.393      4.098      6.619
REMARK INTER + INTRA:          -7.274
REMARK INTER:                  -6.423
REMARK INTRA:                  -0.852
REMARK UNBOUND:                -0.936
REMARK  Name = 
REMARK  3 active torsions:
REMARK  status: ('A' for Active; 'I' for Inactive)
REMARK    1  A    between atoms: N_6  and  C_7
REMARK    2  A    between atoms: C_7  and  C_8
REMARK    3  A    between atoms: C_12  and  N_13
REMARK                            x       y       z     vdW  Elec       q    Type
REMARK                         _______ _______ _______ _____ _____    ______ ____
ROOT
ATOM      1  C   UNL     1      48.866   8.289  14.008  0.00  0.00    +0.000 C 
ATOM      2  C   UNL     1      49.747   9.393  13.422  0.00  0.00    +0.000 C 
ATOM      3  C   UNL     1      50.212   7.979  13.371  0.00  0.00    +0.000 C 
ENDROOT
BRANCH   1   9
ATOM      4  I   UNL     1      43.698   3.496  12.101  0.00  0.00    +0.000 I 
ATOM      5  C   UNL     1      45.037   4.985  12.609  0.00  0.00    +0.000 A 
ATOM      6  C   UNL     1      46.359   4.695  12.906  0.00  0.00    +0.000 A 
ATOM      7  C   UNL     1      47.240   5.740  13.209  0.00  0.00    +0.000 A 
ATOM      8  C   UNL     1      46.774   7.048  13.197  0.00  0.00    +0.000 A 
ATOM      9  N   UNL     1      47.566   8.174  13.363  0.00  0.00    +0.000 N 
ATOM     10  N   UNL     1      45.479   7.333  12.929  0.00  0.00    +0.000 NA
ATOM     11  C   UNL     1      44.641   6.308  12.647  0.00  0.00    +0.000 A 
ATOM     12  H   UNL     1      46.954   8.983  13.375  0.00  0.00    +0.000 HD
ENDBRANCH   1   9
BRANCH   1  13
ATOM     13  C   UNL     1      48.851   8.104  15.528  0.00  0.00    +0.000 A 
ATOM     14  C   UNL     1      48.430   9.141  16.373  0.00  0.00    +0.000 A 
ATOM     15  C   UNL     1      48.094   8.886  17.700  0.00  0.00    +0.000 A 
ATOM     16  C   UNL     1      48.162   7.583  18.194  0.00  0.00    +0.000 A 
ATOM     17  C   UNL     1      48.655   6.535  17.410  0.00  0.00    +0.000 A 
ATOM     18  C   UNL     1      49.064   6.838  16.107  0.00  0.00    +0.000 A 
BRANCH  17  19
ATOM     19  N   UNL     1      48.652   5.230  17.840  0.00  0.00    +0.000 N 
ATOM     20  C   UNL     1      49.823   4.610  18.467  0.00  0.00    +0.000 C 
ATOM     21  C   UNL     1      50.289   3.418  17.625  0.00  0.00    +0.000 C 
ATOM     22  O   UNL     1      49.219   2.485  17.395  0.00  0.00    +0.000 OA
ATOM     23  C   UNL     1      48.127   3.129  16.709  0.00  0.00    +0.000 C 
ATOM     24  C   UNL     1      47.559   4.310  17.516  0.00  0.00    +0.000 C 
ENDBRANCH  17  19
ENDBRANCH   1  13
TORSDOF 3
ENDMDL
MODEL 7
REMARK VINA RESULT:    -5.321      3.453      6.994
REMARK INTER + INTRA:          -7.190
REMARK INTER:                  -6.419
REMARK INTRA:                  -0.771
REMARK UNBOUND:                -0.936
REMARK  Name = 
REMARK  3 active torsions:
REMARK  status: ('A' for Active; 'I' for Inactive)
REMARK    1  A    between atoms: N_6  and  C_7
REMARK    2  A    between atoms: C_7  and  C_8
REMARK    3  A    between atoms: C_12  and  N_13
REMARK                            x       y       z     vdW  Elec       q    Type
REMARK                         _______ _______ _______ _____ _____    ______ ____
ROOT
ATOM      1  C   UNL     1      48.347   8.168  13.913  0.00  0.00    +0.000 C 
ATOM      2  C   UNL     1      48.433   8.149  15.439  0.00  0.00    +0.000 C 
ATOM      3  C   UNL     1      48.898   6.966  14.664  0.00  0.00    +0.000 C 
ENDROOT
BRANCH   1   9
ATOM      4  I   UNL     1      53.370   9.474   8.777  0.00  0.00    +0.000 I 
ATOM      5  C   UNL     1      51.919   9.285  10.234  0.00  0.00    +0.000 A 
ATOM      6  C   UNL     1      51.641   8.062  10.820  0.00  0.00    +0.000 A 
ATOM      7  C   UNL     1      50.674   7.987  11.831  0.00  0.00    +0.000 A 
ATOM      8  C   UNL     1      50.020   9.145  12.232  0.00  0.00    +0.000 A 
ATOM      9  N   UNL     1      49.133   9.226  13.295  0.00  0.00    +0.000 N 
ATOM     10  N   UNL     1      50.273  10.338  11.647  0.00  0.00    +0.000 NA
ATOM     11  C   UNL     1      51.204  10.387  10.665  0.00  0.00    +0.000 A 
ATOM     12  H   UNL     1      48.761  10.171  13.315  0.00  0.00    +0.000 HD
ENDBRANCH   1   9
BRANCH   1  13
ATOM     13  C   UNL     1      46.986   7.910  13.261  0.00  0.00    +0.000 A 
ATOM     14  C   UNL     1      46.193   8.975  12.808  0.00  0.00    +0.000 A 
ATOM     15  C   UNL     1      45.137   8.752  11.929  0.00  0.00    +0.000 A 
ATOM     16  C   UNL     1      44.869   7.459  11.480  0.00  0.00    +0.000 A 
ATOM     17  C   UNL     1      45.581   6.360  11.970  0.00  0.00    +0.000 A 
ATOM     18  C   UNL     1      46.582   6.606  12.916  0.00  0.00    +0.000 A 
BRANCH  17  19
ATOM     19  N   UNL     1      45.398   5.087  11.483  0.00  0.00    +0.000 N 
ATOM     20  C   UNL     1      45.334   4.801  10.047  0.00  0.00    +0.000 C 
ATOM     21  C   UNL     1      43.972   4.192   9.702  0.00  0.00    +0.000 C 
ATOM     22  O   UNL     1      43.689   3.039  10.515  0.00  0.00    +0.000 OA
ATOM     23  C   UNL     1      43.689   3.395  11.911  0.00  0.00    +0.000 C 
ATOM     24  C   UNL     1      45.047   3.967  12.358  0.00  0.00    +0.000 C 
ENDBRANCH  17  19
ENDBRANCH   1  13
TORSDOF 3
ENDMDL
MODEL 8
REMARK VINA RESULT:    -5.092      5.638      8.655
REMARK INTER + INTRA:          -6.921
REMARK INTER:                  -6.469
REMARK INTRA:                  -0.452
REMARK UNBOUND:                -0.936
REMARK  Name = 
REMARK  3 active torsions:
REMARK  status: ('A' for Active; 'I' for Inactive)
REMARK    1  A    between atoms: N_6  and  C_7
REMARK    2  A    between atoms: C_7  and  C_8
REMARK    3  A    between atoms: C_12  and  N_13
REMARK                            x       y       z     vdW  Elec       q    Type
REMARK                         _______ _______ _______ _____ _____    ______ ____
ROOT
ATOM      1  C   UNL     1      47.682   4.629  16.496  0.00  0.00    +0.000 C 
ATOM      2  C   UNL     1      47.331   3.143  16.579  0.00  0.00    +0.000 C 
ATOM      3  C   UNL     1      48.752   3.551  16.407  0.00  0.00    +0.000 C 
ENDROOT
BRANCH   1   9
ATOM      4  I   UNL     1      50.210   9.515  21.296  0.00  0.00    +0.000 I 
ATOM      5  C   UNL     1      49.327   8.167  20.005  0.00  0.00    +0.000 A 
ATOM      6  C   UNL     1      50.087   7.371  19.164  0.00  0.00    +0.000 A 
ATOM      7  C   UNL     1      49.447   6.444  18.331  0.00  0.00    +0.000 A 
ATOM      8  C   UNL     1      48.063   6.336  18.371  0.00  0.00    +0.000 A 
ATOM      9  N   UNL     1      47.323   5.383  17.687  0.00  0.00    +0.000 N 
ATOM     10  N   UNL     1      47.317   7.128  19.174  0.00  0.00    +0.000 NA
ATOM     11  C   UNL     1      47.953   8.023  19.965  0.00  0.00    +0.000 A 
ATOM     12  H   UNL     1      46.340   5.583  17.848  0.00  0.00    +0.000 HD
ENDBRANCH   1   9
BRANCH   1  13
ATOM     13  C   UNL     1      47.437   5.358  15.172  0.00  0.00    +0.000 A 
ATOM     14  C   UNL     1      48.324   6.346  14.720  0.00  0.00    +0.000 A 
ATOM     15  C   UNL     1      48.305   6.767  13.393  0.00  0.00    +0.000 A 
ATOM     16  C   UNL     1      47.405   6.193  12.496  0.00  0.00    +0.000 A 
ATOM     17  C   UNL     1      46.448   5.266  12.923  0.00  0.00    +0.000 A 
ATOM     18  C   UNL     1      46.437   4.924  14.279  0.00  0.00    +0.000 A 
BRANCH  17  19
ATOM     19  N   UNL     1      45.607   4.621  12.048  0.00  0.00    +0.000 N 
ATOM     20  C   UNL     1      44.888   5.331  10.986  0.00  0.00    +0.000 C 
ATOM     21  C   UNL     1      43.378   5.173  11.191  0.00  0.00    +0.000 C 
ATOM     22  O   UNL     1      43.002   3.787  11.291  0.00  0.00    +0.000 OA
ATOM     23  C   UNL     1      43.680   3.160  12.396  0.00  0.00    +0.000 C 
ATOM     24  C   UNL     1      45.210   3.225  12.243  0.00  0.00    +0.000 C 
ENDBRANCH  17  19
ENDBRANCH   1  13
TORSDOF 3
ENDMDL
MODEL 9
REMARK VINA RESULT:    -4.880      5.114      7.468
REMARK INTER + INTRA:          -6.672
REMARK INTER:                  -5.876
REMARK INTRA:                  -0.795
REMARK UNBOUND:                -0.936
REMARK  Name = 
REMARK  3 active torsions:
REMARK  status: ('A' for Active; 'I' for Inactive)
REMARK    1  A    between atoms: N_6  and  C_7
REMARK    2  A    between atoms: C_7  and  C_8
REMARK    3  A    between atoms: C_12  and  N_13
REMARK                            x       y       z     vdW  Elec       q    Type
REMARK                         _______ _______ _______ _____ _____    ______ ____
ROOT
ATOM      1  C   UNL     1      48.404   5.332  17.733  0.00  0.00    +0.000 C 
ATOM      2  C   UNL     1      47.692   6.428  18.527  0.00  0.00    +0.000 C 
ATOM      3  C   UNL     1      47.155   5.040  18.552  0.00  0.00    +0.000 C 
ENDROOT
BRANCH   1   9
ATOM      4  I   UNL     1      53.850   0.475  17.490  0.00  0.00    +0.000 I 
ATOM      5  C   UNL     1      52.433   1.973  17.614  0.00  0.00    +0.000 A 
ATOM      6  C   UNL     1      51.089   1.712  17.403  0.00  0.00    +0.000 A 
ATOM      7  C   UNL     1      50.160   2.752  17.533  0.00  0.00    +0.000 A 
ATOM      8  C   UNL     1      50.603   4.021  17.881  0.00  0.00    +0.000 A 
ATOM      9  N   UNL     1      49.778   5.102  18.155  0.00  0.00    +0.000 N 
ATOM     10  N   UNL     1      51.917   4.284  18.065  0.00  0.00    +0.000 NA
ATOM     11  C   UNL     1      52.801   3.268  17.925  0.00  0.00    +0.000 A 
ATOM     12  H   UNL     1      50.371   5.911  18.312  0.00  0.00    +0.000 HD
ENDBRANCH   1   9
BRANCH   1  13
ATOM     13  C   UNL     1      48.172   5.267  16.221  0.00  0.00    +0.000 A 
ATOM     14  C   UNL     1      47.326   4.297  15.665  0.00  0.00    +0.000 A 
ATOM     15  C   UNL     1      46.847   4.431  14.365  0.00  0.00    +0.000 A 
ATOM     16  C   UNL     1      47.199   5.548  13.608  0.00  0.00    +0.000 A 
ATOM     17  C   UNL     1      48.106   6.496  14.093  0.00  0.00    +0.000 A 
ATOM     18  C   UNL     1      48.635   6.291  15.372  0.00  0.00    +0.000 A 
BRANCH  17  19
ATOM     19  N   UNL     1      48.405   7.649  13.406  0.00  0.00    +0.000 N 
ATOM     20  C   UNL     1      48.503   7.685  11.944  0.00  0.00    +0.000 C 
ATOM     21  C   UNL     1      49.916   8.108  11.532  0.00  0.00    +0.000 C 
ATOM     22  O   UNL     1      50.294   9.352  12.149  0.00  0.00    +0.000 OA
ATOM     23  C   UNL     1      50.254   9.235  13.585  0.00  0.00    +0.000 C 
ATOM     24  C   UNL     1      48.848   8.865  14.091  0.00  0.00    +0.000 C 
ENDBRANCH  17  19
ENDBRANCH   1  13
TORSDOF 3
ENDMDL
