MODEL 1
REMARK VINA RESULT:    -6.830      0.000      0.000
REMARK INTER + INTRA:         -10.065
REMARK INTER:                  -9.226
REMARK INTRA:                  -0.839
REMARK UNBOUND:                -0.839
REMARK  Name = 
REMARK  6 active torsions:
REMARK  status: ('A' for Active; 'I' for Inactive)
REMARK    1  A    between atoms: C_2  and  C_3
REMARK    2  A    between atoms: C_7  and  C_8
REMARK    3  A    between atoms: C_8  and  C_9
REMARK    4  A    between atoms: C_12  and  C_13
REMARK    5  A    between atoms: C_13  and  N_14
REMARK    6  A    between atoms: C_15  and  C_17
REMARK                            x       y       z     vdW  Elec       q    Type
REMARK                         _______ _______ _______ _____ _____    ______ ____
ROOT
ATOM      1  C   UNL     1      49.770   7.193  16.290  0.00  0.00    +0.000 C 
ENDROOT
BRANCH   1   5
ATOM      2  C   UNL     1      46.928   5.499  13.593  0.00  0.00    +0.000 A 
ATOM      3  C   UNL     1      47.161   4.868  14.807  0.00  0.00    +0.000 A 
ATOM      4  C   UNL     1      48.086   5.416  15.683  0.00  0.00    +0.000 A 
ATOM      5  C   UNL     1      48.778   6.592  15.345  0.00  0.00    +0.000 A 
ATOM      6  C   UNL     1      48.612   7.160  14.080  0.00  0.00    +0.000 A 
ATOM      7  C   UNL     1      47.689   6.618  13.209  0.00  0.00    +0.000 A 
BRANCH   2   8
ATOM      8  C   UNL     1      45.861   5.020  12.669  0.00  0.00    +0.000 C 
BRANCH   8  13
ATOM      9  C   UNL     1      43.204   4.770  10.990  0.00  0.00    +0.000 C 
ATOM     10  C   UNL     1      43.862   4.467   9.647  0.00  0.00    +0.000 C 
ATOM     11  O   UNL     1      45.289   4.471   9.728  0.00  0.00    +0.000 OA
ATOM     12  C   UNL     1      45.829   5.709  10.198  0.00  0.00    +0.000 C 
ATOM     13  C   UNL     1      45.345   6.033  11.619  0.00  0.00    +0.000 C 
ATOM     14  C   UNL     1      43.798   6.057  11.595  0.00  0.00    +0.000 C 
BRANCH   9  16
ATOM     15  N   UNL     1      43.659   2.688  12.777  0.00  0.00    +0.000 NA
ATOM     16  C   UNL     1      43.453   3.632  11.967  0.00  0.00    +0.000 C 
ENDBRANCH   9  16
ENDBRANCH   8  13
ENDBRANCH   2   8
ENDBRANCH   1   5
BRANCH   1  17
ATOM     17  N   UNL     1      50.731   6.194  16.652  0.00  0.00    +0.000 N 
ATOM     18  C   UNL     1      50.990   5.876  17.950  0.00  0.00    +0.000 C 
ATOM     19  O   UNL     1      50.403   6.410  18.886  0.00  0.00    +0.000 OA
ATOM     20  H   UNL     1      51.388   5.922  15.927  0.00  0.00    +0.000 HD
BRANCH  18  21
ATOM     21  C   UNL     1      51.954   4.792  18.152  0.00  0.00    +0.000 A 
ATOM     22  C   UNL     1      53.204   5.081  18.678  0.00  0.00    +0.000 A 
ATOM     23  S   UNL     1      54.165   3.699  18.942  0.00  0.00    +0.000 S 
ATOM     24  C   UNL     1      52.959   2.672  18.319  0.00  0.00    +0.000 A 
ATOM     25  N   UNL     1      53.150   1.326  18.256  0.00  0.00    +0.000 NA
ATOM     26  C   UNL     1      52.159   0.671  17.750  0.00  0.00    +0.000 A 
ATOM     27  N   UNL     1      50.996   1.231  17.293  0.00  0.00    +0.000 N 
ATOM     28  C   UNL     1      50.755   2.582  17.343  0.00  0.00    +0.000 A 
ATOM     29  O   UNL     1      49.701   3.062  16.935  0.00  0.00    +0.000 OA
ATOM     30  C   UNL     1      51.840   3.369  17.917  0.00  0.00    +0.000 A 
ATOM     31  H   UNL     1      50.257   0.663  16.906  0.00  0.00    +0.000 HD
ENDBRANCH  18  21
ENDBRANCH   1  17
TORSDOF 6
ENDMDL
MODEL 2
REMARK VINA RESULT:    -6.413      3.157      8.869
REMARK INTER + INTRA:          -9.501
REMARK INTER:                  -8.479
REMARK INTRA:                  -1.021
REMARK UNBOUND:                -0.839
REMARK  Name = 
REMARK  6 active torsions:
REMARK  status: ('A' for Active; 'I' for Inactive)
REMARK    1  A    between atoms: C_2  and  C_3
REMARK    2  A    between atoms: C_7  and  C_8
REMARK    3  A    between atoms: C_8  and  C_9
REMARK    4  A    between atoms: C_12  and  C_13
REMARK    5  A    between atoms: C_13  and  N_14
REMARK    6  A    between atoms: C_15  and  C_17
REMARK                            x       y       z     vdW  Elec       q    Type
REMARK                         _______ _______ _______ _____ _____    ______ ____
ROOT
ATOM      1  C   UNL     1      48.374   7.715  12.487  0.00  0.00    +0.000 C 
ENDROOT
BRANCH   1   5
ATOM      2  C   UNL     1      49.503   6.451  16.405  0.00  0.00    +0.000 A 
ATOM      3  C   UNL     1      48.459   5.800  15.764  0.00  0.00    +0.000 A 
ATOM      4  C   UNL     1      48.089   6.211  14.492  0.00  0.00    +0.000 A 
ATOM      5  C   UNL     1      48.762   7.273  13.863  0.00  0.00    +0.000 A 
ATOM      6  C   UNL     1      49.740   7.988  14.557  0.00  0.00    +0.000 A 
ATOM      7  C   UNL     1      50.111   7.577  15.822  0.00  0.00    +0.000 A 
BRANCH   2   8
ATOM      8  C   UNL     1      50.017   5.974  17.720  0.00  0.00    +0.000 C 
BRANCH   8  13
ATOM      9  C   UNL     1      52.423   3.943  17.887  0.00  0.00    +0.000 C 
ATOM     10  C   UNL     1      52.584   3.971  19.405  0.00  0.00    +0.000 C 
ATOM     11  O   UNL     1      51.668   4.872  20.030  0.00  0.00    +0.000 OA
ATOM     12  C   UNL     1      51.784   6.219  19.564  0.00  0.00    +0.000 C 
ATOM     13  C   UNL     1      51.485   6.323  18.061  0.00  0.00    +0.000 C 
ATOM     14  C   UNL     1      52.460   5.376  17.321  0.00  0.00    +0.000 C 
BRANCH   9  16
ATOM     15  N   UNL     1      49.980   2.808  17.200  0.00  0.00    +0.000 NA
ATOM     16  C   UNL     1      51.088   3.322  17.511  0.00  0.00    +0.000 C 
ENDBRANCH   9  16
ENDBRANCH   8  13
ENDBRANCH   2   8
ENDBRANCH   1   5
BRANCH   1  17
ATOM     17  N   UNL     1      47.595   6.683  11.870  0.00  0.00    +0.000 N 
ATOM     18  C   UNL     1      46.285   6.861  11.548  0.00  0.00    +0.000 C 
ATOM     19  O   UNL     1      45.698   7.921  11.747  0.00  0.00    +0.000 OA
ATOM     20  H   UNL     1      47.977   5.744  11.920  0.00  0.00    +0.000 HD
BRANCH  18  21
ATOM     21  C   UNL     1      45.645   5.733  10.868  0.00  0.00    +0.000 A 
ATOM     22  C   UNL     1      45.825   5.568   9.503  0.00  0.00    +0.000 A 
ATOM     23  S   UNL     1      45.098   4.156   8.888  0.00  0.00    +0.000 S 
ATOM     24  C   UNL     1      44.479   3.740  10.418  0.00  0.00    +0.000 A 
ATOM     25  N   UNL     1      43.739   2.611  10.590  0.00  0.00    +0.000 NA
ATOM     26  C   UNL     1      43.324   2.426  11.800  0.00  0.00    +0.000 A 
ATOM     27  N   UNL     1      43.570   3.266  12.853  0.00  0.00    +0.000 N 
ATOM     28  C   UNL     1      44.317   4.411  12.730  0.00  0.00    +0.000 A 
ATOM     29  O   UNL     1      44.533   5.144  13.691  0.00  0.00    +0.000 OA
ATOM     30  C   UNL     1      44.821   4.661  11.384  0.00  0.00    +0.000 A 
ATOM     31  H   UNL     1      43.215   3.066  13.777  0.00  0.00    +0.000 HD
ENDBRANCH  18  21
ENDBRANCH   1  17
TORSDOF 6
ENDMDL
MODEL 3
REMARK VINA RESULT:    -6.382      4.135      5.774
REMARK INTER + INTRA:          -9.459
REMARK INTER:                  -8.532
REMARK INTRA:                  -0.927
REMARK UNBOUND:                -0.839
REMARK  Name = 
REMARK  6 active torsions:
REMARK  status: ('A' for Active; 'I' for Inactive)
REMARK    1  A    between atoms: C_2  and  C_3
REMARK    2  A    between atoms: C_7  and  C_8
REMARK    3  A    between atoms: C_8  and  C_9
REMARK    4  A    between atoms: C_12  and  C_13
REMARK    5  A    between atoms: C_13  and  N_14
REMARK    6  A    between atoms: C_15  and  C_17
REMARK                            x       y       z     vdW  Elec       q    Type
REMARK                         _______ _______ _______ _____ _____    ______ ____
ROOT
ATOM      1  C   UNL     1      46.171   4.734  13.372  0.00  0.00    +0.000 C 
ENDROOT
BRANCH   1   5
ATOM      2  C   UNL     1      44.859   8.503  11.857  0.00  0.00    +0.000 A 
ATOM      3  C   UNL     1      44.236   7.346  11.411  0.00  0.00    +0.000 A 
ATOM      4  C   UNL     1      44.663   6.121  11.901  0.00  0.00    +0.000 A 
ATOM      5  C   UNL     1      45.712   6.053  12.833  0.00  0.00    +0.000 A 
ATOM      6  C   UNL     1      46.400   7.213  13.196  0.00  0.00    +0.000 A 
ATOM      7  C   UNL     1      45.974   8.433  12.712  0.00  0.00    +0.000 A 
BRANCH   2   8
ATOM      8  C   UNL     1      44.362   9.850  11.455  0.00  0.00    +0.000 C 
BRANCH   8  13
ATOM      9  C   UNL     1      43.347  12.455   9.997  0.00  0.00    +0.000 C 
ATOM     10  C   UNL     1      41.908  12.400  10.502  0.00  0.00    +0.000 C 
ATOM     11  O   UNL     1      41.663  11.253  11.318  0.00  0.00    +0.000 OA
ATOM     12  C   UNL     1      41.930  10.014  10.657  0.00  0.00    +0.000 C 
ATOM     13  C   UNL     1      43.404   9.903  10.241  0.00  0.00    +0.000 C 
ATOM     14  C   UNL     1      43.731  11.115   9.337  0.00  0.00    +0.000 C 
BRANCH   9  16
ATOM     15  N   UNL     1      45.093  12.904  12.115  0.00  0.00    +0.000 NA
ATOM     16  C   UNL     1      44.302  12.700  11.154  0.00  0.00    +0.000 C 
ENDBRANCH   9  16
ENDBRANCH   8  13
ENDBRANCH   2   8
ENDBRANCH   1   5
BRANCH   1  17
ATOM     17  N   UNL     1      46.730   4.935  14.676  0.00  0.00    +0.000 N 
ATOM     18  C   UNL     1      47.431   3.962  15.319  0.00  0.00    +0.000 C 
ATOM     19  O   UNL     1      47.643   2.863  14.815  0.00  0.00    +0.000 OA
ATOM     20  H   UNL     1      46.369   5.724  15.200  0.00  0.00    +0.000 HD
BRANCH  18  21
ATOM     21  C   UNL     1      47.989   4.343  16.618  0.00  0.00    +0.000 A 
ATOM     22  C   UNL     1      47.656   3.607  17.746  0.00  0.00    +0.000 A 
ATOM     23  S   UNL     1      48.466   4.120  19.154  0.00  0.00    +0.000 S 
ATOM     24  C   UNL     1      49.256   5.371  18.313  0.00  0.00    +0.000 A 
ATOM     25  N   UNL     1      50.117   6.209  18.952  0.00  0.00    +0.000 NA
ATOM     26  C   UNL     1      50.635   7.119  18.195  0.00  0.00    +0.000 A 
ATOM     27  N   UNL     1      50.369   7.278  16.861  0.00  0.00    +0.000 N 
ATOM     28  C   UNL     1      49.514   6.453  16.172  0.00  0.00    +0.000 A 
ATOM     29  O   UNL     1      49.298   6.608  14.974  0.00  0.00    +0.000 OA
ATOM     30  C   UNL     1      48.911   5.399  16.979  0.00  0.00    +0.000 A 
ATOM     31  H   UNL     1      50.806   8.012  16.323  0.00  0.00    +0.000 HD
ENDBRANCH  18  21
ENDBRANCH   1  17
TORSDOF 6
ENDMDL
MODEL 4
REMARK VINA RESULT:    -6.337      2.887      3.551
REMARK INTER + INTRA:          -9.399
REMARK INTER:                  -8.076
REMARK INTRA:                  -1.323
REMARK UNBOUND:                -0.839
REMARK  Name = 
REMARK  6 active torsions:
REMARK  status: ('A' for Active; 'I' for Inactive)
REMARK    1  A    between atoms: C_2  and  C_3
REMARK    2  A    between atoms: C_7  and  C_8
REMARK    3  A    between atoms: C_8  and  C_9
REMARK    4  A    between atoms: C_12  and  C_13
REMARK    5  A    between atoms: C_13  and  N_14
REMARK    6  A    between atoms: C_15  and  C_17
REMARK                            x       y       z     vdW  Elec       q    Type
REMARK                         _______ _______ _______ _____ _____    ______ ____
ROOT
ATOM      1  C   UNL     1      48.906   9.171  14.304  0.00  0.00    +0.000 C 
ENDROOT
BRANCH   1   5
ATOM      2  C   UNL     1      46.210   6.999  11.809  0.00  0.00    +0.000 A 
ATOM      3  C   UNL     1      47.569   6.946  11.535  0.00  0.00    +0.000 A 
ATOM      4  C   UNL     1      48.446   7.653  12.343  0.00  0.00    +0.000 A 
ATOM      5  C   UNL     1      47.964   8.413  13.423  0.00  0.00    +0.000 A 
ATOM      6  C   UNL     1      46.589   8.543  13.626  0.00  0.00    +0.000 A 
ATOM      7  C   UNL     1      45.715   7.837  12.824  0.00  0.00    +0.000 A 
BRANCH   2   8
ATOM      8  C   UNL     1      45.237   6.165  11.046  0.00  0.00    +0.000 C 
BRANCH   8  13
ATOM      9  C   UNL     1      43.093   3.900  11.514  0.00  0.00    +0.000 C 
ATOM     10  C   UNL     1      43.586   3.462  12.891  0.00  0.00    +0.000 C 
ATOM     11  O   UNL     1      44.742   4.189  13.310  0.00  0.00    +0.000 OA
ATOM     12  C   UNL     1      45.845   4.077  12.407  0.00  0.00    +0.000 C 
ATOM     13  C   UNL     1      45.498   4.640  11.021  0.00  0.00    +0.000 C 
ATOM     14  C   UNL     1      44.256   3.879  10.502  0.00  0.00    +0.000 C 
BRANCH   9  16
ATOM     15  N   UNL     1      42.099   6.495  11.630  0.00  0.00    +0.000 NA
ATOM     16  C   UNL     1      42.550   5.319  11.578  0.00  0.00    +0.000 C 
ENDBRANCH   9  16
ENDBRANCH   8  13
ENDBRANCH   2   8
ENDBRANCH   1   5
BRANCH   1  17
ATOM     17  N   UNL     1      49.215   8.370  15.451  0.00  0.00    +0.000 N 
ATOM     18  C   UNL     1      48.638   8.590  16.664  0.00  0.00    +0.000 C 
ATOM     19  O   UNL     1      47.805   9.474  16.843  0.00  0.00    +0.000 OA
ATOM     20  H   UNL     1      50.059   7.809  15.390  0.00  0.00    +0.000 HD
BRANCH  18  21
ATOM     21  C   UNL     1      49.012   7.647  17.720  0.00  0.00    +0.000 A 
ATOM     22  C   UNL     1      49.482   8.133  18.931  0.00  0.00    +0.000 A 
ATOM     23  S   UNL     1      49.778   6.911  20.082  0.00  0.00    +0.000 S 
ATOM     24  C   UNL     1      49.331   5.689  18.985  0.00  0.00    +0.000 A 
ATOM     25  N   UNL     1      49.361   4.378  19.346  0.00  0.00    +0.000 NA
ATOM     26  C   UNL     1      49.008   3.559  18.411  0.00  0.00    +0.000 A 
ATOM     27  N   UNL     1      48.636   3.924  17.145  0.00  0.00    +0.000 N 
ATOM     28  C   UNL     1      48.582   5.234  16.737  0.00  0.00    +0.000 A 
ATOM     29  O   UNL     1      48.236   5.538  15.599  0.00  0.00    +0.000 OA
ATOM     30  C   UNL     1      48.960   6.202  17.760  0.00  0.00    +0.000 A 
ATOM     31  H   UNL     1      48.372   3.234  16.457  0.00  0.00    +0.000 HD
ENDBRANCH  18  21
ENDBRANCH   1  17
TORSDOF 6
ENDMDL
MODEL 5
REMARK VINA RESULT:    -6.297      3.389      8.962
REMARK INTER + INTRA:          -9.344
REMARK INTER:                  -8.445
REMARK INTRA:                  -0.899
REMARK UNBOUND:                -0.839
REMARK  Name = 
REMARK  6 active torsions:
REMARK  status: ('A' for Active; 'I' for Inactive)
REMARK    1  A    between atoms: C_2  and  C_3
REMARK    2  A    between atoms: C_7  and  C_8
REMARK    3  A    between atoms: C_8  and  C_9
REMARK    4  A    between atoms: C_12  and  C_13
REMARK    5  A    between atoms: C_13  and  N_14
REMARK    6  A    between atoms: C_15  and  C_17
REMARK                            x       y       z     vdW  Elec       q    Type
REMARK                         _______ _______ _______ _____ _____    ______ ____
ROOT
ATOM      1  C   UNL     1      47.308   8.105  11.966  0.00  0.00    +0.000 C 
ENDROOT
BRANCH   1   5
ATOM      2  C   UNL     1      49.752   8.047  15.465  0.00  0.00    +0.000 A 
ATOM      3  C   UNL     1      48.544   8.728  15.501  0.00  0.00    +0.000 A 
ATOM      4  C   UNL     1      47.750   8.750  14.364  0.00  0.00    +0.000 A 
ATOM      5  C   UNL     1      48.165   8.093  13.193  0.00  0.00    +0.000 A 
ATOM      6  C   UNL     1      49.428   7.500  13.136  0.00  0.00    +0.000 A 
ATOM      7  C   UNL     1      50.217   7.475  14.267  0.00  0.00    +0.000 A 
BRANCH   2   8
ATOM      8  C   UNL     1      50.586   7.893  16.691  0.00  0.00    +0.000 C 
BRANCH   8  13
ATOM      9  C   UNL     1      51.779   5.350  18.125  0.00  0.00    +0.000 C 
ATOM     10  C   UNL     1      50.776   4.340  17.575  0.00  0.00    +0.000 C 
ATOM     11  O   UNL     1      49.786   4.955  16.747  0.00  0.00    +0.000 OA
ATOM     12  C   UNL     1      49.040   5.977  17.413  0.00  0.00    +0.000 C 
ATOM     13  C   UNL     1      49.948   7.127  17.874  0.00  0.00    +0.000 C 
ATOM     14  C   UNL     1      51.039   6.527  18.792  0.00  0.00    +0.000 C 
BRANCH   9  16
ATOM     15  N   UNL     1      53.343   6.373  16.065  0.00  0.00    +0.000 NA
ATOM     16  C   UNL     1      52.634   5.910  16.998  0.00  0.00    +0.000 C 
ENDBRANCH   9  16
ENDBRANCH   8  13
ENDBRANCH   2   8
ENDBRANCH   1   5
BRANCH   1  17
ATOM     17  N   UNL     1      46.661   6.833  11.840  0.00  0.00    +0.000 N 
ATOM     18  C   UNL     1      45.315   6.721  11.665  0.00  0.00    +0.000 C 
ATOM     19  O   UNL     1      44.580   7.700  11.587  0.00  0.00    +0.000 OA
ATOM     20  H   UNL     1      47.198   6.026  12.141  0.00  0.00    +0.000 HD
BRANCH  18  21
ATOM     21  C   UNL     1      44.815   5.356  11.492  0.00  0.00    +0.000 A 
ATOM     22  C   UNL     1      44.111   4.752  12.523  0.00  0.00    +0.000 A 
ATOM     23  S   UNL     1      43.516   3.206  12.123  0.00  0.00    +0.000 S 
ATOM     24  C   UNL     1      44.217   3.273  10.574  0.00  0.00    +0.000 A 
ATOM     25  N   UNL     1      44.083   2.241   9.700  0.00  0.00    +0.000 NA
ATOM     26  C   UNL     1      44.676   2.421   8.566  0.00  0.00    +0.000 A 
ATOM     27  N   UNL     1      45.399   3.533   8.225  0.00  0.00    +0.000 N 
ATOM     28  C   UNL     1      45.556   4.603   9.071  0.00  0.00    +0.000 A 
ATOM     29  O   UNL     1      46.201   5.595   8.740  0.00  0.00    +0.000 OA
ATOM     30  C   UNL     1      44.894   4.455  10.362  0.00  0.00    +0.000 A 
ATOM     31  H   UNL     1      45.842   3.614   7.322  0.00  0.00    +0.000 HD
ENDBRANCH  18  21
ENDBRANCH   1  17
TORSDOF 6
ENDMDL
MODEL 6
REMARK VINA RESULT:    -6.213      4.548      9.129
REMARK INTER + INTRA:          -9.231
REMARK INTER:                  -8.094
REMARK INTRA:                  -1.136
REMARK UNBOUND:                -0.839
REMARK  Name = 
REMARK  6 active torsions:
REMARK  status: ('A' for Active; 'I' for Inactive)
REMARK    1  A    between atoms: C_2  and  C_3
REMARK    2  A    between atoms: C_7  and  C_8
REMARK    3  A    between atoms: C_8  and  C_9
REMARK    4  A    between atoms: C_12  and  C_13
REMARK    5  A    between atoms: C_13  and  N_14
REMARK    6  A    between atoms: C_15  and  C_17
REMARK                            x       y       z     vdW  Elec       q    Type
REMARK                         _______ _______ _______ _____ _____    ______ ____
ROOT
ATOM      1  C   UNL     1      47.638   7.705  12.074  0.00  0.00    +0.000 C 
ENDROOT
BRANCH   1   5
ATOM      2  C   UNL     1      48.783   8.052  16.171  0.00  0.00    +0.000 A 
ATOM      3  C   UNL     1      48.760   6.795  15.585  0.00  0.00    +0.000 A 
ATOM      4  C   UNL     1      48.385   6.680  14.254  0.00  0.00    +0.000 A 
ATOM      5  C   UNL     1      48.034   7.821  13.512  0.00  0.00    +0.000 A 
ATOM      6  C   UNL     1      47.961   9.066  14.140  0.00  0.00    +0.000 A 
ATOM      7  C   UNL     1      48.336   9.182  15.463  0.00  0.00    +0.000 A 
BRANCH   2   8
ATOM      8  C   UNL     1      49.291   8.244  17.560  0.00  0.00    +0.000 C 
BRANCH   8  13
ATOM      9  C   UNL     1      47.714   8.012  20.281  0.00  0.00    +0.000 C 
ATOM     10  C   UNL     1      48.930   8.052  21.203  0.00  0.00    +0.000 C 
ATOM     11  O   UNL     1      50.159   8.129  20.477  0.00  0.00    +0.000 OA
ATOM     12  C   UNL     1      50.351   7.045  19.565  0.00  0.00    +0.000 C 
ATOM     13  C   UNL     1      49.253   7.010  18.491  0.00  0.00    +0.000 C 
ATOM     14  C   UNL     1      47.890   6.911  19.217  0.00  0.00    +0.000 C 
BRANCH   9  16
ATOM     15  N   UNL     1      47.425  10.445  18.965  0.00  0.00    +0.000 NA
ATOM     16  C   UNL     1      47.556   9.342  19.561  0.00  0.00    +0.000 C 
ENDBRANCH   9  16
ENDBRANCH   8  13
ENDBRANCH   2   8
ENDBRANCH   1   5
BRANCH   1  17
ATOM     17  N   UNL     1      46.933   6.473  11.884  0.00  0.00    +0.000 N 
ATOM     18  C   UNL     1      45.576   6.397  11.959  0.00  0.00    +0.000 C 
ATOM     19  O   UNL     1      44.875   7.382  12.173  0.00  0.00    +0.000 OA
ATOM     20  H   UNL     1      47.488   5.626  11.949  0.00  0.00    +0.000 HD
BRANCH  18  21
ATOM     21  C   UNL     1      45.003   5.079  11.681  0.00  0.00    +0.000 A 
ATOM     22  C   UNL     1      44.341   4.396  12.691  0.00  0.00    +0.000 A 
ATOM     23  S   UNL     1      43.650   2.927  12.175  0.00  0.00    +0.000 S 
ATOM     24  C   UNL     1      44.251   3.131  10.596  0.00  0.00    +0.000 A 
ATOM     25  N   UNL     1      44.012   2.203   9.631  0.00  0.00    +0.000 NA
ATOM     26  C   UNL     1      44.538   2.480   8.484  0.00  0.00    +0.000 A 
ATOM     27  N   UNL     1      45.287   3.593   8.210  0.00  0.00    +0.000 N 
ATOM     28  C   UNL     1      45.548   4.560   9.148  0.00  0.00    +0.000 A 
ATOM     29  O   UNL     1      46.215   5.555   8.878  0.00  0.00    +0.000 OA
ATOM     30  C   UNL     1      44.966   4.301  10.460  0.00  0.00    +0.000 A 
ATOM     31  H   UNL     1      45.673   3.752   7.291  0.00  0.00    +0.000 HD
ENDBRANCH  18  21
ENDBRANCH   1  17
TORSDOF 6
ENDMDL
MODEL 7
REMARK VINA RESULT:    -6.190      3.626      5.612
REMARK INTER + INTRA:          -9.199
REMARK INTER:                  -8.172
REMARK INTRA:                  -1.028
REMARK UNBOUND:                -0.839
REMARK  Name = 
REMARK  6 active torsions:
REMARK  status: ('A' for Active; 'I' for Inactive)
REMARK    1  A    between atoms: C_2  and  C_3
REMARK    2  A    between atoms: C_7  and  C_8
REMARK    3  A    between atoms: C_8  and  C_9
REMARK    4  A    between atoms: C_12  and  C_13
REMARK    5  A    between atoms: C_13  and  N_14
REMARK    6  A    between atoms: C_15  and  C_17
REMARK                            x       y       z     vdW  Elec       q    Type
REMARK                         _______ _______ _______ _____ _____    ______ ____
ROOT
ATOM      1  C   UNL     1      49.290   5.613  17.462  0.00  0.00    +0.000 C 
ENDROOT
BRANCH   1   5
ATOM      2  C   UNL     1      46.928   5.048  13.951  0.00  0.00    +0.000 A 
ATOM      3  C   UNL     1      47.727   6.178  14.048  0.00  0.00    +0.000 A 
ATOM      4  C   UNL     1      48.493   6.365  15.190  0.00  0.00    +0.000 A 
ATOM      5  C   UNL     1      48.459   5.423  16.232  0.00  0.00    +0.000 A 
ATOM      6  C   UNL     1      47.575   4.343  16.169  0.00  0.00    +0.000 A 
ATOM      7  C   UNL     1      46.815   4.155  15.032  0.00  0.00    +0.000 A 
BRANCH   2   8
ATOM      8  C   UNL     1      46.179   4.740  12.700  0.00  0.00    +0.000 C 
BRANCH   8  13
ATOM      9  C   UNL     1      43.277   5.109  11.523  0.00  0.00    +0.000 C 
ATOM     10  C   UNL     1      43.644   4.895  10.057  0.00  0.00    +0.000 C 
ATOM     11  O   UNL     1      45.045   4.679   9.874  0.00  0.00    +0.000 OA
ATOM     12  C   UNL     1      45.856   5.750  10.364  0.00  0.00    +0.000 C 
ATOM     13  C   UNL     1      45.674   5.948  11.876  0.00  0.00    +0.000 C 
ATOM     14  C   UNL     1      44.171   6.203  12.140  0.00  0.00    +0.000 C 
BRANCH   9  16
ATOM     15  N   UNL     1      43.664   2.763  12.965  0.00  0.00    +0.000 NA
ATOM     16  C   UNL     1      43.489   3.827  12.311  0.00  0.00    +0.000 C 
ENDBRANCH   9  16
ENDBRANCH   8  13
ENDBRANCH   2   8
ENDBRANCH   1   5
BRANCH   1  17
ATOM     17  N   UNL     1      48.886   6.824  18.112  0.00  0.00    +0.000 N 
ATOM     18  C   UNL     1      47.819   6.871  18.954  0.00  0.00    +0.000 C 
ATOM     19  O   UNL     1      47.150   5.878  19.223  0.00  0.00    +0.000 OA
ATOM     20  H   UNL     1      49.260   7.685  17.725  0.00  0.00    +0.000 HD
BRANCH  18  21
ATOM     21  C   UNL     1      47.573   8.169  19.586  0.00  0.00    +0.000 A 
ATOM     22  C   UNL     1      47.349   8.230  20.954  0.00  0.00    +0.000 A 
ATOM     23  S   UNL     1      47.180   9.820  21.542  0.00  0.00    +0.000 S 
ATOM     24  C   UNL     1      47.354  10.478  19.982  0.00  0.00    +0.000 A 
ATOM     25  N   UNL     1      47.305  11.822  19.780  0.00  0.00    +0.000 NA
ATOM     26  C   UNL     1      47.439  12.181  18.546  0.00  0.00    +0.000 A 
ATOM     27  N   UNL     1      47.611  11.324  17.492  0.00  0.00    +0.000 N 
ATOM     28  C   UNL     1      47.676   9.961  17.648  0.00  0.00    +0.000 A 
ATOM     29  O   UNL     1      47.840   9.212  16.689  0.00  0.00    +0.000 OA
ATOM     30  C   UNL     1      47.541   9.504  19.026  0.00  0.00    +0.000 A 
ATOM     31  H   UNL     1      47.709  11.667  16.548  0.00  0.00    +0.000 HD
ENDBRANCH  18  21
ENDBRANCH   1  17
TORSDOF 6
ENDMDL
MODEL 8
REMARK VINA RESULT:    -6.156      3.793      4.532
REMARK INTER + INTRA:          -9.154
REMARK INTER:                  -8.240
REMARK INTRA:                  -0.914
REMARK UNBOUND:                -0.839
REMARK  Name = 
REMARK  6 active torsions:
REMARK  status: ('A' for Active; 'I' for Inactive)
REMARK    1  A    between atoms: C_2  and  C_3
REMARK    2  A    between atoms: C_7  and  C_8
REMARK    3  A    between atoms: C_8  and  C_9
REMARK    4  A    between atoms: C_12  and  C_13
REMARK    5  A    between atoms: C_13  and  N_14
REMARK    6  A    between atoms: C_15  and  C_17
REMARK                            x       y       z     vdW  Elec       q    Type
REMARK                         _______ _______ _______ _____ _____    ______ ____
ROOT
ATOM      1  C   UNL     1      48.171   9.561  14.585  0.00  0.00    +0.000 C 
ENDROOT
BRANCH   1   5
ATOM      2  C   UNL     1      46.301   6.550  12.208  0.00  0.00    +0.000 A 
ATOM      3  C   UNL     1      45.699   7.796  12.309  0.00  0.00    +0.000 A 
ATOM      4  C   UNL     1      46.304   8.775  13.083  0.00  0.00    +0.000 A 
ATOM      5  C   UNL     1      47.509   8.507  13.756  0.00  0.00    +0.000 A 
ATOM      6  C   UNL     1      48.051   7.220  13.731  0.00  0.00    +0.000 A 
ATOM      7  C   UNL     1      47.451   6.246  12.958  0.00  0.00    +0.000 A 
BRANCH   2   8
ATOM      8  C   UNL     1      45.757   5.503  11.296  0.00  0.00    +0.000 C 
BRANCH   8  13
ATOM      9  C   UNL     1      43.692   3.522  12.621  0.00  0.00    +0.000 C 
ATOM     10  C   UNL     1      43.375   2.718  11.363  0.00  0.00    +0.000 C 
ATOM     11  O   UNL     1      44.071   3.209  10.216  0.00  0.00    +0.000 OA
ATOM     12  C   UNL     1      43.795   4.581   9.925  0.00  0.00    +0.000 C 
ATOM     13  C   UNL     1      44.225   5.500  11.078  0.00  0.00    +0.000 C 
ATOM     14  C   UNL     1      43.490   5.027  12.355  0.00  0.00    +0.000 C 
BRANCH   9  16
ATOM     15  N   UNL     1      46.340   3.127  13.374  0.00  0.00    +0.000 NA
ATOM     16  C   UNL     1      45.140   3.307  13.033  0.00  0.00    +0.000 C 
ENDBRANCH   9  16
ENDBRANCH   8  13
ENDBRANCH   2   8
ENDBRANCH   1   5
BRANCH   1  17
ATOM     17  N   UNL     1      47.884   9.315  15.967  0.00  0.00    +0.000 N 
ATOM     18  C   UNL     1      48.854   8.969  16.857  0.00  0.00    +0.000 C 
ATOM     19  O   UNL     1      50.034   8.866  16.534  0.00  0.00    +0.000 OA
ATOM     20  H   UNL     1      46.909   9.155  16.199  0.00  0.00    +0.000 HD
BRANCH  18  21
ATOM     21  C   UNL     1      48.409   8.810  18.243  0.00  0.00    +0.000 A 
ATOM     22  C   UNL     1      48.243   9.934  19.038  0.00  0.00    +0.000 A 
ATOM     23  S   UNL     1      47.627   9.583  20.587  0.00  0.00    +0.000 S 
ATOM     24  C   UNL     1      47.604   7.913  20.263  0.00  0.00    +0.000 A 
ATOM     25  N   UNL     1      47.174   7.024  21.199  0.00  0.00    +0.000 NA
ATOM     26  C   UNL     1      47.222   5.789  20.822  0.00  0.00    +0.000 A 
ATOM     27  N   UNL     1      47.667   5.355  19.602  0.00  0.00    +0.000 N 
ATOM     28  C   UNL     1      48.102   6.214  18.623  0.00  0.00    +0.000 A 
ATOM     29  O   UNL     1      48.487   5.804  17.532  0.00  0.00    +0.000 OA
ATOM     30  C   UNL     1      48.057   7.624  18.994  0.00  0.00    +0.000 A 
ATOM     31  H   UNL     1      47.681   4.373  19.368  0.00  0.00    +0.000 HD
ENDBRANCH  18  21
ENDBRANCH   1  17
TORSDOF 6
ENDMDL
MODEL 9
REMARK VINA RESULT:    -6.139      2.739      3.756
REMARK INTER + INTRA:          -9.131
REMARK INTER:                  -7.820
REMARK INTRA:                  -1.311
REMARK UNBOUND:                -0.839
REMARK  Name = 
REMARK  6 active torsions:
REMARK  status: ('A' for Active; 'I' for Inactive)
REMARK    1  A    between atoms: C_2  and  C_3
REMARK    2  A    between atoms: C_7  and  C_8
REMARK    3  A    between atoms: C_8  and  C_9
REMARK    4  A    between atoms: C_12  and  C_13
REMARK    5  A    between atoms: C_13  and  N_14
REMARK    6  A    between atoms: C_15  and  C_17
REMARK                            x       y       z     vdW  Elec       q    Type
REMARK                         _______ _______ _______ _____ _____    ______ ____
ROOT
ATOM      1  C   UNL     1      49.625   9.519  13.063  0.00  0.00    +0.000 C 
ENDROOT
BRANCH   1   5
ATOM      2  C   UNL     1      46.130   7.310  12.006  0.00  0.00    +0.000 A 
ATOM      3  C   UNL     1      47.373   6.812  11.645  0.00  0.00    +0.000 A 
ATOM      4  C   UNL     1      48.510   7.530  11.986  0.00  0.00    +0.000 A 
ATOM      5  C   UNL     1      48.403   8.745  12.685  0.00  0.00    +0.000 A 
ATOM      6  C   UNL     1      47.143   9.287  12.952  0.00  0.00    +0.000 A 
ATOM      7  C   UNL     1      46.012   8.571  12.616  0.00  0.00    +0.000 A 
BRANCH   2   8
ATOM      8  C   UNL     1      44.887   6.521  11.771  0.00  0.00    +0.000 C 
BRANCH   8  13
ATOM      9  C   UNL     1      44.831   3.420  11.206  0.00  0.00    +0.000 C 
ATOM     10  C   UNL     1      43.317   3.245  11.281  0.00  0.00    +0.000 C 
ATOM     11  O   UNL     1      42.645   4.467  11.594  0.00  0.00    +0.000 OA
ATOM     12  C   UNL     1      43.069   5.052  12.828  0.00  0.00    +0.000 C 
ATOM     13  C   UNL     1      44.562   5.411  12.798  0.00  0.00    +0.000 C 
ATOM     14  C   UNL     1      45.350   4.119  12.478  0.00  0.00    +0.000 C 
BRANCH   9  16
ATOM     15  N   UNL     1      45.511   4.996   9.018  0.00  0.00    +0.000 NA
ATOM     16  C   UNL     1      45.203   4.281  10.009  0.00  0.00    +0.000 C 
ENDBRANCH   9  16
ENDBRANCH   8  13
ENDBRANCH   2   8
ENDBRANCH   1   5
BRANCH   1  17
ATOM     17  N   UNL     1      50.213   8.921  14.225  0.00  0.00    +0.000 N 
ATOM     18  C   UNL     1      49.893   9.324  15.485  0.00  0.00    +0.000 C 
ATOM     19  O   UNL     1      49.070  10.208  15.703  0.00  0.00    +0.000 OA
ATOM     20  H   UNL     1      51.054   8.376  14.070  0.00  0.00    +0.000 HD
BRANCH  18  21
ATOM     21  C   UNL     1      50.534   8.573  16.567  0.00  0.00    +0.000 A 
ATOM     22  C   UNL     1      51.426   9.219  17.410  0.00  0.00    +0.000 A 
ATOM     23  S   UNL     1      52.003   8.231  18.672  0.00  0.00    +0.000 S 
ATOM     24  C   UNL     1      51.115   6.893  18.108  0.00  0.00    +0.000 A 
ATOM     25  N   UNL     1      51.166   5.697  18.753  0.00  0.00    +0.000 NA
ATOM     26  C   UNL     1      50.453   4.767  18.209  0.00  0.00    +0.000 A 
ATOM     27  N   UNL     1      49.698   4.916  17.076  0.00  0.00    +0.000 N 
ATOM     28  C   UNL     1      49.608   6.105  16.396  0.00  0.00    +0.000 A 
ATOM     29  O   UNL     1      48.917   6.218  15.388  0.00  0.00    +0.000 OA
ATOM     30  C   UNL     1      50.387   7.193  16.977  0.00  0.00    +0.000 A 
ATOM     31  H   UNL     1      49.162   4.148  16.699  0.00  0.00    +0.000 HD
ENDBRANCH  18  21
ENDBRANCH   1  17
TORSDOF 6
ENDMDL
