MODEL 1
REMARK VINA RESULT:    -6.933      0.000      0.000
REMARK INTER + INTRA:          -9.070
REMARK INTER:                  -8.149
REMARK INTRA:                  -0.922
REMARK UNBOUND:                -0.922
REMARK  Name = 
REMARK  5 active torsions:
REMARK  status: ('A' for Active; 'I' for Inactive)
REMARK    1  A    between atoms: C_1  and  C_2
REMARK    2  A    between atoms: C_4  and  C_5
REMARK    3  A    between atoms: N_8  and  C_9
REMARK    4  A    between atoms: C_9  and  C_10
REMARK    5  A    between atoms: C_15  and  C_16
REMARK                            x       y       z     vdW  Elec       q    Type
REMARK                         _______ _______ _______ _____ _____    ______ ____
ROOT
ATOM      1  C   UNL     1      47.356   7.910  12.282  0.00  0.00    +0.000 A 
ATOM      2  C   UNL     1      46.717   9.155  12.362  0.00  0.00    +0.000 A 
ATOM      3  C   UNL     1      45.393   9.310  11.974  0.00  0.00    +0.000 A 
ATOM      4  C   UNL     1      44.672   8.215  11.513  0.00  0.00    +0.000 A 
ATOM      5  F   UNL     1      43.434   8.458  11.068  0.00  0.00    +0.000 F 
ATOM      6  C   UNL     1      45.223   6.928  11.488  0.00  0.00    +0.000 A 
ATOM      7  C   UNL     1      46.577   6.810  11.873  0.00  0.00    +0.000 A 
ENDROOT
BRANCH   6   8
ATOM      8  C   UNL     1      44.490   5.679  11.002  0.00  0.00    +0.000 C 
ATOM      9  C   UNL     1      43.035   5.483  11.465  0.00  0.00    +0.000 C 
ATOM     10  C   UNL     1      42.938   5.028  12.925  0.00  0.00    +0.000 C 
ATOM     11  N   UNL     1      43.720   3.816  13.184  0.00  0.00    +0.000 NA
ATOM     12  C   UNL     1      45.118   3.987  12.795  0.00  0.00    +0.000 C 
ATOM     13  C   UNL     1      45.253   4.375  11.323  0.00  0.00    +0.000 C 
ATOM     14  H   UNL     1      43.312   3.043  12.660  0.00  0.00    +0.000 HD
ENDBRANCH   6   8
BRANCH   1  15
ATOM     15  C   UNL     1      48.858   7.780  12.541  0.00  0.00    +0.000 C 
ATOM     16  C   UNL     1      49.796   7.734  11.339  0.00  0.00    +0.000 C 
ATOM     17  C   UNL     1      49.697   8.983  12.145  0.00  0.00    +0.000 C 
BRANCH  15  25
ATOM     18  C   UNL     1      48.029   9.620  17.587  0.00  0.00    +0.000 C 
ATOM     19  C   UNL     1      48.532   8.353  16.962  0.00  0.00    +0.000 A 
ATOM     20  C   UNL     1      48.840   7.235  17.734  0.00  0.00    +0.000 A 
ATOM     21  C   UNL     1      49.274   6.082  17.093  0.00  0.00    +0.000 A 
ATOM     22  C   UNL     1      49.683   4.867  17.869  0.00  0.00    +0.000 C 
ATOM     23  N   UNL     1      49.371   5.989  15.746  0.00  0.00    +0.000 NA
ATOM     24  C   UNL     1      49.074   7.070  14.994  0.00  0.00    +0.000 A 
ATOM     25  N   UNL     1      49.231   6.882  13.628  0.00  0.00    +0.000 N 
ATOM     26  C   UNL     1      48.679   8.266  15.572  0.00  0.00    +0.000 A 
ATOM     27  H   UNL     1      49.413   5.900  13.446  0.00  0.00    +0.000 HD
ENDBRANCH  15  25
ENDBRANCH   1  15
TORSDOF 3
ENDMDL
MODEL 2
REMARK VINA RESULT:    -6.088      2.441      4.585
REMARK INTER + INTRA:          -8.077
REMARK INTER:                  -8.099
REMARK INTRA:                   0.022
REMARK UNBOUND:                -0.922
REMARK  Name = 
REMARK  5 active torsions:
REMARK  status: ('A' for Active; 'I' for Inactive)
REMARK    1  A    between atoms: C_1  and  C_2
REMARK    2  A    between atoms: C_4  and  C_5
REMARK    3  A    between atoms: N_8  and  C_9
REMARK    4  A    between atoms: C_9  and  C_10
REMARK    5  A    between atoms: C_15  and  C_16
REMARK                            x       y       z     vdW  Elec       q    Type
REMARK                         _______ _______ _______ _____ _____    ______ ____
ROOT
ATOM      1  C   UNL     1      47.707   5.305  15.106  0.00  0.00    +0.000 A 
ATOM      2  C   UNL     1      48.358   6.480  14.703  0.00  0.00    +0.000 A 
ATOM      3  C   UNL     1      48.136   7.032  13.449  0.00  0.00    +0.000 A 
ATOM      4  C   UNL     1      47.239   6.428  12.574  0.00  0.00    +0.000 A 
ATOM      5  F   UNL     1      47.148   6.960  11.350  0.00  0.00    +0.000 F 
ATOM      6  C   UNL     1      46.493   5.303  12.945  0.00  0.00    +0.000 A 
ATOM      7  C   UNL     1      46.757   4.758  14.221  0.00  0.00    +0.000 A 
ENDROOT
BRANCH   6   8
ATOM      8  C   UNL     1      45.488   4.592  12.041  0.00  0.00    +0.000 C 
ATOM      9  C   UNL     1      44.878   5.400  10.881  0.00  0.00    +0.000 C 
ATOM     10  C   UNL     1      43.817   6.399  11.353  0.00  0.00    +0.000 C 
ATOM     11  N   UNL     1      42.757   5.758  12.135  0.00  0.00    +0.000 NA
ATOM     12  C   UNL     1      43.302   5.018  13.271  0.00  0.00    +0.000 C 
ATOM     13  C   UNL     1      44.316   3.964  12.827  0.00  0.00    +0.000 C 
ATOM     14  H   UNL     1      42.240   5.121  11.531  0.00  0.00    +0.000 HD
ENDBRANCH   6   8
BRANCH   1  15
ATOM     15  C   UNL     1      48.085   4.607  16.413  0.00  0.00    +0.000 C 
ATOM     16  C   UNL     1      46.963   4.192  17.359  0.00  0.00    +0.000 C 
ATOM     17  C   UNL     1      47.644   3.158  16.531  0.00  0.00    +0.000 C 
BRANCH  15  25
ATOM     18  C   UNL     1      51.958   0.989  17.615  0.00  0.00    +0.000 C 
ATOM     19  C   UNL     1      51.775   2.470  17.754  0.00  0.00    +0.000 A 
ATOM     20  C   UNL     1      52.798   3.287  18.231  0.00  0.00    +0.000 A 
ATOM     21  C   UNL     1      52.576   4.655  18.310  0.00  0.00    +0.000 A 
ATOM     22  C   UNL     1      53.613   5.581  18.874  0.00  0.00    +0.000 C 
ATOM     23  N   UNL     1      51.420   5.231  17.906  0.00  0.00    +0.000 NA
ATOM     24  C   UNL     1      50.425   4.444  17.444  0.00  0.00    +0.000 A 
ATOM     25  N   UNL     1      49.272   5.126  17.081  0.00  0.00    +0.000 N 
ATOM     26  C   UNL     1      50.563   3.066  17.382  0.00  0.00    +0.000 A 
ATOM     27  H   UNL     1      49.455   6.125  17.106  0.00  0.00    +0.000 HD
ENDBRANCH  15  25
ENDBRANCH   1  15
TORSDOF 3
ENDMDL
MODEL 3
REMARK VINA RESULT:    -5.969      2.697      4.495
REMARK INTER + INTRA:          -7.937
REMARK INTER:                  -7.302
REMARK INTRA:                  -0.635
REMARK UNBOUND:                -0.922
REMARK  Name = 
REMARK  5 active torsions:
REMARK  status: ('A' for Active; 'I' for Inactive)
REMARK    1  A    between atoms: C_1  and  C_2
REMARK    2  A    between atoms: C_4  and  C_5
REMARK    3  A    between atoms: N_8  and  C_9
REMARK    4  A    between atoms: C_9  and  C_10
REMARK    5  A    between atoms: C_15  and  C_16
REMARK                            x       y       z     vdW  Elec       q    Type
REMARK                         _______ _______ _______ _____ _____    ______ ____
ROOT
ATOM      1  C   UNL     1      45.956   6.136  11.925  0.00  0.00    +0.000 A 
ATOM      2  C   UNL     1      46.109   5.336  13.065  0.00  0.00    +0.000 A 
ATOM      3  C   UNL     1      45.663   4.021  13.087  0.00  0.00    +0.000 A 
ATOM      4  C   UNL     1      45.068   3.472  11.957  0.00  0.00    +0.000 A 
ATOM      5  F   UNL     1      44.576   2.234  12.082  0.00  0.00    +0.000 F 
ATOM      6  C   UNL     1      44.960   4.189  10.759  0.00  0.00    +0.000 A 
ATOM      7  C   UNL     1      45.408   5.528  10.778  0.00  0.00    +0.000 A 
ENDROOT
BRANCH   6   8
ATOM      8  C   UNL     1      44.325   3.649   9.479  0.00  0.00    +0.000 C 
ATOM      9  C   UNL     1      44.418   2.134   9.223  0.00  0.00    +0.000 C 
ATOM     10  C   UNL     1      45.815   1.698   8.769  0.00  0.00    +0.000 C 
ATOM     11  N   UNL     1      46.275   2.440   7.591  0.00  0.00    +0.000 NA
ATOM     12  C   UNL     1      46.240   3.883   7.820  0.00  0.00    +0.000 C 
ATOM     13  C   UNL     1      44.842   4.361   8.209  0.00  0.00    +0.000 C 
ATOM     14  H   UNL     1      45.677   2.206   6.800  0.00  0.00    +0.000 HD
ENDBRANCH   6   8
BRANCH   1  15
ATOM     15  C   UNL     1      46.287   7.629  11.963  0.00  0.00    +0.000 C 
ATOM     16  C   UNL     1      45.192   8.620  11.582  0.00  0.00    +0.000 C 
ATOM     17  C   UNL     1      45.548   8.436  13.017  0.00  0.00    +0.000 C 
BRANCH  15  25
ATOM     18  C   UNL     1      50.282   7.584  15.647  0.00  0.00    +0.000 C 
ATOM     19  C   UNL     1      50.165   7.844  14.175  0.00  0.00    +0.000 A 
ATOM     20  C   UNL     1      51.290   8.078  13.387  0.00  0.00    +0.000 A 
ATOM     21  C   UNL     1      51.118   8.283  12.025  0.00  0.00    +0.000 A 
ATOM     22  C   UNL     1      52.280   8.604  11.133  0.00  0.00    +0.000 C 
ATOM     23  N   UNL     1      49.905   8.227  11.426  0.00  0.00    +0.000 NA
ATOM     24  C   UNL     1      48.812   8.002  12.185  0.00  0.00    +0.000 A 
ATOM     25  N   UNL     1      47.616   7.989  11.482  0.00  0.00    +0.000 N 
ATOM     26  C   UNL     1      48.908   7.833  13.557  0.00  0.00    +0.000 A 
ATOM     27  H   UNL     1      47.814   8.017  10.487  0.00  0.00    +0.000 HD
ENDBRANCH  15  25
ENDBRANCH   1  15
TORSDOF 3
ENDMDL
MODEL 4
REMARK VINA RESULT:    -5.831      3.834      8.639
REMARK INTER + INTRA:          -7.775
REMARK INTER:                  -7.301
REMARK INTRA:                  -0.474
REMARK UNBOUND:                -0.922
REMARK  Name = 
REMARK  5 active torsions:
REMARK  status: ('A' for Active; 'I' for Inactive)
REMARK    1  A    between atoms: C_1  and  C_2
REMARK    2  A    between atoms: C_4  and  C_5
REMARK    3  A    between atoms: N_8  and  C_9
REMARK    4  A    between atoms: C_9  and  C_10
REMARK    5  A    between atoms: C_15  and  C_16
REMARK                            x       y       z     vdW  Elec       q    Type
REMARK                         _______ _______ _______ _____ _____    ______ ____
ROOT
ATOM      1  C   UNL     1      49.299   3.915  17.350  0.00  0.00    +0.000 A 
ATOM      2  C   UNL     1      49.139   2.551  17.066  0.00  0.00    +0.000 A 
ATOM      3  C   UNL     1      50.221   1.681  17.080  0.00  0.00    +0.000 A 
ATOM      4  C   UNL     1      51.488   2.156  17.399  0.00  0.00    +0.000 A 
ATOM      5  F   UNL     1      52.496   1.282  17.299  0.00  0.00    +0.000 F 
ATOM      6  C   UNL     1      51.703   3.487  17.775  0.00  0.00    +0.000 A 
ATOM      7  C   UNL     1      50.583   4.348  17.732  0.00  0.00    +0.000 A 
ENDROOT
BRANCH   6   8
ATOM      8  C   UNL     1      53.063   4.077  18.144  0.00  0.00    +0.000 C 
ATOM      9  C   UNL     1      53.785   3.486  19.369  0.00  0.00    +0.000 C 
ATOM     10  C   UNL     1      53.173   3.952  20.694  0.00  0.00    +0.000 C 
ATOM     11  N   UNL     1      53.111   5.412  20.797  0.00  0.00    +0.000 NA
ATOM     12  C   UNL     1      52.392   5.999  19.668  0.00  0.00    +0.000 C 
ATOM     13  C   UNL     1      53.020   5.609  18.331  0.00  0.00    +0.000 C 
ATOM     14  H   UNL     1      54.061   5.781  20.824  0.00  0.00    +0.000 HD
ENDBRANCH   6   8
BRANCH   1  15
ATOM     15  C   UNL     1      48.142   4.897  17.161  0.00  0.00    +0.000 C 
ATOM     16  C   UNL     1      47.592   5.608  18.394  0.00  0.00    +0.000 C 
ATOM     17  C   UNL     1      48.467   6.353  17.446  0.00  0.00    +0.000 C 
BRANCH  15  25
ATOM     18  C   UNL     1      48.387   7.224  12.256  0.00  0.00    +0.000 C 
ATOM     19  C   UNL     1      47.534   6.188  12.925  0.00  0.00    +0.000 A 
ATOM     20  C   UNL     1      46.551   5.494  12.225  0.00  0.00    +0.000 A 
ATOM     21  C   UNL     1      45.813   4.527  12.894  0.00  0.00    +0.000 A 
ATOM     22  C   UNL     1      44.697   3.790  12.215  0.00  0.00    +0.000 C 
ATOM     23  N   UNL     1      46.038   4.204  14.189  0.00  0.00    +0.000 NA
ATOM     24  C   UNL     1      46.989   4.875  14.873  0.00  0.00    +0.000 A 
ATOM     25  N   UNL     1      47.124   4.490  16.199  0.00  0.00    +0.000 N 
ATOM     26  C   UNL     1      47.731   5.884  14.279  0.00  0.00    +0.000 A 
ATOM     27  H   UNL     1      46.559   3.662  16.365  0.00  0.00    +0.000 HD
ENDBRANCH  15  25
ENDBRANCH   1  15
TORSDOF 3
ENDMDL
MODEL 5
REMARK VINA RESULT:    -5.726      2.480      6.043
REMARK INTER + INTRA:          -7.652
REMARK INTER:                  -6.857
REMARK INTRA:                  -0.795
REMARK UNBOUND:                -0.922
REMARK  Name = 
REMARK  5 active torsions:
REMARK  status: ('A' for Active; 'I' for Inactive)
REMARK    1  A    between atoms: C_1  and  C_2
REMARK    2  A    between atoms: C_4  and  C_5
REMARK    3  A    between atoms: N_8  and  C_9
REMARK    4  A    between atoms: C_9  and  C_10
REMARK    5  A    between atoms: C_15  and  C_16
REMARK                            x       y       z     vdW  Elec       q    Type
REMARK                         _______ _______ _______ _____ _____    ______ ____
ROOT
ATOM      1  C   UNL     1      48.537   8.279  14.515  0.00  0.00    +0.000 A 
ATOM      2  C   UNL     1      48.316   9.511  15.146  0.00  0.00    +0.000 A 
ATOM      3  C   UNL     1      48.326   9.622  16.530  0.00  0.00    +0.000 A 
ATOM      4  C   UNL     1      48.577   8.502  17.315  0.00  0.00    +0.000 A 
ATOM      5  F   UNL     1      48.475   8.665  18.638  0.00  0.00    +0.000 F 
ATOM      6  C   UNL     1      48.888   7.261  16.747  0.00  0.00    +0.000 A 
ATOM      7  C   UNL     1      48.852   7.180  15.337  0.00  0.00    +0.000 A 
ENDROOT
BRANCH   6   8
ATOM      8  C   UNL     1      49.181   5.991  17.544  0.00  0.00    +0.000 C 
ATOM      9  C   UNL     1      48.907   4.641  16.857  0.00  0.00    +0.000 C 
ATOM     10  C   UNL     1      47.413   4.308  16.787  0.00  0.00    +0.000 C 
ATOM     11  N   UNL     1      46.771   4.345  18.104  0.00  0.00    +0.000 NA
ATOM     12  C   UNL     1      46.977   5.633  18.764  0.00  0.00    +0.000 C 
ATOM     13  C   UNL     1      48.461   5.964  18.911  0.00  0.00    +0.000 C 
ATOM     14  H   UNL     1      47.160   3.601  18.681  0.00  0.00    +0.000 HD
ENDBRANCH   6   8
BRANCH   1  15
ATOM     15  C   UNL     1      48.352   8.126  13.005  0.00  0.00    +0.000 C 
ATOM     16  C   UNL     1      49.176   9.020  12.083  0.00  0.00    +0.000 C 
ATOM     17  C   UNL     1      49.555   7.589  12.249  0.00  0.00    +0.000 C 
BRANCH  15  25
ATOM     18  C   UNL     1      46.447   3.055  13.445  0.00  0.00    +0.000 C 
ATOM     19  C   UNL     1      45.909   4.382  13.001  0.00  0.00    +0.000 A 
ATOM     20  C   UNL     1      44.572   4.542  12.646  0.00  0.00    +0.000 A 
ATOM     21  C   UNL     1      44.128   5.802  12.270  0.00  0.00    +0.000 A 
ATOM     22  C   UNL     1      42.717   6.028  11.815  0.00  0.00    +0.000 C 
ATOM     23  N   UNL     1      44.935   6.890  12.273  0.00  0.00    +0.000 NA
ATOM     24  C   UNL     1      46.232   6.740  12.615  0.00  0.00    +0.000 A 
ATOM     25  N   UNL     1      46.980   7.907  12.560  0.00  0.00    +0.000 N 
ATOM     26  C   UNL     1      46.751   5.502  12.956  0.00  0.00    +0.000 A 
ATOM     27  H   UNL     1      46.359   8.695  12.400  0.00  0.00    +0.000 HD
ENDBRANCH  15  25
ENDBRANCH   1  15
TORSDOF 3
ENDMDL
MODEL 6
REMARK VINA RESULT:    -5.618      3.106      6.025
REMARK INTER + INTRA:          -7.525
REMARK INTER:                  -7.989
REMARK INTRA:                   0.464
REMARK UNBOUND:                -0.922
REMARK  Name = 
REMARK  5 active torsions:
REMARK  status: ('A' for Active; 'I' for Inactive)
REMARK    1  A    between atoms: C_1  and  C_2
REMARK    2  A    between atoms: C_4  and  C_5
REMARK    3  A    between atoms: N_8  and  C_9
REMARK    4  A    between atoms: C_9  and  C_10
REMARK    5  A    between atoms: C_15  and  C_16
REMARK                            x       y       z     vdW  Elec       q    Type
REMARK                         _______ _______ _______ _____ _____    ______ ____
ROOT
ATOM      1  C   UNL     1      46.809   7.594  13.037  0.00  0.00    +0.000 A 
ATOM      2  C   UNL     1      47.919   7.080  13.723  0.00  0.00    +0.000 A 
ATOM      3  C   UNL     1      47.940   5.768  14.176  0.00  0.00    +0.000 A 
ATOM      4  C   UNL     1      46.856   4.933  13.934  0.00  0.00    +0.000 A 
ATOM      5  F   UNL     1      46.906   3.713  14.481  0.00  0.00    +0.000 F 
ATOM      6  C   UNL     1      45.753   5.357  13.182  0.00  0.00    +0.000 A 
ATOM      7  C   UNL     1      45.756   6.703  12.753  0.00  0.00    +0.000 A 
ENDROOT
BRANCH   6   8
ATOM      8  C   UNL     1      44.531   4.494  12.872  0.00  0.00    +0.000 C 
ATOM      9  C   UNL     1      44.602   3.578  11.638  0.00  0.00    +0.000 C 
ATOM     10  C   UNL     1      44.449   4.349  10.322  0.00  0.00    +0.000 C 
ATOM     11  N   UNL     1      43.224   5.152  10.286  0.00  0.00    +0.000 NA
ATOM     12  C   UNL     1      43.149   6.065  11.425  0.00  0.00    +0.000 C 
ATOM     13  C   UNL     1      43.230   5.319  12.756  0.00  0.00    +0.000 C 
ATOM     14  H   UNL     1      42.419   4.527  10.298  0.00  0.00    +0.000 HD
ENDBRANCH   6   8
BRANCH   1  15
ATOM     15  C   UNL     1      46.716   9.082  12.698  0.00  0.00    +0.000 C 
ATOM     16  C   UNL     1      47.814  10.009  13.211  0.00  0.00    +0.000 C 
ATOM     17  C   UNL     1      47.801   9.612  11.775  0.00  0.00    +0.000 C 
BRANCH  15  25
ATOM     18  C   UNL     1      45.241  12.153   8.463  0.00  0.00    +0.000 C 
ATOM     19  C   UNL     1      44.600  11.670   9.730  0.00  0.00    +0.000 A 
ATOM     20  C   UNL     1      43.261  11.928  10.010  0.00  0.00    +0.000 A 
ATOM     21  C   UNL     1      42.718  11.429  11.187  0.00  0.00    +0.000 A 
ATOM     22  C   UNL     1      41.301  11.725  11.578  0.00  0.00    +0.000 C 
ATOM     23  N   UNL     1      43.429  10.670  12.053  0.00  0.00    +0.000 NA
ATOM     24  C   UNL     1      44.728  10.418  11.787  0.00  0.00    +0.000 A 
ATOM     25  N   UNL     1      45.375   9.655  12.748  0.00  0.00    +0.000 N 
ATOM     26  C   UNL     1      45.344  10.923  10.653  0.00  0.00    +0.000 A 
ATOM     27  H   UNL     1      44.692   9.310  13.415  0.00  0.00    +0.000 HD
ENDBRANCH  15  25
ENDBRANCH   1  15
TORSDOF 3
ENDMDL
MODEL 7
REMARK VINA RESULT:    -5.514      2.044      3.554
REMARK INTER + INTRA:          -7.403
REMARK INTER:                  -7.489
REMARK INTRA:                   0.086
REMARK UNBOUND:                -0.922
REMARK  Name = 
REMARK  5 active torsions:
REMARK  status: ('A' for Active; 'I' for Inactive)
REMARK    1  A    between atoms: C_1  and  C_2
REMARK    2  A    between atoms: C_4  and  C_5
REMARK    3  A    between atoms: N_8  and  C_9
REMARK    4  A    between atoms: C_9  and  C_10
REMARK    5  A    between atoms: C_15  and  C_16
REMARK                            x       y       z     vdW  Elec       q    Type
REMARK                         _______ _______ _______ _____ _____    ______ ____
ROOT
ATOM      1  C   UNL     1      47.583   5.283  14.929  0.00  0.00    +0.000 A 
ATOM      2  C   UNL     1      48.144   6.496  14.506  0.00  0.00    +0.000 A 
ATOM      3  C   UNL     1      47.818   7.050  13.275  0.00  0.00    +0.000 A 
ATOM      4  C   UNL     1      46.904   6.409  12.446  0.00  0.00    +0.000 A 
ATOM      5  F   UNL     1      46.711   6.949  11.238  0.00  0.00    +0.000 F 
ATOM      6  C   UNL     1      46.244   5.240  12.844  0.00  0.00    +0.000 A 
ATOM      7  C   UNL     1      46.613   4.695  14.094  0.00  0.00    +0.000 A 
ENDROOT
BRANCH   6   8
ATOM      8  C   UNL     1      45.226   4.486  11.991  0.00  0.00    +0.000 C 
ATOM      9  C   UNL     1      44.552   5.255  10.840  0.00  0.00    +0.000 C 
ATOM     10  C   UNL     1      43.481   6.234  11.335  0.00  0.00    +0.000 C 
ATOM     11  N   UNL     1      42.469   5.578  12.167  0.00  0.00    +0.000 NA
ATOM     12  C   UNL     1      43.076   4.874  13.294  0.00  0.00    +0.000 C 
ATOM     13  C   UNL     1      44.102   3.841  12.831  0.00  0.00    +0.000 C 
ATOM     14  H   UNL     1      41.948   4.917  11.593  0.00  0.00    +0.000 HD
ENDBRANCH   6   8
BRANCH   1  15
ATOM     15  C   UNL     1      48.076   4.591  16.200  0.00  0.00    +0.000 C 
ATOM     16  C   UNL     1      47.037   4.103  17.205  0.00  0.00    +0.000 C 
ATOM     17  C   UNL     1      47.723   3.119  16.322  0.00  0.00    +0.000 C 
BRANCH  15  25
ATOM     18  C   UNL     1      47.292   8.749  19.611  0.00  0.00    +0.000 C 
ATOM     19  C   UNL     1      48.465   7.956  19.117  0.00  0.00    +0.000 A 
ATOM     20  C   UNL     1      49.747   8.166  19.619  0.00  0.00    +0.000 A 
ATOM     21  C   UNL     1      50.787   7.380  19.141  0.00  0.00    +0.000 A 
ATOM     22  C   UNL     1      52.200   7.599  19.592  0.00  0.00    +0.000 C 
ATOM     23  N   UNL     1      50.597   6.391  18.236  0.00  0.00    +0.000 NA
ATOM     24  C   UNL     1      49.356   6.184  17.746  0.00  0.00    +0.000 A 
ATOM     25  N   UNL     1      49.271   5.168  16.805  0.00  0.00    +0.000 N 
ATOM     26  C   UNL     1      48.282   6.963  18.146  0.00  0.00    +0.000 A 
ATOM     27  H   UNL     1      50.157   4.673  16.768  0.00  0.00    +0.000 HD
ENDBRANCH  15  25
ENDBRANCH   1  15
TORSDOF 3
ENDMDL
MODEL 8
REMARK VINA RESULT:    -5.393      1.813      4.397
REMARK INTER + INTRA:          -7.260
REMARK INTER:                  -6.632
REMARK INTRA:                  -0.628
REMARK UNBOUND:                -0.922
REMARK  Name = 
REMARK  5 active torsions:
REMARK  status: ('A' for Active; 'I' for Inactive)
REMARK    1  A    between atoms: C_1  and  C_2
REMARK    2  A    between atoms: C_4  and  C_5
REMARK    3  A    between atoms: N_8  and  C_9
REMARK    4  A    between atoms: C_9  and  C_10
REMARK    5  A    between atoms: C_15  and  C_16
REMARK                            x       y       z     vdW  Elec       q    Type
REMARK                         _______ _______ _______ _____ _____    ______ ____
ROOT
ATOM      1  C   UNL     1      47.072   8.238  12.971  0.00  0.00    +0.000 A 
ATOM      2  C   UNL     1      46.365   9.434  12.783  0.00  0.00    +0.000 A 
ATOM      3  C   UNL     1      45.183   9.464  12.055  0.00  0.00    +0.000 A 
ATOM      4  C   UNL     1      44.672   8.290  11.512  0.00  0.00    +0.000 A 
ATOM      5  F   UNL     1      43.584   8.410  10.743  0.00  0.00    +0.000 F 
ATOM      6  C   UNL     1      45.284   7.050  11.734  0.00  0.00    +0.000 A 
ATOM      7  C   UNL     1      46.493   7.059  12.464  0.00  0.00    +0.000 A 
ENDROOT
BRANCH   6   8
ATOM      8  C   UNL     1      44.777   5.721  11.176  0.00  0.00    +0.000 C 
ATOM      9  C   UNL     1      43.268   5.434  11.280  0.00  0.00    +0.000 C 
ATOM     10  C   UNL     1      42.838   5.055  12.701  0.00  0.00    +0.000 C 
ATOM     11  N   UNL     1      43.606   3.926  13.233  0.00  0.00    +0.000 NA
ATOM     12  C   UNL     1      45.043   4.187  13.188  0.00  0.00    +0.000 C 
ATOM     13  C   UNL     1      45.517   4.502  11.770  0.00  0.00    +0.000 C 
ATOM     14  H   UNL     1      43.393   3.095  12.684  0.00  0.00    +0.000 HD
ENDBRANCH   6   8
BRANCH   1  15
ATOM     15  C   UNL     1      48.457   8.239  13.620  0.00  0.00    +0.000 C 
ATOM     16  C   UNL     1      48.563   7.862  15.095  0.00  0.00    +0.000 C 
ATOM     17  C   UNL     1      48.977   6.880  14.054  0.00  0.00    +0.000 C 
BRANCH  15  25
ATOM     18  C   UNL     1      52.182   7.052   9.845  0.00  0.00    +0.000 C 
ATOM     19  C   UNL     1      51.758   8.272  10.606  0.00  0.00    +0.000 A 
ATOM     20  C   UNL     1      52.315   9.521  10.344  0.00  0.00    +0.000 A 
ATOM     21  C   UNL     1      51.860  10.618  11.063  0.00  0.00    +0.000 A 
ATOM     22  C   UNL     1      52.462  11.978  10.874  0.00  0.00    +0.000 C 
ATOM     23  N   UNL     1      50.869  10.528  11.981  0.00  0.00    +0.000 NA
ATOM     24  C   UNL     1      50.327   9.319  12.240  0.00  0.00    +0.000 A 
ATOM     25  N   UNL     1      49.339   9.328  13.215  0.00  0.00    +0.000 N 
ATOM     26  C   UNL     1      50.766   8.176  11.591  0.00  0.00    +0.000 A 
ATOM     27  H   UNL     1      49.115  10.289  13.453  0.00  0.00    +0.000 HD
ENDBRANCH  15  25
ENDBRANCH   1  15
TORSDOF 3
ENDMDL
MODEL 9
REMARK VINA RESULT:    -5.171      2.827      4.355
REMARK INTER + INTRA:          -6.999
REMARK INTER:                  -7.704
REMARK INTRA:                   0.705
REMARK UNBOUND:                -0.922
REMARK  Name = 
REMARK  5 active torsions:
REMARK  status: ('A' for Active; 'I' for Inactive)
REMARK    1  A    between atoms: C_1  and  C_2
REMARK    2  A    between atoms: C_4  and  C_5
REMARK    3  A    between atoms: N_8  and  C_9
REMARK    4  A    between atoms: C_9  and  C_10
REMARK    5  A    between atoms: C_15  and  C_16
REMARK                            x       y       z     vdW  Elec       q    Type
REMARK                         _______ _______ _______ _____ _____    ______ ____
ROOT
ATOM      1  C   UNL     1      47.604   7.000  12.363  0.00  0.00    +0.000 A 
ATOM      2  C   UNL     1      47.768   6.214  13.513  0.00  0.00    +0.000 A 
ATOM      3  C   UNL     1      46.899   5.170  13.801  0.00  0.00    +0.000 A 
ATOM      4  C   UNL     1      45.855   4.877  12.932  0.00  0.00    +0.000 A 
ATOM      5  F   UNL     1      45.003   3.922  13.322  0.00  0.00    +0.000 F 
ATOM      6  C   UNL     1      45.685   5.566  11.725  0.00  0.00    +0.000 A 
ATOM      7  C   UNL     1      46.576   6.633  11.472  0.00  0.00    +0.000 A 
ENDROOT
BRANCH   6   8
ATOM      8  C   UNL     1      44.567   5.295  10.720  0.00  0.00    +0.000 C 
ATOM      9  C   UNL     1      43.236   4.748  11.267  0.00  0.00    +0.000 C 
ATOM     10  C   UNL     1      43.320   3.264  11.643  0.00  0.00    +0.000 C 
ATOM     11  N   UNL     1      43.792   2.433  10.532  0.00  0.00    +0.000 NA
ATOM     12  C   UNL     1      45.077   2.903  10.019  0.00  0.00    +0.000 C 
ATOM     13  C   UNL     1      45.009   4.362   9.571  0.00  0.00    +0.000 C 
ATOM     14  H   UNL     1      43.098   2.457   9.786  0.00  0.00    +0.000 HD
ENDBRANCH   6   8
BRANCH   1  15
ATOM     15  C   UNL     1      48.452   8.253  12.141  0.00  0.00    +0.000 C 
ATOM     16  C   UNL     1      47.735   9.592  11.995  0.00  0.00    +0.000 C 
ATOM     17  C   UNL     1      48.430   9.266  13.272  0.00  0.00    +0.000 C 
BRANCH  15  25
ATOM     18  C   UNL     1      53.361   8.823  14.401  0.00  0.00    +0.000 C 
ATOM     19  C   UNL     1      52.824   8.484  13.043  0.00  0.00    +0.000 A 
ATOM     20  C   UNL     1      53.669   8.126  11.996  0.00  0.00    +0.000 A 
ATOM     21  C   UNL     1      53.108   7.796  10.770  0.00  0.00    +0.000 A 
ATOM     22  C   UNL     1      53.966   7.464   9.585  0.00  0.00    +0.000 C 
ATOM     23  N   UNL     1      51.771   7.770  10.562  0.00  0.00    +0.000 NA
ATOM     24  C   UNL     1      50.947   8.118  11.574  0.00  0.00    +0.000 A 
ATOM     25  N   UNL     1      49.597   8.086  11.253  0.00  0.00    +0.000 N 
ATOM     26  C   UNL     1      51.442   8.502  12.810  0.00  0.00    +0.000 A 
ATOM     27  H   UNL     1      49.482   7.665  10.336  0.00  0.00    +0.000 HD
ENDBRANCH  15  25
ENDBRANCH   1  15
TORSDOF 3
ENDMDL
