MODEL 1
REMARK VINA RESULT:    -7.511      0.000      0.000
REMARK INTER + INTRA:         -10.599
REMARK INTER:                  -9.707
REMARK INTRA:                  -0.892
REMARK UNBOUND:                -0.892
REMARK  Name = 
REMARK  5 active torsions:
REMARK  status: ('A' for Active; 'I' for Inactive)
REMARK    1  A    between atoms: C_2  and  C_20
REMARK    2  A    between atoms: N_3  and  C_4
REMARK    3  A    between atoms: C_4  and  C_5
REMARK    4  A    between atoms: C_8  and  C_9
REMARK    5  A    between atoms: C_9  and  N_10
REMARK                            x       y       z     vdW  Elec       q    Type
REMARK                         _______ _______ _______ _____ _____    ______ ____
ROOT
ATOM      1  C   UNL     1      46.765   7.702  13.237  0.00  0.00    +0.000 C 
ENDROOT
BRANCH   1   2
ATOM      2  C   UNL     1      46.085   6.780  12.257  0.00  0.00    +0.000 A 
ATOM      3  C   UNL     1      44.902   6.120  12.613  0.00  0.00    +0.000 A 
ATOM      4  C   UNL     1      44.239   5.300  11.696  0.00  0.00    +0.000 A 
ATOM      5  C   UNL     1      44.760   5.102  10.410  0.00  0.00    +0.000 A 
ATOM      6  C   UNL     1      45.955   5.747  10.059  0.00  0.00    +0.000 A 
ATOM      7  C   UNL     1      46.617   6.568  10.978  0.00  0.00    +0.000 A 
BRANCH   5   8
ATOM      8  C   UNL     1      44.056   4.194   9.425  0.00  0.00    +0.000 C 
BRANCH   8   9
ATOM      9  N   UNL     1      44.506   2.815   9.588  0.00  0.00    +0.000 N 
ATOM     10  C   UNL     1      45.372   2.386   8.565  0.00  0.00    +0.000 A 
ATOM     11  C   UNL     1      45.879   1.088   8.620  0.00  0.00    +0.000 A 
ATOM     12  C   UNL     1      46.745   0.639   7.622  0.00  0.00    +0.000 A 
ATOM     13  C   UNL     1      47.088   1.501   6.590  0.00  0.00    +0.000 A 
ATOM     14  C   UNL     1      46.552   2.773   6.621  0.00  0.00    +0.000 A 
ATOM     15 CL   UNL     1      46.908   3.910   5.387  0.00  0.00    +0.000 Cl
ATOM     16  N   UNL     1      45.718   3.232   7.575  0.00  0.00    +0.000 NA
ATOM     17  H   UNL     1      43.726   2.171   9.665  0.00  0.00    +0.000 HD
ENDBRANCH   8   9
ENDBRANCH   5   8
ENDBRANCH   1   2
BRANCH   1  20
ATOM     18  O   UNL     1      49.468   7.514  13.976  0.00  0.00    +0.000 OA
ATOM     19  C   UNL     1      48.623   6.975  14.685  0.00  0.00    +0.000 C 
ATOM     20  N   UNL     1      47.287   6.992  14.377  0.00  0.00    +0.000 N 
ATOM     21  H   UNL     1      46.611   6.664  15.058  0.00  0.00    +0.000 HD
BRANCH  19  22
ATOM     22  C   UNL     1      49.011   6.238  15.890  0.00  0.00    +0.000 A 
ATOM     23  C   UNL     1      50.072   6.680  16.665  0.00  0.00    +0.000 A 
ATOM     24  S   UNL     1      50.365   5.724  18.043  0.00  0.00    +0.000 S 
ATOM     25  C   UNL     1      49.064   4.691  17.671  0.00  0.00    +0.000 A 
ATOM     26  N   UNL     1      48.727   3.664  18.498  0.00  0.00    +0.000 NA
ATOM     27  C   UNL     1      47.690   2.993  18.118  0.00  0.00    +0.000 A 
ATOM     28  N   UNL     1      46.978   3.241  16.975  0.00  0.00    +0.000 N 
ATOM     29  C   UNL     1      47.343   4.202  16.061  0.00  0.00    +0.000 A 
ATOM     30  O   UNL     1      46.797   4.279  14.968  0.00  0.00    +0.000 OA
ATOM     31  C   UNL     1      48.448   5.043  16.483  0.00  0.00    +0.000 A 
ATOM     32  H   UNL     1      46.206   2.644  16.708  0.00  0.00    +0.000 HD
ENDBRANCH  19  22
ENDBRANCH   1  20
TORSDOF 5
ENDMDL
MODEL 2
REMARK VINA RESULT:    -7.303      2.698      4.452
REMARK INTER + INTRA:         -10.329
REMARK INTER:                  -9.276
REMARK INTRA:                  -1.053
REMARK UNBOUND:                -0.892
REMARK  Name = 
REMARK  5 active torsions:
REMARK  status: ('A' for Active; 'I' for Inactive)
REMARK    1  A    between atoms: C_2  and  C_20
REMARK    2  A    between atoms: N_3  and  C_4
REMARK    3  A    between atoms: C_4  and  C_5
REMARK    4  A    between atoms: C_8  and  C_9
REMARK    5  A    between atoms: C_9  and  N_10
REMARK                            x       y       z     vdW  Elec       q    Type
REMARK                         _______ _______ _______ _____ _____    ______ ____
ROOT
ATOM      1  C   UNL     1      46.998   5.166  14.380  0.00  0.00    +0.000 C 
ENDROOT
BRANCH   1   2
ATOM      2  C   UNL     1      46.293   4.775  13.106  0.00  0.00    +0.000 A 
ATOM      3  C   UNL     1      46.089   5.721  12.093  0.00  0.00    +0.000 A 
ATOM      4  C   UNL     1      45.479   5.357  10.891  0.00  0.00    +0.000 A 
ATOM      5  C   UNL     1      45.035   4.044  10.684  0.00  0.00    +0.000 A 
ATOM      6  C   UNL     1      45.222   3.101  11.705  0.00  0.00    +0.000 A 
ATOM      7  C   UNL     1      45.833   3.466  12.909  0.00  0.00    +0.000 A 
BRANCH   5   8
ATOM      8  C   UNL     1      44.351   3.655   9.392  0.00  0.00    +0.000 C 
BRANCH   8   9
ATOM      9  N   UNL     1      45.046   4.241   8.250  0.00  0.00    +0.000 N 
ATOM     10  C   UNL     1      45.854   3.321   7.556  0.00  0.00    +0.000 A 
ATOM     11  C   UNL     1      46.558   3.764   6.437  0.00  0.00    +0.000 A 
ATOM     12  C   UNL     1      47.362   2.870   5.726  0.00  0.00    +0.000 A 
ATOM     13  C   UNL     1      47.442   1.552   6.150  0.00  0.00    +0.000 A 
ATOM     14  C   UNL     1      46.701   1.196   7.259  0.00  0.00    +0.000 A 
ATOM     15 CL   UNL     1      46.738  -0.407   7.868  0.00  0.00    +0.000 Cl
ATOM     16  N   UNL     1      45.915   2.037   7.959  0.00  0.00    +0.000 NA
ATOM     17  H   UNL     1      45.603   5.046   8.520  0.00  0.00    +0.000 HD
ENDBRANCH   8   9
ENDBRANCH   5   8
ENDBRANCH   1   2
BRANCH   1  20
ATOM     18  O   UNL     1      49.355   6.201  15.505  0.00  0.00    +0.000 OA
ATOM     19  C   UNL     1      48.594   6.966  14.918  0.00  0.00    +0.000 C 
ATOM     20  N   UNL     1      47.409   6.547  14.370  0.00  0.00    +0.000 N 
ATOM     21  H   UNL     1      46.884   7.175  13.772  0.00  0.00    +0.000 HD
BRANCH  19  22
ATOM     22  C   UNL     1      48.900   8.395  14.812  0.00  0.00    +0.000 A 
ATOM     23  C   UNL     1      49.028   9.166  15.957  0.00  0.00    +0.000 A 
ATOM     24  S   UNL     1      49.415  10.796  15.650  0.00  0.00    +0.000 S 
ATOM     25  C   UNL     1      49.453  10.529  13.970  0.00  0.00    +0.000 A 
ATOM     26  N   UNL     1      49.783  11.529  13.109  0.00  0.00    +0.000 NA
ATOM     27  C   UNL     1      49.820  11.174  11.867  0.00  0.00    +0.000 A 
ATOM     28  N   UNL     1      49.532   9.917  11.408  0.00  0.00    +0.000 N 
ATOM     29  C   UNL     1      49.096   8.903  12.231  0.00  0.00    +0.000 A 
ATOM     30  O   UNL     1      48.675   7.849  11.771  0.00  0.00    +0.000 OA
ATOM     31  C   UNL     1      49.123   9.224  13.645  0.00  0.00    +0.000 A 
ATOM     32  H   UNL     1      49.529   9.717  10.416  0.00  0.00    +0.000 HD
ENDBRANCH  19  22
ENDBRANCH   1  20
TORSDOF 5
ENDMDL
MODEL 3
REMARK VINA RESULT:    -7.153      1.716      2.124
REMARK INTER + INTRA:         -10.136
REMARK INTER:                  -9.253
REMARK INTRA:                  -0.883
REMARK UNBOUND:                -0.892
REMARK  Name = 
REMARK  5 active torsions:
REMARK  status: ('A' for Active; 'I' for Inactive)
REMARK    1  A    between atoms: C_2  and  C_20
REMARK    2  A    between atoms: N_3  and  C_4
REMARK    3  A    between atoms: C_4  and  C_5
REMARK    4  A    between atoms: C_8  and  C_9
REMARK    5  A    between atoms: C_9  and  N_10
REMARK                            x       y       z     vdW  Elec       q    Type
REMARK                         _______ _______ _______ _____ _____    ______ ____
ROOT
ATOM      1  C   UNL     1      46.519   7.133  13.663  0.00  0.00    +0.000 C 
ENDROOT
BRANCH   1   2
ATOM      2  C   UNL     1      46.126   6.203  12.544  0.00  0.00    +0.000 A 
ATOM      3  C   UNL     1      45.588   4.941  12.831  0.00  0.00    +0.000 A 
ATOM      4  C   UNL     1      45.177   4.091  11.801  0.00  0.00    +0.000 A 
ATOM      5  C   UNL     1      45.319   4.473  10.460  0.00  0.00    +0.000 A 
ATOM      6  C   UNL     1      45.875   5.728  10.172  0.00  0.00    +0.000 A 
ATOM      7  C   UNL     1      46.286   6.579  11.203  0.00  0.00    +0.000 A 
BRANCH   5   8
ATOM      8  C   UNL     1      44.897   3.543   9.345  0.00  0.00    +0.000 C 
BRANCH   8   9
ATOM      9  N   UNL     1      45.410   4.016   8.063  0.00  0.00    +0.000 N 
ATOM     10  C   UNL     1      46.091   3.022   7.334  0.00  0.00    +0.000 A 
ATOM     11  C   UNL     1      46.616   3.354   6.085  0.00  0.00    +0.000 A 
ATOM     12  C   UNL     1      47.291   2.386   5.338  0.00  0.00    +0.000 A 
ATOM     13  C   UNL     1      47.422   1.106   5.856  0.00  0.00    +0.000 A 
ATOM     14  C   UNL     1      46.860   0.861   7.093  0.00  0.00    +0.000 A 
ATOM     15 CL   UNL     1      46.976  -0.687   7.824  0.00  0.00    +0.000 Cl
ATOM     16  N   UNL     1      46.201   1.776   7.832  0.00  0.00    +0.000 NA
ATOM     17  H   UNL     1      46.011   4.827   8.174  0.00  0.00    +0.000 HD
ENDBRANCH   8   9
ENDBRANCH   5   8
ENDBRANCH   1   2
BRANCH   1  20
ATOM     18  O   UNL     1      48.262   8.776  15.129  0.00  0.00    +0.000 OA
ATOM     19  C   UNL     1      48.517   7.578  15.037  0.00  0.00    +0.000 C 
ATOM     20  N   UNL     1      47.736   6.715  14.313  0.00  0.00    +0.000 N 
ATOM     21  H   UNL     1      47.896   5.716  14.380  0.00  0.00    +0.000 HD
BRANCH  19  22
ATOM     22  C   UNL     1      49.712   7.012  15.668  0.00  0.00    +0.000 A 
ATOM     23  C   UNL     1      50.955   7.583  15.441  0.00  0.00    +0.000 A 
ATOM     24  S   UNL     1      52.227   6.819  16.278  0.00  0.00    +0.000 S 
ATOM     25  C   UNL     1      51.159   5.708  17.000  0.00  0.00    +0.000 A 
ATOM     26  N   UNL     1      51.607   4.784  17.893  0.00  0.00    +0.000 NA
ATOM     27  C   UNL     1      50.681   4.039  18.399  0.00  0.00    +0.000 A 
ATOM     28  N   UNL     1      49.354   4.116  18.072  0.00  0.00    +0.000 N 
ATOM     29  C   UNL     1      48.871   4.964  17.102  0.00  0.00    +0.000 A 
ATOM     30  O   UNL     1      47.715   4.884  16.706  0.00  0.00    +0.000 OA
ATOM     31  C   UNL     1      49.856   5.886  16.567  0.00  0.00    +0.000 A 
ATOM     32  H   UNL     1      48.686   3.467  18.467  0.00  0.00    +0.000 HD
ENDBRANCH  19  22
ENDBRANCH   1  20
TORSDOF 5
ENDMDL
MODEL 4
REMARK VINA RESULT:    -7.147      4.272      5.912
REMARK INTER + INTRA:         -10.128
REMARK INTER:                  -9.446
REMARK INTRA:                  -0.682
REMARK UNBOUND:                -0.892
REMARK  Name = 
REMARK  5 active torsions:
REMARK  status: ('A' for Active; 'I' for Inactive)
REMARK    1  A    between atoms: C_2  and  C_20
REMARK    2  A    between atoms: N_3  and  C_4
REMARK    3  A    between atoms: C_4  and  C_5
REMARK    4  A    between atoms: C_8  and  C_9
REMARK    5  A    between atoms: C_9  and  N_10
REMARK                            x       y       z     vdW  Elec       q    Type
REMARK                         _______ _______ _______ _____ _____    ______ ____
ROOT
ATOM      1  C   UNL     1      46.380   4.034  14.246  0.00  0.00    +0.000 C 
ENDROOT
BRANCH   1   2
ATOM      2  C   UNL     1      45.928   5.205  13.412  0.00  0.00    +0.000 A 
ATOM      3  C   UNL     1      44.624   5.246  12.901  0.00  0.00    +0.000 A 
ATOM      4  C   UNL     1      44.182   6.349  12.166  0.00  0.00    +0.000 A 
ATOM      5  C   UNL     1      45.042   7.423  11.903  0.00  0.00    +0.000 A 
ATOM      6  C   UNL     1      46.353   7.374  12.398  0.00  0.00    +0.000 A 
ATOM      7  C   UNL     1      46.796   6.270  13.134  0.00  0.00    +0.000 A 
BRANCH   5   8
ATOM      8  C   UNL     1      44.571   8.606  11.086  0.00  0.00    +0.000 C 
BRANCH   8   9
ATOM      9  N   UNL     1      43.120   8.742  11.172  0.00  0.00    +0.000 N 
ATOM     10  C   UNL     1      42.632   9.910  10.557  0.00  0.00    +0.000 A 
ATOM     11  C   UNL     1      41.257  10.142  10.564  0.00  0.00    +0.000 A 
ATOM     12  C   UNL     1      40.745  11.290   9.956  0.00  0.00    +0.000 A 
ATOM     13  C   UNL     1      41.621  12.180   9.350  0.00  0.00    +0.000 A 
ATOM     14  C   UNL     1      42.965  11.864   9.378  0.00  0.00    +0.000 A 
ATOM     15 CL   UNL     1      44.129  12.904   8.666  0.00  0.00    +0.000 Cl
ATOM     16  N   UNL     1      43.483  10.762   9.955  0.00  0.00    +0.000 NA
ATOM     17  H   UNL     1      42.794   8.702  12.132  0.00  0.00    +0.000 HD
ENDBRANCH   8   9
ENDBRANCH   5   8
ENDBRANCH   1   2
BRANCH   1  20
ATOM     18  O   UNL     1      46.583   3.435  16.983  0.00  0.00    +0.000 OA
ATOM     19  C   UNL     1      47.515   4.019  16.435  0.00  0.00    +0.000 C 
ATOM     20  N   UNL     1      47.480   4.377  15.112  0.00  0.00    +0.000 N 
ATOM     21  H   UNL     1      48.321   4.724  14.664  0.00  0.00    +0.000 HD
BRANCH  19  22
ATOM     22  C   UNL     1      48.708   4.408  17.191  0.00  0.00    +0.000 A 
ATOM     23  C   UNL     1      48.767   5.649  17.806  0.00  0.00    +0.000 A 
ATOM     24  S   UNL     1      50.211   5.923  18.667  0.00  0.00    +0.000 S 
ATOM     25  C   UNL     1      50.805   4.377  18.272  0.00  0.00    +0.000 A 
ATOM     26  N   UNL     1      52.002   3.944  18.750  0.00  0.00    +0.000 NA
ATOM     27  C   UNL     1      52.306   2.735  18.412  0.00  0.00    +0.000 A 
ATOM     28  N   UNL     1      51.532   1.931  17.618  0.00  0.00    +0.000 N 
ATOM     29  C   UNL     1      50.365   2.363  17.031  0.00  0.00    +0.000 A 
ATOM     30  O   UNL     1      49.792   1.687  16.186  0.00  0.00    +0.000 OA
ATOM     31  C   UNL     1      49.934   3.683  17.451  0.00  0.00    +0.000 A 
ATOM     32  H   UNL     1      51.853   1.011  17.347  0.00  0.00    +0.000 HD
ENDBRANCH  19  22
ENDBRANCH   1  20
TORSDOF 5
ENDMDL
MODEL 5
REMARK VINA RESULT:    -7.102      4.879      7.434
REMARK INTER + INTRA:         -10.070
REMARK INTER:                  -9.202
REMARK INTRA:                  -0.868
REMARK UNBOUND:                -0.892
REMARK  Name = 
REMARK  5 active torsions:
REMARK  status: ('A' for Active; 'I' for Inactive)
REMARK    1  A    between atoms: C_2  and  C_20
REMARK    2  A    between atoms: N_3  and  C_4
REMARK    3  A    between atoms: C_4  and  C_5
REMARK    4  A    between atoms: C_8  and  C_9
REMARK    5  A    between atoms: C_9  and  N_10
REMARK                            x       y       z     vdW  Elec       q    Type
REMARK                         _______ _______ _______ _____ _____    ______ ____
ROOT
ATOM      1  C   UNL     1      46.388   8.369  12.661  0.00  0.00    +0.000 C 
ENDROOT
BRANCH   1   2
ATOM      2  C   UNL     1      47.828   8.517  12.244  0.00  0.00    +0.000 A 
ATOM      3  C   UNL     1      48.389   9.791  12.083  0.00  0.00    +0.000 A 
ATOM      4  C   UNL     1      49.736   9.938  11.742  0.00  0.00    +0.000 A 
ATOM      5  C   UNL     1      50.546   8.814  11.529  0.00  0.00    +0.000 A 
ATOM      6  C   UNL     1      49.980   7.539  11.672  0.00  0.00    +0.000 A 
ATOM      7  C   UNL     1      48.632   7.392  12.013  0.00  0.00    +0.000 A 
BRANCH   5   8
ATOM      8  C   UNL     1      51.998   8.973  11.136  0.00  0.00    +0.000 C 
BRANCH   8   9
ATOM      9  N   UNL     1      52.690   7.690  11.206  0.00  0.00    +0.000 N 
ATOM     10  C   UNL     1      53.016   7.162   9.942  0.00  0.00    +0.000 A 
ATOM     11  C   UNL     1      53.692   5.944   9.883  0.00  0.00    +0.000 A 
ATOM     12  C   UNL     1      54.034   5.401   8.643  0.00  0.00    +0.000 A 
ATOM     13  C   UNL     1      53.694   6.091   7.488  0.00  0.00    +0.000 A 
ATOM     14  C   UNL     1      53.039   7.297   7.640  0.00  0.00    +0.000 A 
ATOM     15 CL   UNL     1      52.567   8.223   6.274  0.00  0.00    +0.000 Cl
ATOM     16  N   UNL     1      52.701   7.844   8.824  0.00  0.00    +0.000 NA
ATOM     17  H   UNL     1      52.159   7.004  11.733  0.00  0.00    +0.000 HD
ENDBRANCH   8   9
ENDBRANCH   5   8
ENDBRANCH   1   2
BRANCH   1  20
ATOM     18  O   UNL     1      44.195   7.664  11.053  0.00  0.00    +0.000 OA
ATOM     19  C   UNL     1      44.831   6.773  11.609  0.00  0.00    +0.000 C 
ATOM     20  N   UNL     1      45.892   7.034  12.436  0.00  0.00    +0.000 N 
ATOM     21  H   UNL     1      46.477   6.272  12.758  0.00  0.00    +0.000 HD
BRANCH  19  22
ATOM     22  C   UNL     1      44.451   5.367  11.450  0.00  0.00    +0.000 A 
ATOM     23  C   UNL     1      43.714   4.729  12.436  0.00  0.00    +0.000 A 
ATOM     24  S   UNL     1      43.335   3.109  12.074  0.00  0.00    +0.000 S 
ATOM     25  C   UNL     1      44.121   3.203  10.567  0.00  0.00    +0.000 A 
ATOM     26  N   UNL     1      44.123   2.147   9.710  0.00  0.00    +0.000 NA
ATOM     27  C   UNL     1      44.714   2.374   8.584  0.00  0.00    +0.000 A 
ATOM     28  N   UNL     1      45.324   3.553   8.249  0.00  0.00    +0.000 N 
ATOM     29  C   UNL     1      45.434   4.611   9.122  0.00  0.00    +0.000 A 
ATOM     30  O   UNL     1      46.138   5.579   8.861  0.00  0.00    +0.000 OA
ATOM     31  C   UNL     1      44.709   4.440  10.367  0.00  0.00    +0.000 A 
ATOM     32  H   UNL     1      45.815   3.649   7.370  0.00  0.00    +0.000 HD
ENDBRANCH  19  22
ENDBRANCH   1  20
TORSDOF 5
ENDMDL
MODEL 6
REMARK VINA RESULT:    -7.067      2.880      4.065
REMARK INTER + INTRA:         -10.024
REMARK INTER:                  -9.241
REMARK INTRA:                  -0.783
REMARK UNBOUND:                -0.892
REMARK  Name = 
REMARK  5 active torsions:
REMARK  status: ('A' for Active; 'I' for Inactive)
REMARK    1  A    between atoms: C_2  and  C_20
REMARK    2  A    between atoms: N_3  and  C_4
REMARK    3  A    between atoms: C_4  and  C_5
REMARK    4  A    between atoms: C_8  and  C_9
REMARK    5  A    between atoms: C_9  and  N_10
REMARK                            x       y       z     vdW  Elec       q    Type
REMARK                         _______ _______ _______ _____ _____    ______ ____
ROOT
ATOM      1  C   UNL     1      47.019   5.134  14.501  0.00  0.00    +0.000 C 
ENDROOT
BRANCH   1   2
ATOM      2  C   UNL     1      46.352   4.763  13.202  0.00  0.00    +0.000 A 
ATOM      3  C   UNL     1      45.888   3.457  12.995  0.00  0.00    +0.000 A 
ATOM      4  C   UNL     1      45.227   3.115  11.812  0.00  0.00    +0.000 A 
ATOM      5  C   UNL     1      45.039   4.065  10.799  0.00  0.00    +0.000 A 
ATOM      6  C   UNL     1      45.520   5.367  10.998  0.00  0.00    +0.000 A 
ATOM      7  C   UNL     1      46.182   5.709  12.182  0.00  0.00    +0.000 A 
BRANCH   5   8
ATOM      8  C   UNL     1      44.345   3.689   9.508  0.00  0.00    +0.000 C 
BRANCH   8   9
ATOM      9  N   UNL     1      45.032   4.285   8.367  0.00  0.00    +0.000 N 
ATOM     10  C   UNL     1      45.826   3.367   7.653  0.00  0.00    +0.000 A 
ATOM     11  C   UNL     1      46.522   3.819   6.532  0.00  0.00    +0.000 A 
ATOM     12  C   UNL     1      47.312   2.929   5.801  0.00  0.00    +0.000 A 
ATOM     13  C   UNL     1      47.386   1.605   6.207  0.00  0.00    +0.000 A 
ATOM     14  C   UNL     1      46.654   1.241   7.319  0.00  0.00    +0.000 A 
ATOM     15 CL   UNL     1      46.685  -0.371   7.907  0.00  0.00    +0.000 Cl
ATOM     16  N   UNL     1      45.881   2.078   8.039  0.00  0.00    +0.000 NA
ATOM     17  H   UNL     1      45.598   5.081   8.641  0.00  0.00    +0.000 HD
ENDBRANCH   8   9
ENDBRANCH   5   8
ENDBRANCH   1   2
BRANCH   1  20
ATOM     18  O   UNL     1      49.223   5.999  16.014  0.00  0.00    +0.000 OA
ATOM     19  C   UNL     1      48.726   6.771  15.197  0.00  0.00    +0.000 C 
ATOM     20  N   UNL     1      47.630   6.439  14.444  0.00  0.00    +0.000 N 
ATOM     21  H   UNL     1      47.342   7.043  13.683  0.00  0.00    +0.000 HD
BRANCH  19  22
ATOM     22  C   UNL     1      49.263   8.123  15.018  0.00  0.00    +0.000 A 
ATOM     23  C   UNL     1      50.134   8.392  13.974  0.00  0.00    +0.000 A 
ATOM     24  S   UNL     1      50.633  10.019  13.895  0.00  0.00    +0.000 S 
ATOM     25  C   UNL     1      49.680  10.434  15.243  0.00  0.00    +0.000 A 
ATOM     26  N   UNL     1      49.611  11.720  15.683  0.00  0.00    +0.000 NA
ATOM     27  C   UNL     1      48.813  11.899  16.683  0.00  0.00    +0.000 A 
ATOM     28  N   UNL     1      48.099  10.905  17.297  0.00  0.00    +0.000 N 
ATOM     29  C   UNL     1      48.216   9.579  16.951  0.00  0.00    +0.000 A 
ATOM     30  O   UNL     1      47.706   8.698  17.633  0.00  0.00    +0.000 OA
ATOM     31  C   UNL     1      49.031   9.334  15.776  0.00  0.00    +0.000 A 
ATOM     32  H   UNL     1      47.531  11.105  18.110  0.00  0.00    +0.000 HD
ENDBRANCH  19  22
ENDBRANCH   1  20
TORSDOF 5
ENDMDL
MODEL 7
REMARK VINA RESULT:    -7.046      5.375      9.373
REMARK INTER + INTRA:          -9.997
REMARK INTER:                  -9.230
REMARK INTRA:                  -0.766
REMARK UNBOUND:                -0.892
REMARK  Name = 
REMARK  5 active torsions:
REMARK  status: ('A' for Active; 'I' for Inactive)
REMARK    1  A    between atoms: C_2  and  C_20
REMARK    2  A    between atoms: N_3  and  C_4
REMARK    3  A    between atoms: C_4  and  C_5
REMARK    4  A    between atoms: C_8  and  C_9
REMARK    5  A    between atoms: C_9  and  N_10
REMARK                            x       y       z     vdW  Elec       q    Type
REMARK                         _______ _______ _______ _____ _____    ______ ____
ROOT
ATOM      1  C   UNL     1      47.419   3.389  17.131  0.00  0.00    +0.000 C 
ENDROOT
BRANCH   1   2
ATOM      2  C   UNL     1      48.879   3.154  17.420  0.00  0.00    +0.000 A 
ATOM      3  C   UNL     1      49.616   4.099  18.145  0.00  0.00    +0.000 A 
ATOM      4  C   UNL     1      50.958   3.869  18.458  0.00  0.00    +0.000 A 
ATOM      5  C   UNL     1      51.600   2.699  18.030  0.00  0.00    +0.000 A 
ATOM      6  C   UNL     1      50.868   1.761  17.288  0.00  0.00    +0.000 A 
ATOM      7  C   UNL     1      49.524   1.992  16.975  0.00  0.00    +0.000 A 
BRANCH   5   8
ATOM      8  C   UNL     1      53.060   2.460  18.347  0.00  0.00    +0.000 C 
BRANCH   8   9
ATOM      9  N   UNL     1      53.757   1.932  17.179  0.00  0.00    +0.000 N 
ATOM     10  C   UNL     1      54.152   0.588  17.326  0.00  0.00    +0.000 A 
ATOM     11  C   UNL     1      54.817  -0.031  16.268  0.00  0.00    +0.000 A 
ATOM     12  C   UNL     1      55.213  -1.364  16.384  0.00  0.00    +0.000 A 
ATOM     13  C   UNL     1      54.933  -2.051  17.556  0.00  0.00    +0.000 A 
ATOM     14  C   UNL     1      54.259  -1.365  18.547  0.00  0.00    +0.000 A 
ATOM     15 CL   UNL     1      53.873  -2.123  20.037  0.00  0.00    +0.000 Cl
ATOM     16  N   UNL     1      53.862  -0.081  18.458  0.00  0.00    +0.000 NA
ATOM     17  H   UNL     1      54.564   2.497  16.934  0.00  0.00    +0.000 HD
ENDBRANCH   8   9
ENDBRANCH   5   8
ENDBRANCH   1   2
BRANCH   1  20
ATOM     18  O   UNL     1      47.392   3.122  14.335  0.00  0.00    +0.000 OA
ATOM     19  C   UNL     1      47.189   4.230  14.825  0.00  0.00    +0.000 C 
ATOM     20  N   UNL     1      47.218   4.451  16.178  0.00  0.00    +0.000 N 
ATOM     21  H   UNL     1      46.904   5.341  16.548  0.00  0.00    +0.000 HD
BRANCH  19  22
ATOM     22  C   UNL     1      46.948   5.397  13.973  0.00  0.00    +0.000 A 
ATOM     23  C   UNL     1      47.899   6.402  13.884  0.00  0.00    +0.000 A 
ATOM     24  S   UNL     1      47.469   7.666  12.825  0.00  0.00    +0.000 S 
ATOM     25  C   UNL     1      46.001   6.903  12.422  0.00  0.00    +0.000 A 
ATOM     26  N   UNL     1      45.160   7.446  11.502  0.00  0.00    +0.000 NA
ATOM     27  C   UNL     1      44.107   6.737  11.258  0.00  0.00    +0.000 A 
ATOM     28  N   UNL     1      43.810   5.549  11.869  0.00  0.00    +0.000 N 
ATOM     29  C   UNL     1      44.580   5.014  12.876  0.00  0.00    +0.000 A 
ATOM     30  O   UNL     1      44.195   4.050  13.526  0.00  0.00    +0.000 OA
ATOM     31  C   UNL     1      45.820   5.725  13.126  0.00  0.00    +0.000 A 
ATOM     32  H   UNL     1      42.942   5.069  11.670  0.00  0.00    +0.000 HD
ENDBRANCH  19  22
ENDBRANCH   1  20
TORSDOF 5
ENDMDL
MODEL 8
REMARK VINA RESULT:    -7.023      4.388      8.494
REMARK INTER + INTRA:          -9.968
REMARK INTER:                  -9.047
REMARK INTRA:                  -0.921
REMARK UNBOUND:                -0.892
REMARK  Name = 
REMARK  5 active torsions:
REMARK  status: ('A' for Active; 'I' for Inactive)
REMARK    1  A    between atoms: C_2  and  C_20
REMARK    2  A    between atoms: N_3  and  C_4
REMARK    3  A    between atoms: C_4  and  C_5
REMARK    4  A    between atoms: C_8  and  C_9
REMARK    5  A    between atoms: C_9  and  N_10
REMARK                            x       y       z     vdW  Elec       q    Type
REMARK                         _______ _______ _______ _____ _____    ______ ____
ROOT
ATOM      1  C   UNL     1      48.211   7.917  14.469  0.00  0.00    +0.000 C 
ENDROOT
BRANCH   1   2
ATOM      2  C   UNL     1      48.760   6.974  15.509  0.00  0.00    +0.000 A 
ATOM      3  C   UNL     1      49.908   7.316  16.236  0.00  0.00    +0.000 A 
ATOM      4  C   UNL     1      50.398   6.470  17.234  0.00  0.00    +0.000 A 
ATOM      5  C   UNL     1      49.765   5.250  17.509  0.00  0.00    +0.000 A 
ATOM      6  C   UNL     1      48.627   4.898  16.769  0.00  0.00    +0.000 A 
ATOM      7  C   UNL     1      48.137   5.746  15.770  0.00  0.00    +0.000 A 
BRANCH   5   8
ATOM      8  C   UNL     1      50.309   4.322  18.572  0.00  0.00    +0.000 C 
BRANCH   8   9
ATOM      9  N   UNL     1      50.335   2.946  18.086  0.00  0.00    +0.000 N 
ATOM     10  C   UNL     1      51.636   2.458  17.860  0.00  0.00    +0.000 A 
ATOM     11  C   UNL     1      51.787   1.149  17.405  0.00  0.00    +0.000 A 
ATOM     12  C   UNL     1      53.066   0.637  17.179  0.00  0.00    +0.000 A 
ATOM     13  C   UNL     1      54.167   1.447  17.416  0.00  0.00    +0.000 A 
ATOM     14  C   UNL     1      53.926   2.725  17.879  0.00  0.00    +0.000 A 
ATOM     15 CL   UNL     1      55.220   3.807  18.194  0.00  0.00    +0.000 Cl
ATOM     16  N   UNL     1      52.703   3.241  18.109  0.00  0.00    +0.000 NA
ATOM     17  H   UNL     1      49.779   2.834  17.243  0.00  0.00    +0.000 HD
ENDBRANCH   8   9
ENDBRANCH   5   8
ENDBRANCH   1   2
BRANCH   1  20
ATOM     18  O   UNL     1      47.943   6.575  12.017  0.00  0.00    +0.000 OA
ATOM     19  C   UNL     1      46.940   6.760  12.702  0.00  0.00    +0.000 C 
ATOM     20  N   UNL     1      46.980   7.434  13.895  0.00  0.00    +0.000 N 
ATOM     21  H   UNL     1      46.165   7.439  14.497  0.00  0.00    +0.000 HD
BRANCH  19  22
ATOM     22  C   UNL     1      45.625   6.300  12.250  0.00  0.00    +0.000 A 
ATOM     23  C   UNL     1      44.718   7.203  11.717  0.00  0.00    +0.000 A 
ATOM     24  S   UNL     1      43.253   6.493  11.215  0.00  0.00    +0.000 S 
ATOM     25  C   UNL     1      43.786   4.941  11.667  0.00  0.00    +0.000 A 
ATOM     26  N   UNL     1      43.010   3.844  11.452  0.00  0.00    +0.000 NA
ATOM     27  C   UNL     1      43.559   2.727  11.798  0.00  0.00    +0.000 A 
ATOM     28  N   UNL     1      44.801   2.611  12.363  0.00  0.00    +0.000 N 
ATOM     29  C   UNL     1      45.576   3.700  12.691  0.00  0.00    +0.000 A 
ATOM     30  O   UNL     1      46.597   3.575  13.357  0.00  0.00    +0.000 OA
ATOM     31  C   UNL     1      45.045   4.973  12.241  0.00  0.00    +0.000 A 
ATOM     32  H   UNL     1      45.151   1.710  12.660  0.00  0.00    +0.000 HD
ENDBRANCH  19  22
ENDBRANCH   1  20
TORSDOF 5
ENDMDL
MODEL 9
REMARK VINA RESULT:    -6.885      2.902      4.294
REMARK INTER + INTRA:          -9.789
REMARK INTER:                  -8.719
REMARK INTRA:                  -1.070
REMARK UNBOUND:                -0.892
REMARK  Name = 
REMARK  5 active torsions:
REMARK  status: ('A' for Active; 'I' for Inactive)
REMARK    1  A    between atoms: C_2  and  C_20
REMARK    2  A    between atoms: N_3  and  C_4
REMARK    3  A    between atoms: C_4  and  C_5
REMARK    4  A    between atoms: C_8  and  C_9
REMARK    5  A    between atoms: C_9  and  N_10
REMARK                            x       y       z     vdW  Elec       q    Type
REMARK                         _______ _______ _______ _____ _____    ______ ____
ROOT
ATOM      1  C   UNL     1      46.673   6.064  14.102  0.00  0.00    +0.000 C 
ENDROOT
BRANCH   1   2
ATOM      2  C   UNL     1      46.165   5.385  12.856  0.00  0.00    +0.000 A 
ATOM      3  C   UNL     1      45.743   4.050  12.902  0.00  0.00    +0.000 A 
ATOM      4  C   UNL     1      45.227   3.426  11.763  0.00  0.00    +0.000 A 
ATOM      5  C   UNL     1      45.145   4.116  10.546  0.00  0.00    +0.000 A 
ATOM      6  C   UNL     1      45.585   5.446  10.495  0.00  0.00    +0.000 A 
ATOM      7  C   UNL     1      46.102   6.071  11.635  0.00  0.00    +0.000 A 
BRANCH   5   8
ATOM      8  C   UNL     1      44.610   3.433   9.307  0.00  0.00    +0.000 C 
BRANCH   8   9
ATOM      9  N   UNL     1      45.244   3.976   8.109  0.00  0.00    +0.000 N 
ATOM     10  C   UNL     1      46.021   3.031   7.413  0.00  0.00    +0.000 A 
ATOM     11  C   UNL     1      46.667   3.431   6.244  0.00  0.00    +0.000 A 
ATOM     12  C   UNL     1      47.439   2.512   5.529  0.00  0.00    +0.000 A 
ATOM     13  C   UNL     1      47.545   1.212   6.000  0.00  0.00    +0.000 A 
ATOM     14  C   UNL     1      46.861   0.898   7.158  0.00  0.00    +0.000 A 
ATOM     15 CL   UNL     1      46.936  -0.680   7.826  0.00  0.00    +0.000 Cl
ATOM     16  N   UNL     1      46.107   1.764   7.863  0.00  0.00    +0.000 NA
ATOM     17  H   UNL     1      45.810   4.792   8.320  0.00  0.00    +0.000 HD
ENDBRANCH   8   9
ENDBRANCH   5   8
ENDBRANCH   1   2
BRANCH   1  20
ATOM     18  O   UNL     1      47.538   8.701  14.534  0.00  0.00    +0.000 OA
ATOM     19  C   UNL     1      48.365   7.855  14.204  0.00  0.00    +0.000 C 
ATOM     20  N   UNL     1      48.019   6.554  13.941  0.00  0.00    +0.000 N 
ATOM     21  H   UNL     1      48.745   5.858  13.815  0.00  0.00    +0.000 HD
BRANCH  19  22
ATOM     22  C   UNL     1      49.775   8.210  14.026  0.00  0.00    +0.000 A 
ATOM     23  C   UNL     1      50.525   8.643  15.109  0.00  0.00    +0.000 A 
ATOM     24  S   UNL     1      52.150   8.982  14.730  0.00  0.00    +0.000 S 
ATOM     25  C   UNL     1      51.922   8.536  13.103  0.00  0.00    +0.000 A 
ATOM     26  N   UNL     1      52.959   8.545  12.222  0.00  0.00    +0.000 NA
ATOM     27  C   UNL     1      52.653   8.137  11.035  0.00  0.00    +0.000 A 
ATOM     28  N   UNL     1      51.401   7.746  10.645  0.00  0.00    +0.000 N 
ATOM     29  C   UNL     1      50.304   7.816  11.473  0.00  0.00    +0.000 A 
ATOM     30  O   UNL     1      49.172   7.632  11.044  0.00  0.00    +0.000 OA
ATOM     31  C   UNL     1      50.609   8.183  12.843  0.00  0.00    +0.000 A 
ATOM     32  H   UNL     1      51.217   7.486   9.684  0.00  0.00    +0.000 HD
ENDBRANCH  19  22
ENDBRANCH   1  20
TORSDOF 5
ENDMDL
