MODEL 1
REMARK VINA RESULT:    -6.977      0.000      0.000
REMARK INTER + INTRA:          -9.773
REMARK INTER:                  -9.220
REMARK INTRA:                  -0.552
REMARK UNBOUND:                -0.552
REMARK  Name = 
REMARK  6 active torsions:
REMARK  status: ('A' for Active; 'I' for Inactive)
REMARK    1  A    between atoms: N_1  and  C_2
REMARK    2  A    between atoms: C_2  and  C_3
REMARK    3  A    between atoms: C_7  and  N_8
REMARK    4  A    between atoms: N_8  and  C_9
REMARK    5  A    between atoms: C_9  and  C_10
REMARK    6  A    between atoms: C_10  and  C_11
REMARK                            x       y       z     vdW  Elec       q    Type
REMARK                         _______ _______ _______ _____ _____    ______ ____
ROOT
ATOM      1  C   UNL     1      46.675   2.111   7.381  0.00  0.00    +0.000 A 
ATOM      2  C   UNL     1      46.785   3.463   7.037  0.00  0.00    +0.000 A 
ATOM      3  C   UNL     1      46.102   4.430   7.767  0.00  0.00    +0.000 A 
ATOM      4  C   UNL     1      45.280   4.054   8.833  0.00  0.00    +0.000 A 
ATOM      5  C   UNL     1      45.101   2.709   9.172  0.00  0.00    +0.000 A 
ATOM      6  C   UNL     1      45.846   1.753   8.460  0.00  0.00    +0.000 A 
ENDROOT
BRANCH   5   7
ATOM      7  N   UNL     1      44.329   2.288  10.272  0.00  0.00    +0.000 N 
ATOM      8  H   UNL     1      43.718   1.520   9.998  0.00  0.00    +0.000 HD
BRANCH   7   9
ATOM      9  C   UNL     1      43.603   3.315  11.034  0.00  0.00    +0.000 C 
BRANCH   9  10
ATOM     10  C   UNL     1      44.017   3.274  12.506  0.00  0.00    +0.000 C 
BRANCH  10  11
ATOM     11  C   UNL     1      45.144   4.234  12.790  0.00  0.00    +0.000 A 
ATOM     12  C   UNL     1      45.312   5.384  12.022  0.00  0.00    +0.000 A 
ATOM     13  C   UNL     1      46.375   6.237  12.310  0.00  0.00    +0.000 A 
ATOM     14  C   UNL     1      47.234   5.926  13.355  0.00  0.00    +0.000 A 
ATOM     15  C   UNL     1      46.986   4.773  14.080  0.00  0.00    +0.000 A 
ATOM     16  N   UNL     1      45.963   3.927  13.825  0.00  0.00    +0.000 NA
ENDBRANCH  10  11
ENDBRANCH   9  10
ENDBRANCH   7   9
ENDBRANCH   5   7
BRANCH   1  17
ATOM     17  C   UNL     1      47.412   1.063   6.587  0.00  0.00    +0.000 C 
BRANCH  17  18
ATOM     18  N   UNL     1      48.458   1.646   5.754  0.00  0.00    +0.000 NA
ATOM     19  H   UNL     1      49.368   1.368   6.117  0.00  0.00    +0.000 HD
ATOM     20  H   UNL     1      48.410   2.661   5.836  0.00  0.00    +0.000 HD
ENDBRANCH  17  18
ENDBRANCH   1  17
TORSDOF 6
ENDMDL
MODEL 2
REMARK VINA RESULT:    -6.807      1.463      5.872
REMARK INTER + INTRA:          -9.548
REMARK INTER:                  -9.030
REMARK INTRA:                  -0.518
REMARK UNBOUND:                -0.552
REMARK  Name = 
REMARK  6 active torsions:
REMARK  status: ('A' for Active; 'I' for Inactive)
REMARK    1  A    between atoms: N_1  and  C_2
REMARK    2  A    between atoms: C_2  and  C_3
REMARK    3  A    between atoms: C_7  and  N_8
REMARK    4  A    between atoms: N_8  and  C_9
REMARK    5  A    between atoms: C_9  and  C_10
REMARK    6  A    between atoms: C_10  and  C_11
REMARK                            x       y       z     vdW  Elec       q    Type
REMARK                         _______ _______ _______ _____ _____    ______ ____
ROOT
ATOM      1  C   UNL     1      46.693   5.135  13.498  0.00  0.00    +0.000 A 
ATOM      2  C   UNL     1      47.343   6.209  12.880  0.00  0.00    +0.000 A 
ATOM      3  C   UNL     1      46.885   6.697  11.660  0.00  0.00    +0.000 A 
ATOM      4  C   UNL     1      45.791   6.098  11.031  0.00  0.00    +0.000 A 
ATOM      5  C   UNL     1      45.149   4.988  11.590  0.00  0.00    +0.000 A 
ATOM      6  C   UNL     1      45.589   4.549  12.851  0.00  0.00    +0.000 A 
ENDROOT
BRANCH   5   7
ATOM      7  N   UNL     1      44.009   4.389  11.021  0.00  0.00    +0.000 N 
ATOM      8  H   UNL     1      43.682   3.626  11.611  0.00  0.00    +0.000 HD
BRANCH   7   9
ATOM      9  C   UNL     1      44.077   3.992   9.606  0.00  0.00    +0.000 C 
BRANCH   9  10
ATOM     10  C   UNL     1      44.543   2.540   9.485  0.00  0.00    +0.000 C 
BRANCH  10  11
ATOM     11  C   UNL     1      45.604   2.387   8.426  0.00  0.00    +0.000 A 
ATOM     12  C   UNL     1      45.967   3.463   7.619  0.00  0.00    +0.000 A 
ATOM     13  C   UNL     1      46.943   3.274   6.644  0.00  0.00    +0.000 A 
ATOM     14  C   UNL     1      47.534   2.025   6.503  0.00  0.00    +0.000 A 
ATOM     15  C   UNL     1      47.128   1.014   7.357  0.00  0.00    +0.000 A 
ATOM     16  N   UNL     1      46.184   1.167   8.313  0.00  0.00    +0.000 NA
ENDBRANCH  10  11
ENDBRANCH   9  10
ENDBRANCH   7   9
ENDBRANCH   5   7
BRANCH   1  17
ATOM     17  C   UNL     1      47.190   4.604  14.818  0.00  0.00    +0.000 C 
BRANCH  17  18
ATOM     18  N   UNL     1      47.502   3.181  14.749  0.00  0.00    +0.000 NA
ATOM     19  H   UNL     1      46.660   2.665  14.503  0.00  0.00    +0.000 HD
ATOM     20  H   UNL     1      47.775   2.863  15.679  0.00  0.00    +0.000 HD
ENDBRANCH  17  18
ENDBRANCH   1  17
TORSDOF 6
ENDMDL
MODEL 3
REMARK VINA RESULT:    -6.391      1.346      1.874
REMARK INTER + INTRA:          -8.998
REMARK INTER:                  -8.365
REMARK INTRA:                  -0.633
REMARK UNBOUND:                -0.552
REMARK  Name = 
REMARK  6 active torsions:
REMARK  status: ('A' for Active; 'I' for Inactive)
REMARK    1  A    between atoms: N_1  and  C_2
REMARK    2  A    between atoms: C_2  and  C_3
REMARK    3  A    between atoms: C_7  and  N_8
REMARK    4  A    between atoms: N_8  and  C_9
REMARK    5  A    between atoms: C_9  and  C_10
REMARK    6  A    between atoms: C_10  and  C_11
REMARK                            x       y       z     vdW  Elec       q    Type
REMARK                         _______ _______ _______ _____ _____    ______ ____
ROOT
ATOM      1  C   UNL     1      46.120   3.344   7.721  0.00  0.00    +0.000 A 
ATOM      2  C   UNL     1      45.933   1.994   8.039  0.00  0.00    +0.000 A 
ATOM      3  C   UNL     1      45.067   1.629   9.065  0.00  0.00    +0.000 A 
ATOM      4  C   UNL     1      44.399   2.609   9.802  0.00  0.00    +0.000 A 
ATOM      5  C   UNL     1      44.601   3.970   9.551  0.00  0.00    +0.000 A 
ATOM      6  C   UNL     1      45.434   4.317   8.472  0.00  0.00    +0.000 A 
ENDROOT
BRANCH   5   7
ATOM      7  N   UNL     1      43.908   4.991  10.229  0.00  0.00    +0.000 N 
ATOM      8  H   UNL     1      44.564   5.681  10.590  0.00  0.00    +0.000 HD
BRANCH   7   9
ATOM      9  C   UNL     1      42.923   4.592  11.246  0.00  0.00    +0.000 C 
BRANCH   9  10
ATOM     10  C   UNL     1      43.182   5.338  12.556  0.00  0.00    +0.000 C 
BRANCH  10  11
ATOM     11  C   UNL     1      44.649   5.356  12.901  0.00  0.00    +0.000 A 
ATOM     12  C   UNL     1      45.371   6.548  12.881  0.00  0.00    +0.000 A 
ATOM     13  C   UNL     1      46.728   6.518  13.193  0.00  0.00    +0.000 A 
ATOM     14  C   UNL     1      47.326   5.309  13.521  0.00  0.00    +0.000 A 
ATOM     15  C   UNL     1      46.533   4.173  13.533  0.00  0.00    +0.000 A 
ATOM     16  N   UNL     1      45.215   4.171  13.236  0.00  0.00    +0.000 NA
ENDBRANCH  10  11
ENDBRANCH   9  10
ENDBRANCH   7   9
ENDBRANCH   5   7
BRANCH   1  17
ATOM     17  C   UNL     1      47.060   3.740   6.612  0.00  0.00    +0.000 C 
BRANCH  17  18
ATOM     18  N   UNL     1      48.196   2.830   6.510  0.00  0.00    +0.000 NA
ATOM     19  H   UNL     1      49.059   3.361   6.601  0.00  0.00    +0.000 HD
ATOM     20  H   UNL     1      48.202   2.423   5.575  0.00  0.00    +0.000 HD
ENDBRANCH  17  18
ENDBRANCH   1  17
TORSDOF 6
ENDMDL
MODEL 4
REMARK VINA RESULT:    -6.306      1.828      6.511
REMARK INTER + INTRA:          -8.886
REMARK INTER:                  -8.453
REMARK INTRA:                  -0.433
REMARK UNBOUND:                -0.552
REMARK  Name = 
REMARK  6 active torsions:
REMARK  status: ('A' for Active; 'I' for Inactive)
REMARK    1  A    between atoms: N_1  and  C_2
REMARK    2  A    between atoms: C_2  and  C_3
REMARK    3  A    between atoms: C_7  and  N_8
REMARK    4  A    between atoms: N_8  and  C_9
REMARK    5  A    between atoms: C_9  and  C_10
REMARK    6  A    between atoms: C_10  and  C_11
REMARK                            x       y       z     vdW  Elec       q    Type
REMARK                         _______ _______ _______ _____ _____    ______ ____
ROOT
ATOM      1  C   UNL     1      45.929   6.956  12.313  0.00  0.00    +0.000 A 
ATOM      2  C   UNL     1      46.385   5.996  13.222  0.00  0.00    +0.000 A 
ATOM      3  C   UNL     1      46.054   4.656  13.051  0.00  0.00    +0.000 A 
ATOM      4  C   UNL     1      45.239   4.264  11.986  0.00  0.00    +0.000 A 
ATOM      5  C   UNL     1      44.718   5.202  11.088  0.00  0.00    +0.000 A 
ATOM      6  C   UNL     1      45.113   6.542  11.243  0.00  0.00    +0.000 A 
ENDROOT
BRANCH   5   7
ATOM      7  N   UNL     1      43.941   4.847   9.969  0.00  0.00    +0.000 N 
ATOM      8  H   UNL     1      42.972   4.699  10.246  0.00  0.00    +0.000 HD
BRANCH   7   9
ATOM      9  C   UNL     1      44.433   3.761   9.108  0.00  0.00    +0.000 C 
BRANCH   9  10
ATOM     10  C   UNL     1      45.655   4.227   8.313  0.00  0.00    +0.000 C 
BRANCH  10  11
ATOM     11  C   UNL     1      46.263   3.098   7.521  0.00  0.00    +0.000 A 
ATOM     12  C   UNL     1      46.656   3.287   6.198  0.00  0.00    +0.000 A 
ATOM     13  C   UNL     1      47.201   2.213   5.498  0.00  0.00    +0.000 A 
ATOM     14  C   UNL     1      47.345   0.987   6.134  0.00  0.00    +0.000 A 
ATOM     15  C   UNL     1      46.945   0.889   7.456  0.00  0.00    +0.000 A 
ATOM     16  N   UNL     1      46.413   1.913   8.161  0.00  0.00    +0.000 NA
ENDBRANCH  10  11
ENDBRANCH   9  10
ENDBRANCH   7   9
ENDBRANCH   5   7
BRANCH   1  17
ATOM     17  C   UNL     1      46.285   8.409  12.498  0.00  0.00    +0.000 C 
BRANCH  17  18
ATOM     18  N   UNL     1      46.575   8.724  13.893  0.00  0.00    +0.000 NA
ATOM     19  H   UNL     1      47.574   8.886  13.998  0.00  0.00    +0.000 HD
ATOM     20  H   UNL     1      46.352   7.910  14.463  0.00  0.00    +0.000 HD
ENDBRANCH  17  18
ENDBRANCH   1  17
TORSDOF 6
ENDMDL
MODEL 5
REMARK VINA RESULT:    -6.033      1.452      6.509
REMARK INTER + INTRA:          -8.526
REMARK INTER:                  -8.176
REMARK INTRA:                  -0.350
REMARK UNBOUND:                -0.552
REMARK  Name = 
REMARK  6 active torsions:
REMARK  status: ('A' for Active; 'I' for Inactive)
REMARK    1  A    between atoms: N_1  and  C_2
REMARK    2  A    between atoms: C_2  and  C_3
REMARK    3  A    between atoms: C_7  and  N_8
REMARK    4  A    between atoms: N_8  and  C_9
REMARK    5  A    between atoms: C_9  and  C_10
REMARK    6  A    between atoms: C_10  and  C_11
REMARK                            x       y       z     vdW  Elec       q    Type
REMARK                         _______ _______ _______ _____ _____    ______ ____
ROOT
ATOM      1  C   UNL     1      45.327   4.323  12.844  0.00  0.00    +0.000 A 
ATOM      2  C   UNL     1      44.168   3.565  13.047  0.00  0.00    +0.000 A 
ATOM      3  C   UNL     1      43.311   3.298  11.984  0.00  0.00    +0.000 A 
ATOM      4  C   UNL     1      43.589   3.807  10.713  0.00  0.00    +0.000 A 
ATOM      5  C   UNL     1      44.708   4.615  10.483  0.00  0.00    +0.000 A 
ATOM      6  C   UNL     1      45.592   4.824  11.556  0.00  0.00    +0.000 A 
ENDROOT
BRANCH   5   7
ATOM      7  N   UNL     1      45.058   5.103   9.210  0.00  0.00    +0.000 N 
ATOM      8  H   UNL     1      44.475   5.902   8.968  0.00  0.00    +0.000 HD
BRANCH   7   9
ATOM      9  C   UNL     1      45.142   4.136   8.104  0.00  0.00    +0.000 C 
BRANCH   9  10
ATOM     10  C   UNL     1      46.547   4.144   7.500  0.00  0.00    +0.000 C 
BRANCH  10  11
ATOM     11  C   UNL     1      46.827   2.877   6.734  0.00  0.00    +0.000 A 
ATOM     12  C   UNL     1      46.938   2.893   5.345  0.00  0.00    +0.000 A 
ATOM     13  C   UNL     1      47.183   1.697   4.674  0.00  0.00    +0.000 A 
ATOM     14  C   UNL     1      47.316   0.522   5.403  0.00  0.00    +0.000 A 
ATOM     15  C   UNL     1      47.208   0.596   6.781  0.00  0.00    +0.000 A 
ATOM     16  N   UNL     1      46.972   1.741   7.459  0.00  0.00    +0.000 NA
ENDBRANCH  10  11
ENDBRANCH   9  10
ENDBRANCH   7   9
ENDBRANCH   5   7
BRANCH   1  17
ATOM     17  C   UNL     1      46.254   4.616  13.996  0.00  0.00    +0.000 C 
BRANCH  17  18
ATOM     18  N   UNL     1      47.218   3.541  14.206  0.00  0.00    +0.000 NA
ATOM     19  H   UNL     1      47.156   3.219  15.169  0.00  0.00    +0.000 HD
ATOM     20  H   UNL     1      48.157   3.920  14.087  0.00  0.00    +0.000 HD
ENDBRANCH  17  18
ENDBRANCH   1  17
TORSDOF 6
ENDMDL
MODEL 6
REMARK VINA RESULT:    -5.711      3.323      5.717
REMARK INTER + INTRA:          -8.100
REMARK INTER:                  -7.816
REMARK INTRA:                  -0.284
REMARK UNBOUND:                -0.552
REMARK  Name = 
REMARK  6 active torsions:
REMARK  status: ('A' for Active; 'I' for Inactive)
REMARK    1  A    between atoms: N_1  and  C_2
REMARK    2  A    between atoms: C_2  and  C_3
REMARK    3  A    between atoms: C_7  and  N_8
REMARK    4  A    between atoms: N_8  and  C_9
REMARK    5  A    between atoms: C_9  and  C_10
REMARK    6  A    between atoms: C_10  and  C_11
REMARK                            x       y       z     vdW  Elec       q    Type
REMARK                         _______ _______ _______ _____ _____    ______ ____
ROOT
ATOM      1  C   UNL     1      44.840   4.807  11.343  0.00  0.00    +0.000 A 
ATOM      2  C   UNL     1      45.520   5.987  11.022  0.00  0.00    +0.000 A 
ATOM      3  C   UNL     1      46.603   6.402  11.789  0.00  0.00    +0.000 A 
ATOM      4  C   UNL     1      47.003   5.657  12.902  0.00  0.00    +0.000 A 
ATOM      5  C   UNL     1      46.314   4.501  13.287  0.00  0.00    +0.000 A 
ATOM      6  C   UNL     1      45.259   4.067  12.464  0.00  0.00    +0.000 A 
ENDROOT
BRANCH   5   7
ATOM      7  N   UNL     1      46.714   3.689  14.365  0.00  0.00    +0.000 N 
ATOM      8  H   UNL     1      45.951   3.075  14.643  0.00  0.00    +0.000 HD
BRANCH   7   9
ATOM      9  C   UNL     1      47.335   4.346  15.525  0.00  0.00    +0.000 C 
BRANCH   9  10
ATOM     10  C   UNL     1      47.507   3.346  16.670  0.00  0.00    +0.000 C 
BRANCH  10  11
ATOM     11  C   UNL     1      48.958   3.158  17.028  0.00  0.00    +0.000 A 
ATOM     12  C   UNL     1      49.671   4.168  17.672  0.00  0.00    +0.000 A 
ATOM     13  C   UNL     1      51.014   3.958  17.972  0.00  0.00    +0.000 A 
ATOM     14  C   UNL     1      51.609   2.751  17.629  0.00  0.00    +0.000 A 
ATOM     15  C   UNL     1      50.826   1.794  17.006  0.00  0.00    +0.000 A 
ATOM     16  N   UNL     1      49.520   1.969  16.703  0.00  0.00    +0.000 NA
ENDBRANCH  10  11
ENDBRANCH   9  10
ENDBRANCH   7   9
ENDBRANCH   5   7
BRANCH   1  17
ATOM     17  C   UNL     1      43.663   4.359  10.514  0.00  0.00    +0.000 C 
BRANCH  17  18
ATOM     18  N   UNL     1      43.874   4.606   9.092  0.00  0.00    +0.000 NA
ATOM     19  H   UNL     1      43.383   3.896   8.553  0.00  0.00    +0.000 HD
ATOM     20  H   UNL     1      44.866   4.493   8.886  0.00  0.00    +0.000 HD
ENDBRANCH  17  18
ENDBRANCH   1  17
TORSDOF 6
ENDMDL
MODEL 7
REMARK VINA RESULT:    -5.446      2.219      6.955
REMARK INTER + INTRA:          -7.749
REMARK INTER:                  -7.363
REMARK INTRA:                  -0.386
REMARK UNBOUND:                -0.552
REMARK  Name = 
REMARK  6 active torsions:
REMARK  status: ('A' for Active; 'I' for Inactive)
REMARK    1  A    between atoms: N_1  and  C_2
REMARK    2  A    between atoms: C_2  and  C_3
REMARK    3  A    between atoms: C_7  and  N_8
REMARK    4  A    between atoms: N_8  and  C_9
REMARK    5  A    between atoms: C_9  and  C_10
REMARK    6  A    between atoms: C_10  and  C_11
REMARK                            x       y       z     vdW  Elec       q    Type
REMARK                         _______ _______ _______ _____ _____    ______ ____
ROOT
ATOM      1  C   UNL     1      47.868   4.537  16.381  0.00  0.00    +0.000 A 
ATOM      2  C   UNL     1      48.640   5.699  16.494  0.00  0.00    +0.000 A 
ATOM      3  C   UNL     1      48.688   6.612  15.446  0.00  0.00    +0.000 A 
ATOM      4  C   UNL     1      47.987   6.362  14.263  0.00  0.00    +0.000 A 
ATOM      5  C   UNL     1      47.249   5.186  14.092  0.00  0.00    +0.000 A 
ATOM      6  C   UNL     1      47.165   4.304  15.185  0.00  0.00    +0.000 A 
ENDROOT
BRANCH   5   7
ATOM      7  N   UNL     1      46.482   4.917  12.942  0.00  0.00    +0.000 N 
ATOM      8  H   UNL     1      46.846   5.440  12.148  0.00  0.00    +0.000 HD
BRANCH   7   9
ATOM      9  C   UNL     1      45.020   5.037  13.049  0.00  0.00    +0.000 C 
BRANCH   9  10
ATOM     10  C   UNL     1      44.438   5.601  11.752  0.00  0.00    +0.000 C 
BRANCH  10  11
ATOM     11  C   UNL     1      44.645   4.656  10.597  0.00  0.00    +0.000 A 
ATOM     12  C   UNL     1      44.115   3.367  10.626  0.00  0.00    +0.000 A 
ATOM     13  C   UNL     1      44.341   2.521   9.543  0.00  0.00    +0.000 A 
ATOM     14  C   UNL     1      45.081   2.981   8.461  0.00  0.00    +0.000 A 
ATOM     15  C   UNL     1      45.558   4.280   8.505  0.00  0.00    +0.000 A 
ATOM     16  N   UNL     1      45.354   5.124   9.541  0.00  0.00    +0.000 NA
ENDBRANCH  10  11
ENDBRANCH   9  10
ENDBRANCH   7   9
ENDBRANCH   5   7
BRANCH   1  17
ATOM     17  C   UNL     1      47.819   3.545  17.515  0.00  0.00    +0.000 C 
BRANCH  17  18
ATOM     18  N   UNL     1      46.506   2.920  17.634  0.00  0.00    +0.000 NA
ATOM     19  H   UNL     1      45.849   3.592  18.025  0.00  0.00    +0.000 HD
ATOM     20  H   UNL     1      46.570   2.154  18.304  0.00  0.00    +0.000 HD
ENDBRANCH  17  18
ENDBRANCH   1  17
TORSDOF 6
ENDMDL
MODEL 8
REMARK VINA RESULT:    -5.438      2.079      3.313
REMARK INTER + INTRA:          -7.740
REMARK INTER:                  -7.435
REMARK INTRA:                  -0.304
REMARK UNBOUND:                -0.552
REMARK  Name = 
REMARK  6 active torsions:
REMARK  status: ('A' for Active; 'I' for Inactive)
REMARK    1  A    between atoms: N_1  and  C_2
REMARK    2  A    between atoms: C_2  and  C_3
REMARK    3  A    between atoms: C_7  and  N_8
REMARK    4  A    between atoms: N_8  and  C_9
REMARK    5  A    between atoms: C_9  and  C_10
REMARK    6  A    between atoms: C_10  and  C_11
REMARK                            x       y       z     vdW  Elec       q    Type
REMARK                         _______ _______ _______ _____ _____    ______ ____
ROOT
ATOM      1  C   UNL     1      46.903   1.368   5.202  0.00  0.00    +0.000 A 
ATOM      2  C   UNL     1      47.035   0.275   6.066  0.00  0.00    +0.000 A 
ATOM      3  C   UNL     1      46.909   0.449   7.440  0.00  0.00    +0.000 A 
ATOM      4  C   UNL     1      46.676   1.722   7.968  0.00  0.00    +0.000 A 
ATOM      5  C   UNL     1      46.592   2.847   7.141  0.00  0.00    +0.000 A 
ATOM      6  C   UNL     1      46.663   2.641   5.752  0.00  0.00    +0.000 A 
ENDROOT
BRANCH   5   7
ATOM      7  N   UNL     1      46.303   4.138   7.623  0.00  0.00    +0.000 N 
ATOM      8  H   UNL     1      47.156   4.593   7.942  0.00  0.00    +0.000 HD
BRANCH   7   9
ATOM      9  C   UNL     1      45.213   4.276   8.601  0.00  0.00    +0.000 C 
BRANCH   9  10
ATOM     10  C   UNL     1      45.578   5.324   9.655  0.00  0.00    +0.000 C 
BRANCH  10  11
ATOM     11  C   UNL     1      44.724   5.187  10.889  0.00  0.00    +0.000 A 
ATOM     12  C   UNL     1      45.266   4.715  12.083  0.00  0.00    +0.000 A 
ATOM     13  C   UNL     1      44.438   4.591  13.196  0.00  0.00    +0.000 A 
ATOM     14  C   UNL     1      43.099   4.946  13.093  0.00  0.00    +0.000 A 
ATOM     15  C   UNL     1      42.645   5.422  11.875  0.00  0.00    +0.000 A 
ATOM     16  N   UNL     1      43.424   5.554  10.778  0.00  0.00    +0.000 NA
ENDBRANCH  10  11
ENDBRANCH   9  10
ENDBRANCH   7   9
ENDBRANCH   5   7
BRANCH   1  17
ATOM     17  C   UNL     1      47.042   1.181   3.713  0.00  0.00    +0.000 C 
BRANCH  17  18
ATOM     18  N   UNL     1      47.411  -0.188   3.369  0.00  0.00    +0.000 NA
ATOM     19  H   UNL     1      46.780  -0.534   2.649  0.00  0.00    +0.000 HD
ATOM     20  H   UNL     1      47.268  -0.779   4.187  0.00  0.00    +0.000 HD
ENDBRANCH  17  18
ENDBRANCH   1  17
TORSDOF 6
ENDMDL
MODEL 9
REMARK VINA RESULT:    -5.319      2.356      6.276
REMARK INTER + INTRA:          -7.582
REMARK INTER:                  -6.982
REMARK INTRA:                  -0.600
REMARK UNBOUND:                -0.552
REMARK  Name = 
REMARK  6 active torsions:
REMARK  status: ('A' for Active; 'I' for Inactive)
REMARK    1  A    between atoms: N_1  and  C_2
REMARK    2  A    between atoms: C_2  and  C_3
REMARK    3  A    between atoms: C_7  and  N_8
REMARK    4  A    between atoms: N_8  and  C_9
REMARK    5  A    between atoms: C_9  and  C_10
REMARK    6  A    between atoms: C_10  and  C_11
REMARK                            x       y       z     vdW  Elec       q    Type
REMARK                         _______ _______ _______ _____ _____    ______ ____
ROOT
ATOM      1  C   UNL     1      45.838   8.716  12.081  0.00  0.00    +0.000 A 
ATOM      2  C   UNL     1      47.225   8.891  12.144  0.00  0.00    +0.000 A 
ATOM      3  C   UNL     1      48.035   7.889  12.668  0.00  0.00    +0.000 A 
ATOM      4  C   UNL     1      47.466   6.712  13.160  0.00  0.00    +0.000 A 
ATOM      5  C   UNL     1      46.080   6.522  13.165  0.00  0.00    +0.000 A 
ATOM      6  C   UNL     1      45.284   7.521  12.577  0.00  0.00    +0.000 A 
ENDROOT
BRANCH   5   7
ATOM      7  N   UNL     1      45.466   5.332  13.598  0.00  0.00    +0.000 N 
ATOM      8  H   UNL     1      46.165   4.601  13.720  0.00  0.00    +0.000 HD
BRANCH   7   9
ATOM      9  C   UNL     1      44.299   4.848  12.844  0.00  0.00    +0.000 C 
BRANCH   9  10
ATOM     10  C   UNL     1      44.577   3.457  12.273  0.00  0.00    +0.000 C 
BRANCH  10  11
ATOM     11  C   UNL     1      44.795   3.504  10.782  0.00  0.00    +0.000 A 
ATOM     12  C   UNL     1      45.270   4.661  10.168  0.00  0.00    +0.000 A 
ATOM     13  C   UNL     1      45.444   4.667   8.786  0.00  0.00    +0.000 A 
ATOM     14  C   UNL     1      45.148   3.523   8.057  0.00  0.00    +0.000 A 
ATOM     15  C   UNL     1      44.696   2.410   8.747  0.00  0.00    +0.000 A 
ATOM     16  N   UNL     1      44.518   2.375  10.086  0.00  0.00    +0.000 NA
ENDBRANCH  10  11
ENDBRANCH   9  10
ENDBRANCH   7   9
ENDBRANCH   5   7
BRANCH   1  17
ATOM     17  C   UNL     1      44.960   9.803  11.516  0.00  0.00    +0.000 C 
BRANCH  17  18
ATOM     18  N   UNL     1      43.986  10.278  12.493  0.00  0.00    +0.000 NA
ATOM     19  H   UNL     1      44.372  11.080  12.987  0.00  0.00    +0.000 HD
ATOM     20  H   UNL     1      43.844   9.549  13.191  0.00  0.00    +0.000 HD
ENDBRANCH  17  18
ENDBRANCH   1  17
TORSDOF 6
ENDMDL
