MODEL 1
REMARK VINA RESULT:    -8.738      0.000      0.000
REMARK INTER + INTRA:         -12.123
REMARK INTER:                 -11.292
REMARK INTRA:                  -0.831
REMARK UNBOUND:                -0.831
REMARK  Name = 
REMARK  5 active torsions:
REMARK  status: ('A' for Active; 'I' for Inactive)
REMARK    1  A    between atoms: C_2  and  C_4
REMARK    2  A    between atoms: C_7  and  O_8
REMARK    3  A    between atoms: O_8  and  C_9
REMARK    4  A    between atoms: C_9  and  C_10
REMARK    5  A    between atoms: C_15  and  C_16
REMARK                            x       y       z     vdW  Elec       q    Type
REMARK                         _______ _______ _______ _____ _____    ______ ____
ROOT
ATOM      1  C   UNL     1      43.847   3.941  11.085  0.00  0.00    +0.000 C 
ENDROOT
BRANCH   1   2
ATOM      2  C   UNL     1      45.058   4.427  11.850  0.00  0.00    +0.000 A 
ATOM      3  C   UNL     1      45.659   3.604  12.806  0.00  0.00    +0.000 A 
ATOM      4  C   UNL     1      46.748   4.071  13.528  0.00  0.00    +0.000 A 
ATOM      5  F   UNL     1      47.317   3.275  14.443  0.00  0.00    +0.000 F 
ATOM      6  C   UNL     1      47.256   5.352  13.325  0.00  0.00    +0.000 A 
ATOM      7  C   UNL     1      46.662   6.222  12.396  0.00  0.00    +0.000 A 
ATOM      8  C   UNL     1      45.552   5.733  11.677  0.00  0.00    +0.000 A 
BRANCH   7   9
ATOM      9  C   UNL     1      47.155   7.603  12.189  0.00  0.00    +0.000 A 
ATOM     10  C   UNL     1      48.500   7.861  11.861  0.00  0.00    +0.000 A 
ATOM     11  C   UNL     1      48.958   9.159  11.617  0.00  0.00    +0.000 A 
ATOM     12  C   UNL     1      48.083  10.235  11.714  0.00  0.00    +0.000 A 
ATOM     13  C   UNL     1      46.753  10.013  12.055  0.00  0.00    +0.000 A 
ATOM     14  C   UNL     1      46.295   8.711  12.285  0.00  0.00    +0.000 A 
ENDBRANCH   7   9
ENDBRANCH   1   2
BRANCH   1  15
ATOM     15  O   UNL     1      43.880   4.434   9.740  0.00  0.00    +0.000 OA
BRANCH  15  19
ATOM     16  C   UNL     1      46.625   2.420   7.433  0.00  0.00    +0.000 A 
ATOM     17  C   UNL     1      45.833   1.711   8.339  0.00  0.00    +0.000 A 
ATOM     18  C   UNL     1      44.913   2.407   9.125  0.00  0.00    +0.000 A 
ATOM     19  C   UNL     1      44.819   3.782   8.971  0.00  0.00    +0.000 A 
ATOM     20  N   UNL     1      45.584   4.493   8.116  0.00  0.00    +0.000 NA
ATOM     21  C   UNL     1      46.478   3.797   7.373  0.00  0.00    +0.000 A 
BRANCH  16  23
ATOM     22  N   UNL     1      48.774   2.463   6.306  0.00  0.00    +0.000 N 
ATOM     23  C   UNL     1      47.610   1.785   6.539  0.00  0.00    +0.000 C 
ATOM     24  O   UNL     1      47.416   0.677   6.058  0.00  0.00    +0.000 OA
ATOM     25  H   UNL     1      49.488   1.955   5.798  0.00  0.00    +0.000 HD
ATOM     26  H   UNL     1      49.076   3.234   6.885  0.00  0.00    +0.000 HD
ENDBRANCH  16  23
ENDBRANCH  15  19
ENDBRANCH   1  15
TORSDOF 5
ENDMDL
MODEL 2
REMARK VINA RESULT:    -8.039      2.140      3.770
REMARK INTER + INTRA:         -11.219
REMARK INTER:                 -10.501
REMARK INTRA:                  -0.718
REMARK UNBOUND:                -0.831
REMARK  Name = 
REMARK  5 active torsions:
REMARK  status: ('A' for Active; 'I' for Inactive)
REMARK    1  A    between atoms: C_2  and  C_4
REMARK    2  A    between atoms: C_7  and  O_8
REMARK    3  A    between atoms: O_8  and  C_9
REMARK    4  A    between atoms: C_9  and  C_10
REMARK    5  A    between atoms: C_15  and  C_16
REMARK                            x       y       z     vdW  Elec       q    Type
REMARK                         _______ _______ _______ _____ _____    ______ ____
ROOT
ATOM      1  C   UNL     1      44.416   4.105  11.429  0.00  0.00    +0.000 C 
ENDROOT
BRANCH   1   2
ATOM      2  C   UNL     1      45.454   4.948  12.136  0.00  0.00    +0.000 A 
ATOM      3  C   UNL     1      45.959   6.097  11.522  0.00  0.00    +0.000 A 
ATOM      4  C   UNL     1      46.937   6.845  12.162  0.00  0.00    +0.000 A 
ATOM      5  F   UNL     1      47.415   7.946  11.567  0.00  0.00    +0.000 F 
ATOM      6  C   UNL     1      47.434   6.471  13.409  0.00  0.00    +0.000 A 
ATOM      7  C   UNL     1      46.977   5.306  14.044  0.00  0.00    +0.000 A 
ATOM      8  C   UNL     1      45.989   4.554  13.376  0.00  0.00    +0.000 A 
BRANCH   7   9
ATOM      9  C   UNL     1      47.518   4.861  15.351  0.00  0.00    +0.000 A 
ATOM     10  C   UNL     1      47.117   3.644  15.935  0.00  0.00    +0.000 A 
ATOM     11  C   UNL     1      47.662   3.199  17.143  0.00  0.00    +0.000 A 
ATOM     12  C   UNL     1      48.608   3.972  17.807  0.00  0.00    +0.000 A 
ATOM     13  C   UNL     1      49.008   5.188  17.263  0.00  0.00    +0.000 A 
ATOM     14  C   UNL     1      48.472   5.624  16.047  0.00  0.00    +0.000 A 
ENDBRANCH   7   9
ENDBRANCH   1   2
BRANCH   1  15
ATOM     15  O   UNL     1      44.249   4.555  10.079  0.00  0.00    +0.000 OA
BRANCH  15  19
ATOM     16  C   UNL     1      46.624   2.467   7.451  0.00  0.00    +0.000 A 
ATOM     17  C   UNL     1      45.913   1.777   8.435  0.00  0.00    +0.000 A 
ATOM     18  C   UNL     1      45.120   2.498   9.329  0.00  0.00    +0.000 A 
ATOM     19  C   UNL     1      45.066   3.878   9.200  0.00  0.00    +0.000 A 
ATOM     20  N   UNL     1      45.755   4.569   8.269  0.00  0.00    +0.000 NA
ATOM     21  C   UNL     1      46.528   3.850   7.421  0.00  0.00    +0.000 A 
BRANCH  16  23
ATOM     22  N   UNL     1      48.682   2.381   6.166  0.00  0.00    +0.000 N 
ATOM     23  C   UNL     1      47.473   1.806   6.442  0.00  0.00    +0.000 C 
ATOM     24  O   UNL     1      47.131   0.761   5.905  0.00  0.00    +0.000 OA
ATOM     25  H   UNL     1      49.301   1.844   5.571  0.00  0.00    +0.000 HD
ATOM     26  H   UNL     1      49.103   3.073   6.770  0.00  0.00    +0.000 HD
ENDBRANCH  16  23
ENDBRANCH  15  19
ENDBRANCH   1  15
TORSDOF 5
ENDMDL
MODEL 3
REMARK VINA RESULT:    -8.002      1.718      2.483
REMARK INTER + INTRA:         -11.172
REMARK INTER:                 -10.198
REMARK INTRA:                  -0.974
REMARK UNBOUND:                -0.831
REMARK  Name = 
REMARK  5 active torsions:
REMARK  status: ('A' for Active; 'I' for Inactive)
REMARK    1  A    between atoms: C_2  and  C_4
REMARK    2  A    between atoms: C_7  and  O_8
REMARK    3  A    between atoms: O_8  and  C_9
REMARK    4  A    between atoms: C_9  and  C_10
REMARK    5  A    between atoms: C_15  and  C_16
REMARK                            x       y       z     vdW  Elec       q    Type
REMARK                         _______ _______ _______ _____ _____    ______ ____
ROOT
ATOM      1  C   UNL     1      44.248   3.902  11.522  0.00  0.00    +0.000 C 
ENDROOT
BRANCH   1   2
ATOM      2  C   UNL     1      45.036   5.128  11.926  0.00  0.00    +0.000 A 
ATOM      3  C   UNL     1      46.170   4.997  12.732  0.00  0.00    +0.000 A 
ATOM      4  C   UNL     1      46.868   6.129  13.127  0.00  0.00    +0.000 A 
ATOM      5  F   UNL     1      47.954   5.995  13.900  0.00  0.00    +0.000 F 
ATOM      6  C   UNL     1      46.457   7.403  12.741  0.00  0.00    +0.000 A 
ATOM      7  C   UNL     1      45.305   7.581  11.958  0.00  0.00    +0.000 A 
ATOM      8  C   UNL     1      44.605   6.419  11.573  0.00  0.00    +0.000 A 
BRANCH   7   9
ATOM      9  C   UNL     1      44.821   8.926  11.568  0.00  0.00    +0.000 A 
ATOM     10  C   UNL     1      43.625   9.095  10.845  0.00  0.00    +0.000 A 
ATOM     11  C   UNL     1      43.141  10.365  10.518  0.00  0.00    +0.000 A 
ATOM     12  C   UNL     1      43.855  11.499  10.889  0.00  0.00    +0.000 A 
ATOM     13  C   UNL     1      45.051  11.362  11.587  0.00  0.00    +0.000 A 
ATOM     14  C   UNL     1      45.524  10.090  11.925  0.00  0.00    +0.000 A 
ENDBRANCH   7   9
ENDBRANCH   1   2
BRANCH   1  15
ATOM     15  O   UNL     1      43.807   4.022  10.165  0.00  0.00    +0.000 OA
BRANCH  15  19
ATOM     16  C   UNL     1      46.527   2.430   7.522  0.00  0.00    +0.000 A 
ATOM     17  C   UNL     1      46.258   3.801   7.493  0.00  0.00    +0.000 A 
ATOM     18  C   UNL     1      45.323   4.327   8.387  0.00  0.00    +0.000 A 
ATOM     19  C   UNL     1      44.700   3.464   9.276  0.00  0.00    +0.000 A 
ATOM     20  N   UNL     1      44.930   2.135   9.313  0.00  0.00    +0.000 NA
ATOM     21  C   UNL     1      45.830   1.645   8.428  0.00  0.00    +0.000 A 
BRANCH  16  23
ATOM     22  N   UNL     1      48.671   2.444   6.385  0.00  0.00    +0.000 N 
ATOM     23  C   UNL     1      47.509   1.772   6.641  0.00  0.00    +0.000 C 
ATOM     24  O   UNL     1      47.313   0.651   6.192  0.00  0.00    +0.000 OA
ATOM     25  H   UNL     1      49.383   1.923   5.888  0.00  0.00    +0.000 HD
ATOM     26  H   UNL     1      48.976   3.230   6.942  0.00  0.00    +0.000 HD
ENDBRANCH  16  23
ENDBRANCH  15  19
ENDBRANCH   1  15
TORSDOF 5
ENDMDL
MODEL 4
REMARK VINA RESULT:    -7.863      2.027      2.748
REMARK INTER + INTRA:         -10.992
REMARK INTER:                 -10.081
REMARK INTRA:                  -0.911
REMARK UNBOUND:                -0.831
REMARK  Name = 
REMARK  5 active torsions:
REMARK  status: ('A' for Active; 'I' for Inactive)
REMARK    1  A    between atoms: C_2  and  C_4
REMARK    2  A    between atoms: C_7  and  O_8
REMARK    3  A    between atoms: O_8  and  C_9
REMARK    4  A    between atoms: C_9  and  C_10
REMARK    5  A    between atoms: C_15  and  C_16
REMARK                            x       y       z     vdW  Elec       q    Type
REMARK                         _______ _______ _______ _____ _____    ______ ____
ROOT
ATOM      1  C   UNL     1      44.477   3.836  11.469  0.00  0.00    +0.000 C 
ENDROOT
BRANCH   1   2
ATOM      2  C   UNL     1      44.864   5.290  11.614  0.00  0.00    +0.000 A 
ATOM      3  C   UNL     1      43.950   6.294  11.284  0.00  0.00    +0.000 A 
ATOM      4  C   UNL     1      44.325   7.626  11.387  0.00  0.00    +0.000 A 
ATOM      5  F   UNL     1      43.442   8.582  11.068  0.00  0.00    +0.000 F 
ATOM      6  C   UNL     1      45.602   7.988  11.809  0.00  0.00    +0.000 A 
ATOM      7  C   UNL     1      46.561   7.010  12.120  0.00  0.00    +0.000 A 
ATOM      8  C   UNL     1      46.164   5.662  12.002  0.00  0.00    +0.000 A 
BRANCH   7   9
ATOM      9  C   UNL     1      47.939   7.365  12.531  0.00  0.00    +0.000 A 
ATOM     10  C   UNL     1      48.403   7.114  13.836  0.00  0.00    +0.000 A 
ATOM     11  C   UNL     1      49.718   7.403  14.213  0.00  0.00    +0.000 A 
ATOM     12  C   UNL     1      50.597   7.970  13.297  0.00  0.00    +0.000 A 
ATOM     13  C   UNL     1      50.160   8.248  12.005  0.00  0.00    +0.000 A 
ATOM     14  C   UNL     1      48.848   7.944  11.627  0.00  0.00    +0.000 A 
ENDBRANCH   7   9
ENDBRANCH   1   2
BRANCH   1  15
ATOM     15  O   UNL     1      43.852   3.614  10.199  0.00  0.00    +0.000 OA
BRANCH  15  19
ATOM     16  C   UNL     1      46.567   2.369   7.372  0.00  0.00    +0.000 A 
ATOM     17  C   UNL     1      46.133   3.696   7.373  0.00  0.00    +0.000 A 
ATOM     18  C   UNL     1      45.201   4.104   8.330  0.00  0.00    +0.000 A 
ATOM     19  C   UNL     1      44.747   3.170   9.249  0.00  0.00    +0.000 A 
ATOM     20  N   UNL     1      45.139   1.879   9.259  0.00  0.00    +0.000 NA
ATOM     21  C   UNL     1      46.032   1.504   8.313  0.00  0.00    +0.000 A 
BRANCH  16  23
ATOM     22  N   UNL     1      48.736   2.524   6.293  0.00  0.00    +0.000 N 
ATOM     23  C   UNL     1      47.563   1.836   6.423  0.00  0.00    +0.000 C 
ATOM     24  O   UNL     1      47.366   0.797   5.808  0.00  0.00    +0.000 OA
ATOM     25  H   UNL     1      49.454   2.074   5.738  0.00  0.00    +0.000 HD
ATOM     26  H   UNL     1      49.036   3.216   6.966  0.00  0.00    +0.000 HD
ENDBRANCH  16  23
ENDBRANCH  15  19
ENDBRANCH   1  15
TORSDOF 5
ENDMDL
MODEL 5
REMARK VINA RESULT:    -7.744      3.528      7.073
REMARK INTER + INTRA:         -10.839
REMARK INTER:                 -10.032
REMARK INTRA:                  -0.807
REMARK UNBOUND:                -0.831
REMARK  Name = 
REMARK  5 active torsions:
REMARK  status: ('A' for Active; 'I' for Inactive)
REMARK    1  A    between atoms: C_2  and  C_4
REMARK    2  A    between atoms: C_7  and  O_8
REMARK    3  A    between atoms: O_8  and  C_9
REMARK    4  A    between atoms: C_9  and  C_10
REMARK    5  A    between atoms: C_15  and  C_16
REMARK                            x       y       z     vdW  Elec       q    Type
REMARK                         _______ _______ _______ _____ _____    ______ ____
ROOT
ATOM      1  C   UNL     1      44.719   6.599  10.973  0.00  0.00    +0.000 C 
ENDROOT
BRANCH   1   2
ATOM      2  C   UNL     1      44.569   5.146  10.582  0.00  0.00    +0.000 A 
ATOM      3  C   UNL     1      43.776   4.292  11.353  0.00  0.00    +0.000 A 
ATOM      4  C   UNL     1      43.672   2.952  11.008  0.00  0.00    +0.000 A 
ATOM      5  F   UNL     1      42.910   2.140  11.752  0.00  0.00    +0.000 F 
ATOM      6  C   UNL     1      44.350   2.433   9.906  0.00  0.00    +0.000 A 
ATOM      7  C   UNL     1      45.182   3.251   9.125  0.00  0.00    +0.000 A 
ATOM      8  C   UNL     1      45.281   4.607   9.495  0.00  0.00    +0.000 A 
BRANCH   7   9
ATOM      9  C   UNL     1      45.948   2.717   7.973  0.00  0.00    +0.000 A 
ATOM     10  C   UNL     1      46.207   3.506   6.836  0.00  0.00    +0.000 A 
ATOM     11  C   UNL     1      46.970   3.022   5.769  0.00  0.00    +0.000 A 
ATOM     12  C   UNL     1      47.477   1.728   5.806  0.00  0.00    +0.000 A 
ATOM     13  C   UNL     1      47.220   0.919   6.908  0.00  0.00    +0.000 A 
ATOM     14  C   UNL     1      46.468   1.411   7.980  0.00  0.00    +0.000 A 
ENDBRANCH   7   9
ENDBRANCH   1   2
BRANCH   1  15
ATOM     15  O   UNL     1      44.652   6.738  12.397  0.00  0.00    +0.000 OA
BRANCH  15  19
ATOM     16  C   UNL     1      48.399   7.153  14.041  0.00  0.00    +0.000 A 
ATOM     17  C   UNL     1      47.849   5.877  13.890  0.00  0.00    +0.000 A 
ATOM     18  C   UNL     1      46.572   5.751  13.342  0.00  0.00    +0.000 A 
ATOM     19  C   UNL     1      45.898   6.902  12.963  0.00  0.00    +0.000 A 
ATOM     20  N   UNL     1      46.399   8.146  13.114  0.00  0.00    +0.000 NA
ATOM     21  C   UNL     1      47.634   8.245  13.660  0.00  0.00    +0.000 A 
BRANCH  16  23
ATOM     22  N   UNL     1      50.745   7.669  13.693  0.00  0.00    +0.000 N 
ATOM     23  C   UNL     1      49.746   7.402  14.586  0.00  0.00    +0.000 C 
ATOM     24  O   UNL     1      49.954   7.413  15.792  0.00  0.00    +0.000 OA
ATOM     25  H   UNL     1      51.628   7.964  14.092  0.00  0.00    +0.000 HD
ATOM     26  H   UNL     1      50.558   7.929  12.734  0.00  0.00    +0.000 HD
ENDBRANCH  16  23
ENDBRANCH  15  19
ENDBRANCH   1  15
TORSDOF 5
ENDMDL
MODEL 6
REMARK VINA RESULT:    -7.713      3.444      7.287
REMARK INTER + INTRA:         -10.799
REMARK INTER:                 -10.348
REMARK INTRA:                  -0.451
REMARK UNBOUND:                -0.831
REMARK  Name = 
REMARK  5 active torsions:
REMARK  status: ('A' for Active; 'I' for Inactive)
REMARK    1  A    between atoms: C_2  and  C_4
REMARK    2  A    between atoms: C_7  and  O_8
REMARK    3  A    between atoms: O_8  and  C_9
REMARK    4  A    between atoms: C_9  and  C_10
REMARK    5  A    between atoms: C_15  and  C_16
REMARK                            x       y       z     vdW  Elec       q    Type
REMARK                         _______ _______ _______ _____ _____    ______ ____
ROOT
ATOM      1  C   UNL     1      45.125   6.415  11.322  0.00  0.00    +0.000 C 
ENDROOT
BRANCH   1   2
ATOM      2  C   UNL     1      44.829   5.031  10.789  0.00  0.00    +0.000 A 
ATOM      3  C   UNL     1      43.928   4.201  11.461  0.00  0.00    +0.000 A 
ATOM      4  C   UNL     1      43.688   2.919  10.986  0.00  0.00    +0.000 A 
ATOM      5  F   UNL     1      42.823   2.130  11.636  0.00  0.00    +0.000 F 
ATOM      6  C   UNL     1      44.333   2.436   9.849  0.00  0.00    +0.000 A 
ATOM      7  C   UNL     1      45.269   3.227   9.163  0.00  0.00    +0.000 A 
ATOM      8  C   UNL     1      45.505   4.523   9.665  0.00  0.00    +0.000 A 
BRANCH   7   9
ATOM      9  C   UNL     1      46.000   2.725   7.976  0.00  0.00    +0.000 A 
ATOM     10  C   UNL     1      46.227   3.543   6.854  0.00  0.00    +0.000 A 
ATOM     11  C   UNL     1      46.959   3.088   5.752  0.00  0.00    +0.000 A 
ATOM     12  C   UNL     1      47.465   1.793   5.741  0.00  0.00    +0.000 A 
ATOM     13  C   UNL     1      47.240   0.956   6.828  0.00  0.00    +0.000 A 
ATOM     14  C   UNL     1      46.520   1.419   7.934  0.00  0.00    +0.000 A 
ENDBRANCH   7   9
ENDBRANCH   1   2
BRANCH   1  15
ATOM     15  O   UNL     1      46.541   6.623  11.400  0.00  0.00    +0.000 OA
BRANCH  15  19
ATOM     16  C   UNL     1      48.033   5.812  15.146  0.00  0.00    +0.000 A 
ATOM     17  C   UNL     1      48.437   6.970  14.479  0.00  0.00    +0.000 A 
ATOM     18  C   UNL     1      47.933   7.228  13.202  0.00  0.00    +0.000 A 
ATOM     19  C   UNL     1      47.042   6.321  12.648  0.00  0.00    +0.000 A 
ATOM     20  N   UNL     1      46.648   5.188  13.265  0.00  0.00    +0.000 NA
ATOM     21  C   UNL     1      47.161   4.952  14.496  0.00  0.00    +0.000 A 
BRANCH  16  23
ATOM     22  N   UNL     1      47.680   5.815  17.548  0.00  0.00    +0.000 N 
ATOM     23  C   UNL     1      48.483   5.452  16.503  0.00  0.00    +0.000 C 
ATOM     24  O   UNL     1      49.512   4.817  16.687  0.00  0.00    +0.000 OA
ATOM     25  H   UNL     1      47.940   5.446  18.454  0.00  0.00    +0.000 HD
ATOM     26  H   UNL     1      46.717   6.093  17.419  0.00  0.00    +0.000 HD
ENDBRANCH  16  23
ENDBRANCH  15  19
ENDBRANCH   1  15
TORSDOF 5
ENDMDL
MODEL 7
REMARK VINA RESULT:    -7.572      4.219      7.524
REMARK INTER + INTRA:         -10.616
REMARK INTER:                  -9.817
REMARK INTRA:                  -0.799
REMARK UNBOUND:                -0.831
REMARK  Name = 
REMARK  5 active torsions:
REMARK  status: ('A' for Active; 'I' for Inactive)
REMARK    1  A    between atoms: C_2  and  C_4
REMARK    2  A    between atoms: C_7  and  O_8
REMARK    3  A    between atoms: O_8  and  C_9
REMARK    4  A    between atoms: C_9  and  C_10
REMARK    5  A    between atoms: C_15  and  C_16
REMARK                            x       y       z     vdW  Elec       q    Type
REMARK                         _______ _______ _______ _____ _____    ______ ____
ROOT
ATOM      1  C   UNL     1      46.243   6.970  12.888  0.00  0.00    +0.000 C 
ENDROOT
BRANCH   1   2
ATOM      2  C   UNL     1      45.304   6.174  12.010  0.00  0.00    +0.000 A 
ATOM      3  C   UNL     1      43.930   6.183  12.266  0.00  0.00    +0.000 A 
ATOM      4  C   UNL     1      43.078   5.421  11.478  0.00  0.00    +0.000 A 
ATOM      5  F   UNL     1      41.763   5.436  11.732  0.00  0.00    +0.000 F 
ATOM      6  C   UNL     1      43.565   4.638  10.434  0.00  0.00    +0.000 A 
ATOM      7  C   UNL     1      44.942   4.576  10.164  0.00  0.00    +0.000 A 
ATOM      8  C   UNL     1      45.792   5.351  10.980  0.00  0.00    +0.000 A 
BRANCH   7   9
ATOM      9  C   UNL     1      45.492   3.720   9.087  0.00  0.00    +0.000 A 
ATOM     10  C   UNL     1      46.077   4.277   7.934  0.00  0.00    +0.000 A 
ATOM     11  C   UNL     1      46.640   3.473   6.938  0.00  0.00    +0.000 A 
ATOM     12  C   UNL     1      46.614   2.088   7.064  0.00  0.00    +0.000 A 
ATOM     13  C   UNL     1      46.024   1.510   8.183  0.00  0.00    +0.000 A 
ATOM     14  C   UNL     1      45.475   2.318   9.184  0.00  0.00    +0.000 A 
ENDBRANCH   7   9
ENDBRANCH   1   2
BRANCH   1  15
ATOM     15  O   UNL     1      47.502   6.296  13.005  0.00  0.00    +0.000 OA
BRANCH  15  19
ATOM     16  C   UNL     1      48.074   4.648  16.730  0.00  0.00    +0.000 A 
ATOM     17  C   UNL     1      47.171   4.055  15.844  0.00  0.00    +0.000 A 
ATOM     18  C   UNL     1      46.976   4.631  14.588  0.00  0.00    +0.000 A 
ATOM     19  C   UNL     1      47.695   5.772  14.266  0.00  0.00    +0.000 A 
ATOM     20  N   UNL     1      48.560   6.374  15.108  0.00  0.00    +0.000 NA
ATOM     21  C   UNL     1      48.722   5.805  16.326  0.00  0.00    +0.000 A 
BRANCH  16  23
ATOM     22  N   UNL     1      47.737   4.692  19.133  0.00  0.00    +0.000 N 
ATOM     23  C   UNL     1      48.373   4.113  18.071  0.00  0.00    +0.000 C 
ATOM     24  O   UNL     1      49.126   3.161  18.225  0.00  0.00    +0.000 OA
ATOM     25  H   UNL     1      47.856   4.228  20.026  0.00  0.00    +0.000 HD
ATOM     26  H   UNL     1      46.925   5.283  19.021  0.00  0.00    +0.000 HD
ENDBRANCH  16  23
ENDBRANCH  15  19
ENDBRANCH   1  15
TORSDOF 5
ENDMDL
MODEL 8
REMARK VINA RESULT:    -6.804      5.116      8.311
REMARK INTER + INTRA:          -9.624
REMARK INTER:                  -8.847
REMARK INTRA:                  -0.778
REMARK UNBOUND:                -0.831
REMARK  Name = 
REMARK  5 active torsions:
REMARK  status: ('A' for Active; 'I' for Inactive)
REMARK    1  A    between atoms: C_2  and  C_4
REMARK    2  A    between atoms: C_7  and  O_8
REMARK    3  A    between atoms: O_8  and  C_9
REMARK    4  A    between atoms: C_9  and  C_10
REMARK    5  A    between atoms: C_15  and  C_16
REMARK                            x       y       z     vdW  Elec       q    Type
REMARK                         _______ _______ _______ _____ _____    ______ ____
ROOT
ATOM      1  C   UNL     1      48.250   7.204  13.999  0.00  0.00    +0.000 C 
ENDROOT
BRANCH   1   2
ATOM      2  C   UNL     1      47.091   7.296  13.033  0.00  0.00    +0.000 A 
ATOM      3  C   UNL     1      46.304   8.451  12.992  0.00  0.00    +0.000 A 
ATOM      4  C   UNL     1      45.220   8.514  12.128  0.00  0.00    +0.000 A 
ATOM      5  F   UNL     1      44.472   9.625  12.096  0.00  0.00    +0.000 F 
ATOM      6  C   UNL     1      44.893   7.444  11.299  0.00  0.00    +0.000 A 
ATOM      7  C   UNL     1      45.638   6.254  11.332  0.00  0.00    +0.000 A 
ATOM      8  C   UNL     1      46.730   6.206  12.222  0.00  0.00    +0.000 A 
BRANCH   7   9
ATOM      9  C   UNL     1      45.287   5.085  10.492  0.00  0.00    +0.000 A 
ATOM     10  C   UNL     1      45.618   5.039   9.124  0.00  0.00    +0.000 A 
ATOM     11  C   UNL     1      45.331   3.918   8.340  0.00  0.00    +0.000 A 
ATOM     12  C   UNL     1      44.688   2.821   8.902  0.00  0.00    +0.000 A 
ATOM     13  C   UNL     1      44.332   2.846  10.247  0.00  0.00    +0.000 A 
ATOM     14  C   UNL     1      44.633   3.964  11.032  0.00  0.00    +0.000 A 
ENDBRANCH   7   9
ENDBRANCH   1   2
BRANCH   1  15
ATOM     15  O   UNL     1      48.466   5.841  14.385  0.00  0.00    +0.000 OA
BRANCH  15  19
ATOM     16  C   UNL     1      48.146   5.218  18.438  0.00  0.00    +0.000 A 
ATOM     17  C   UNL     1      47.468   4.374  17.555  0.00  0.00    +0.000 A 
ATOM     18  C   UNL     1      47.575   4.604  16.182  0.00  0.00    +0.000 A 
ATOM     19  C   UNL     1      48.358   5.663  15.748  0.00  0.00    +0.000 A 
ATOM     20  N   UNL     1      49.009   6.502  16.580  0.00  0.00    +0.000 NA
ATOM     21  C   UNL     1      48.879   6.268  17.908  0.00  0.00    +0.000 A 
BRANCH  16  23
ATOM     22  N   UNL     1      48.558   3.863  20.409  0.00  0.00    +0.000 N 
ATOM     23  C   UNL     1      48.121   5.055  19.903  0.00  0.00    +0.000 C 
ATOM     24  O   UNL     1      47.767   5.965  20.641  0.00  0.00    +0.000 OA
ATOM     25  H   UNL     1      48.656   3.820  21.416  0.00  0.00    +0.000 HD
ATOM     26  H   UNL     1      49.098   3.208  19.861  0.00  0.00    +0.000 HD
ENDBRANCH  16  23
ENDBRANCH  15  19
ENDBRANCH   1  15
TORSDOF 5
ENDMDL
MODEL 9
REMARK VINA RESULT:    -6.517      5.461      8.021
REMARK INTER + INTRA:          -9.253
REMARK INTER:                  -8.386
REMARK INTRA:                  -0.866
REMARK UNBOUND:                -0.831
REMARK  Name = 
REMARK  5 active torsions:
REMARK  status: ('A' for Active; 'I' for Inactive)
REMARK    1  A    between atoms: C_2  and  C_4
REMARK    2  A    between atoms: C_7  and  O_8
REMARK    3  A    between atoms: O_8  and  C_9
REMARK    4  A    between atoms: C_9  and  C_10
REMARK    5  A    between atoms: C_15  and  C_16
REMARK                            x       y       z     vdW  Elec       q    Type
REMARK                         _______ _______ _______ _____ _____    ______ ____
ROOT
ATOM      1  C   UNL     1      48.884   6.821  15.745  0.00  0.00    +0.000 C 
ENDROOT
BRANCH   1   2
ATOM      2  C   UNL     1      48.437   6.818  14.300  0.00  0.00    +0.000 A 
ATOM      3  C   UNL     1      49.148   7.553  13.347  0.00  0.00    +0.000 A 
ATOM      4  C   UNL     1      48.711   7.573  12.030  0.00  0.00    +0.000 A 
ATOM      5  F   UNL     1      49.398   8.280  11.122  0.00  0.00    +0.000 F 
ATOM      6  C   UNL     1      47.570   6.878  11.634  0.00  0.00    +0.000 A 
ATOM      7  C   UNL     1      46.810   6.154  12.567  0.00  0.00    +0.000 A 
ATOM      8  C   UNL     1      47.265   6.151  13.902  0.00  0.00    +0.000 A 
BRANCH   7   9
ATOM      9  C   UNL     1      45.570   5.440  12.184  0.00  0.00    +0.000 A 
ATOM     10  C   UNL     1      45.170   5.335  10.838  0.00  0.00    +0.000 A 
ATOM     11  C   UNL     1      44.027   4.621  10.468  0.00  0.00    +0.000 A 
ATOM     12  C   UNL     1      43.243   4.009  11.441  0.00  0.00    +0.000 A 
ATOM     13  C   UNL     1      43.603   4.113  12.780  0.00  0.00    +0.000 A 
ATOM     14  C   UNL     1      44.756   4.816  13.145  0.00  0.00    +0.000 A 
ENDBRANCH   7   9
ENDBRANCH   1   2
BRANCH   1  15
ATOM     15  O   UNL     1      48.282   5.730  16.452  0.00  0.00    +0.000 OA
BRANCH  15  19
ATOM     16  C   UNL     1      51.054   2.899  17.554  0.00  0.00    +0.000 A 
ATOM     17  C   UNL     1      51.383   4.254  17.634  0.00  0.00    +0.000 A 
ATOM     18  C   UNL     1      50.438   5.205  17.246  0.00  0.00    +0.000 A 
ATOM     19  C   UNL     1      49.202   4.764  16.798  0.00  0.00    +0.000 A 
ATOM     20  N   UNL     1      48.865   3.461  16.695  0.00  0.00    +0.000 NA
ATOM     21  C   UNL     1      49.803   2.557  17.064  0.00  0.00    +0.000 A 
BRANCH  16  23
ATOM     22  N   UNL     1      51.652   0.547  17.548  0.00  0.00    +0.000 N 
ATOM     23  C   UNL     1      51.965   1.813  17.957  0.00  0.00    +0.000 C 
ATOM     24  O   UNL     1      52.984   2.038  18.596  0.00  0.00    +0.000 OA
ATOM     25  H   UNL     1      52.355  -0.161  17.723  0.00  0.00    +0.000 HD
ATOM     26  H   UNL     1      50.985   0.366  16.811  0.00  0.00    +0.000 HD
ENDBRANCH  16  23
ENDBRANCH  15  19
ENDBRANCH   1  15
TORSDOF 5
ENDMDL
