MODEL 1
REMARK VINA RESULT:    -7.598      0.000      0.000
REMARK INTER + INTRA:         -11.995
REMARK INTER:                 -10.707
REMARK INTRA:                  -1.288
REMARK UNBOUND:                -1.288
REMARK  Name = 
REMARK  9 active torsions:
REMARK  status: ('A' for Active; 'I' for Inactive)
REMARK    1  A    between atoms: C_1  and  C_2
REMARK    2  A    between atoms: C_2  and  N_3
REMARK    3  A    between atoms: C_2  and  C_26
REMARK    4  A    between atoms: N_3  and  C_4
REMARK    5  A    between atoms: C_4  and  C_5
REMARK    6  A    between atoms: C_8  and  C_9
REMARK    7  A    between atoms: C_9  and  N_10
REMARK    8  A    between atoms: N_10  and  C_11
REMARK    9  A    between atoms: C_12  and  C_14
REMARK                            x       y       z     vdW  Elec       q    Type
REMARK                         _______ _______ _______ _____ _____    ______ ____
ROOT
ATOM      1  C   UNL     1      45.649   5.804  12.013  0.00  0.00    +0.000 A 
ATOM      2  C   UNL     1      46.035   5.362  13.285  0.00  0.00    +0.000 A 
ATOM      3  C   UNL     1      47.249   5.771  13.851  0.00  0.00    +0.000 A 
ATOM      4  C   UNL     1      48.099   6.652  13.170  0.00  0.00    +0.000 A 
ATOM      5  C   UNL     1      47.753   7.035  11.867  0.00  0.00    +0.000 A 
ATOM      6  C   UNL     1      46.541   6.617  11.297  0.00  0.00    +0.000 A 
ENDROOT
BRANCH   1   7
ATOM      7  C   UNL     1      44.317   5.393  11.413  0.00  0.00    +0.000 C 
BRANCH   7   8
ATOM      8  N   UNL     1      44.416   5.101   9.981  0.00  0.00    +0.000 NA
ATOM      9  H   UNL     1      43.774   5.710   9.476  0.00  0.00    +0.000 HD
BRANCH   8  11
ATOM     10  C   UNL     1      43.871   2.824  10.861  0.00  0.00    +0.000 C 
ATOM     11  C   UNL     1      44.088   3.705   9.625  0.00  0.00    +0.000 C 
BRANCH  11  12
ATOM     12  C   UNL     1      45.186   3.101   8.761  0.00  0.00    +0.000 A 
ATOM     13  C   UNL     1      45.958   3.875   7.884  0.00  0.00    +0.000 A 
ATOM     14  C   UNL     1      46.932   3.271   7.091  0.00  0.00    +0.000 A 
ATOM     15  C   UNL     1      47.127   1.909   7.216  0.00  0.00    +0.000 A 
ATOM     16  N   UNL     1      46.434   1.129   8.073  0.00  0.00    +0.000 NA
ATOM     17  C   UNL     1      45.487   1.741   8.825  0.00  0.00    +0.000 A 
ENDBRANCH  11  12
ENDBRANCH   8  11
ENDBRANCH   7   8
ENDBRANCH   1   7
BRANCH   4  18
ATOM     18  C   UNL     1      49.279   7.292  13.876  0.00  0.00    +0.000 C 
BRANCH  18  19
ATOM     19  N   UNL     1      49.086   7.656  15.279  0.00  0.00    +0.000 N 
ATOM     20  C   UNL     1      48.315   8.862  15.547  0.00  0.00    +0.000 C 
ATOM     21  C   UNL     1      49.866   6.981  16.239  0.00  0.00    +0.000 C 
ATOM     22  O   UNL     1      50.637   6.083  15.922  0.00  0.00    +0.000 OA
BRANCH  21  23
ATOM     23  C   UNL     1      49.718   7.342  17.663  0.00  0.00    +0.000 A 
ATOM     24  C   UNL     1      50.397   8.381  18.280  0.00  0.00    +0.000 A 
ATOM     25  S   UNL     1      50.012   8.579  19.927  0.00  0.00    +0.000 S 
ATOM     26  C   UNL     1      48.802   7.384  19.835  0.00  0.00    +0.000 A 
ATOM     27  N   UNL     1      48.010   7.128  20.905  0.00  0.00    +0.000 NA
ATOM     28  C   UNL     1      47.107   6.228  20.685  0.00  0.00    +0.000 A 
ATOM     29  N   UNL     1      46.961   5.540  19.507  0.00  0.00    +0.000 N 
ATOM     30  C   UNL     1      47.830   5.674  18.442  0.00  0.00    +0.000 A 
ATOM     31  O   UNL     1      47.804   4.878  17.513  0.00  0.00    +0.000 OA
ATOM     32  C   UNL     1      48.779   6.762  18.599  0.00  0.00    +0.000 A 
ATOM     33  H   UNL     1      46.282   4.797  19.429  0.00  0.00    +0.000 HD
ENDBRANCH  21  23
ENDBRANCH  18  19
ENDBRANCH   4  18
TORSDOF 7
ENDMDL
MODEL 2
REMARK VINA RESULT:    -7.082      1.859      2.177
REMARK INTER + INTRA:         -11.267
REMARK INTER:                 -10.161
REMARK INTRA:                  -1.107
REMARK UNBOUND:                -1.288
REMARK  Name = 
REMARK  9 active torsions:
REMARK  status: ('A' for Active; 'I' for Inactive)
REMARK    1  A    between atoms: C_1  and  C_2
REMARK    2  A    between atoms: C_2  and  N_3
REMARK    3  A    between atoms: C_2  and  C_26
REMARK    4  A    between atoms: N_3  and  C_4
REMARK    5  A    between atoms: C_4  and  C_5
REMARK    6  A    between atoms: C_8  and  C_9
REMARK    7  A    between atoms: C_9  and  N_10
REMARK    8  A    between atoms: N_10  and  C_11
REMARK    9  A    between atoms: C_12  and  C_14
REMARK                            x       y       z     vdW  Elec       q    Type
REMARK                         _______ _______ _______ _____ _____    ______ ____
ROOT
ATOM      1  C   UNL     1      45.637   6.582  12.484  0.00  0.00    +0.000 A 
ATOM      2  C   UNL     1      46.515   5.507  12.680  0.00  0.00    +0.000 A 
ATOM      3  C   UNL     1      47.728   5.684  13.356  0.00  0.00    +0.000 A 
ATOM      4  C   UNL     1      48.087   6.935  13.875  0.00  0.00    +0.000 A 
ATOM      5  C   UNL     1      47.249   8.027  13.615  0.00  0.00    +0.000 A 
ATOM      6  C   UNL     1      46.037   7.851  12.929  0.00  0.00    +0.000 A 
ENDROOT
BRANCH   1   7
ATOM      7  C   UNL     1      44.305   6.385  11.785  0.00  0.00    +0.000 C 
BRANCH   7   8
ATOM      8  N   UNL     1      44.463   5.945  10.396  0.00  0.00    +0.000 NA
ATOM      9  H   UNL     1      44.054   6.646   9.781  0.00  0.00    +0.000 HD
BRANCH   8  11
ATOM     10  C   UNL     1      43.394   3.902  11.367  0.00  0.00    +0.000 C 
ATOM     11  C   UNL     1      43.817   4.650  10.097  0.00  0.00    +0.000 C 
BRANCH  11  12
ATOM     12  C   UNL     1      44.744   3.766   9.275  0.00  0.00    +0.000 A 
ATOM     13  C   UNL     1      45.568   4.282   8.266  0.00  0.00    +0.000 A 
ATOM     14  C   UNL     1      46.378   3.428   7.520  0.00  0.00    +0.000 A 
ATOM     15  C   UNL     1      46.364   2.080   7.823  0.00  0.00    +0.000 A 
ATOM     16  N   UNL     1      45.616   1.543   8.811  0.00  0.00    +0.000 NA
ATOM     17  C   UNL     1      44.831   2.395   9.513  0.00  0.00    +0.000 A 
ENDBRANCH  11  12
ENDBRANCH   8  11
ENDBRANCH   7   8
ENDBRANCH   1   7
BRANCH   4  18
ATOM     18  C   UNL     1      49.266   7.074  14.819  0.00  0.00    +0.000 C 
BRANCH  18  19
ATOM     19  N   UNL     1      48.963   7.105  16.249  0.00  0.00    +0.000 N 
ATOM     20  C   UNL     1      49.019   8.404  16.905  0.00  0.00    +0.000 C 
ATOM     21  C   UNL     1      48.904   5.872  16.929  0.00  0.00    +0.000 C 
ATOM     22  O   UNL     1      49.043   4.807  16.338  0.00  0.00    +0.000 OA
BRANCH  21  23
ATOM     23  C   UNL     1      48.627   5.867  18.379  0.00  0.00    +0.000 A 
ATOM     24  C   UNL     1      47.375   6.083  18.935  0.00  0.00    +0.000 A 
ATOM     25  S   UNL     1      47.349   5.999  20.635  0.00  0.00    +0.000 S 
ATOM     26  C   UNL     1      48.979   5.511  20.682  0.00  0.00    +0.000 A 
ATOM     27  N   UNL     1      49.560   5.175  21.860  0.00  0.00    +0.000 NA
ATOM     28  C   UNL     1      50.788   4.783  21.747  0.00  0.00    +0.000 A 
ATOM     29  N   UNL     1      51.488   4.742  20.568  0.00  0.00    +0.000 N 
ATOM     30  C   UNL     1      50.977   5.202  19.371  0.00  0.00    +0.000 A 
ATOM     31  O   UNL     1      51.710   5.366  18.403  0.00  0.00    +0.000 OA
ATOM     32  C   UNL     1      49.564   5.531  19.428  0.00  0.00    +0.000 A 
ATOM     33  H   UNL     1      52.467   4.497  20.563  0.00  0.00    +0.000 HD
ENDBRANCH  21  23
ENDBRANCH  18  19
ENDBRANCH   4  18
TORSDOF 7
ENDMDL
MODEL 3
REMARK VINA RESULT:    -7.059      3.821      4.563
REMARK INTER + INTRA:         -11.236
REMARK INTER:                 -10.087
REMARK INTRA:                  -1.149
REMARK UNBOUND:                -1.288
REMARK  Name = 
REMARK  9 active torsions:
REMARK  status: ('A' for Active; 'I' for Inactive)
REMARK    1  A    between atoms: C_1  and  C_2
REMARK    2  A    between atoms: C_2  and  N_3
REMARK    3  A    between atoms: C_2  and  C_26
REMARK    4  A    between atoms: N_3  and  C_4
REMARK    5  A    between atoms: C_4  and  C_5
REMARK    6  A    between atoms: C_8  and  C_9
REMARK    7  A    between atoms: C_9  and  N_10
REMARK    8  A    between atoms: N_10  and  C_11
REMARK    9  A    between atoms: C_12  and  C_14
REMARK                            x       y       z     vdW  Elec       q    Type
REMARK                         _______ _______ _______ _____ _____    ______ ____
ROOT
ATOM      1  C   UNL     1      47.017   4.673  14.319  0.00  0.00    +0.000 A 
ATOM      2  C   UNL     1      47.639   5.924  14.218  0.00  0.00    +0.000 A 
ATOM      3  C   UNL     1      48.321   6.478  15.308  0.00  0.00    +0.000 A 
ATOM      4  C   UNL     1      48.420   5.785  16.523  0.00  0.00    +0.000 A 
ATOM      5  C   UNL     1      47.735   4.570  16.651  0.00  0.00    +0.000 A 
ATOM      6  C   UNL     1      47.043   4.020  15.561  0.00  0.00    +0.000 A 
ENDROOT
BRANCH   1   7
ATOM      7  C   UNL     1      46.308   4.053  13.129  0.00  0.00    +0.000 C 
BRANCH   7   8
ATOM      8  N   UNL     1      45.459   5.015  12.422  0.00  0.00    +0.000 NA
ATOM      9  H   UNL     1      45.041   5.647  13.103  0.00  0.00    +0.000 HD
BRANCH   8  11
ATOM     10  C   UNL     1      43.818   3.131  12.317  0.00  0.00    +0.000 C 
ATOM     11  C   UNL     1      44.363   4.397  11.647  0.00  0.00    +0.000 C 
BRANCH  11  12
ATOM     12  C   UNL     1      44.827   4.064  10.236  0.00  0.00    +0.000 A 
ATOM     13  C   UNL     1      44.624   2.802   9.661  0.00  0.00    +0.000 A 
ATOM     14  C   UNL     1      45.093   2.535   8.377  0.00  0.00    +0.000 A 
ATOM     15  C   UNL     1      45.732   3.549   7.688  0.00  0.00    +0.000 A 
ATOM     16  N   UNL     1      45.917   4.791   8.186  0.00  0.00    +0.000 NA
ATOM     17  C   UNL     1      45.459   5.019   9.440  0.00  0.00    +0.000 A 
ENDBRANCH  11  12
ENDBRANCH   8  11
ENDBRANCH   7   8
ENDBRANCH   1   7
BRANCH   4  18
ATOM     18  C   UNL     1      49.364   6.260  17.611  0.00  0.00    +0.000 C 
BRANCH  18  19
ATOM     19  N   UNL     1      50.341   5.290  18.102  0.00  0.00    +0.000 N 
ATOM     20  C   UNL     1      50.127   4.761  19.442  0.00  0.00    +0.000 C 
ATOM     21  C   UNL     1      51.537   5.143  17.370  0.00  0.00    +0.000 C 
ATOM     22  O   UNL     1      51.730   5.760  16.329  0.00  0.00    +0.000 OA
BRANCH  21  23
ATOM     23  C   UNL     1      52.558   4.192  17.852  0.00  0.00    +0.000 A 
ATOM     24  C   UNL     1      53.740   4.566  18.474  0.00  0.00    +0.000 A 
ATOM     25  S   UNL     1      54.720   3.254  18.942  0.00  0.00    +0.000 S 
ATOM     26  C   UNL     1      53.524   2.135  18.476  0.00  0.00    +0.000 A 
ATOM     27  N   UNL     1      53.699   0.810  18.706  0.00  0.00    +0.000 NA
ATOM     28  C   UNL     1      52.697   0.078  18.341  0.00  0.00    +0.000 A 
ATOM     29  N   UNL     1      51.564   0.554  17.732  0.00  0.00    +0.000 N 
ATOM     30  C   UNL     1      51.405   1.873  17.359  0.00  0.00    +0.000 A 
ATOM     31  O   UNL     1      50.492   2.204  16.613  0.00  0.00    +0.000 OA
ATOM     32  C   UNL     1      52.448   2.750  17.862  0.00  0.00    +0.000 A 
ATOM     33  H   UNL     1      50.853  -0.084  17.405  0.00  0.00    +0.000 HD
ENDBRANCH  21  23
ENDBRANCH  18  19
ENDBRANCH   4  18
TORSDOF 7
ENDMDL
MODEL 4
REMARK VINA RESULT:    -6.809      2.122      2.741
REMARK INTER + INTRA:         -10.883
REMARK INTER:                  -9.488
REMARK INTRA:                  -1.394
REMARK UNBOUND:                -1.288
REMARK  Name = 
REMARK  9 active torsions:
REMARK  status: ('A' for Active; 'I' for Inactive)
REMARK    1  A    between atoms: C_1  and  C_2
REMARK    2  A    between atoms: C_2  and  N_3
REMARK    3  A    between atoms: C_2  and  C_26
REMARK    4  A    between atoms: N_3  and  C_4
REMARK    5  A    between atoms: C_4  and  C_5
REMARK    6  A    between atoms: C_8  and  C_9
REMARK    7  A    between atoms: C_9  and  N_10
REMARK    8  A    between atoms: N_10  and  C_11
REMARK    9  A    between atoms: C_12  and  C_14
REMARK                            x       y       z     vdW  Elec       q    Type
REMARK                         _______ _______ _______ _____ _____    ______ ____
ROOT
ATOM      1  C   UNL     1      45.315   6.758  11.997  0.00  0.00    +0.000 A 
ATOM      2  C   UNL     1      46.617   6.356  11.671  0.00  0.00    +0.000 A 
ATOM      3  C   UNL     1      47.688   7.255  11.750  0.00  0.00    +0.000 A 
ATOM      4  C   UNL     1      47.490   8.574  12.179  0.00  0.00    +0.000 A 
ATOM      5  C   UNL     1      46.180   9.001  12.432  0.00  0.00    +0.000 A 
ATOM      6  C   UNL     1      45.106   8.102  12.344  0.00  0.00    +0.000 A 
ENDROOT
BRANCH   1   7
ATOM      7  C   UNL     1      44.159   5.777  11.948  0.00  0.00    +0.000 C 
BRANCH   7   8
ATOM      8  N   UNL     1      43.796   5.409  10.577  0.00  0.00    +0.000 NA
ATOM      9  H   UNL     1      42.890   5.821  10.356  0.00  0.00    +0.000 HD
BRANCH   8  11
ATOM     10  C   UNL     1      43.854   3.148  11.644  0.00  0.00    +0.000 C 
ATOM     11  C   UNL     1      43.697   3.953  10.349  0.00  0.00    +0.000 C 
BRANCH  11  12
ATOM     12  C   UNL     1      44.743   3.497   9.341  0.00  0.00    +0.000 A 
ATOM     13  C   UNL     1      45.086   2.149   9.177  0.00  0.00    +0.000 A 
ATOM     14  C   UNL     1      46.071   1.783   8.262  0.00  0.00    +0.000 A 
ATOM     15  C   UNL     1      46.671   2.778   7.513  0.00  0.00    +0.000 A 
ATOM     16  N   UNL     1      46.348   4.086   7.609  0.00  0.00    +0.000 NA
ATOM     17  C   UNL     1      45.394   4.413   8.514  0.00  0.00    +0.000 A 
ENDBRANCH  11  12
ENDBRANCH   8  11
ENDBRANCH   7   8
ENDBRANCH   1   7
BRANCH   4  18
ATOM     18  C   UNL     1      48.671   9.468  12.508  0.00  0.00    +0.000 C 
BRANCH  18  19
ATOM     19  N   UNL     1      49.362   9.206  13.769  0.00  0.00    +0.000 N 
ATOM     20  C   UNL     1      48.913   9.956  14.934  0.00  0.00    +0.000 C 
ATOM     21  C   UNL     1      50.560   8.465  13.713  0.00  0.00    +0.000 C 
ATOM     22  O   UNL     1      50.980   8.005  12.657  0.00  0.00    +0.000 OA
BRANCH  21  23
ATOM     23  C   UNL     1      51.299   8.204  14.964  0.00  0.00    +0.000 A 
ATOM     24  C   UNL     1      52.446   8.882  15.348  0.00  0.00    +0.000 A 
ATOM     25  S   UNL     1      53.073   8.385  16.851  0.00  0.00    +0.000 S 
ATOM     26  C   UNL     1      51.741   7.358  17.119  0.00  0.00    +0.000 A 
ATOM     27  N   UNL     1      51.613   6.694  18.295  0.00  0.00    +0.000 NA
ATOM     28  C   UNL     1      50.536   5.983  18.381  0.00  0.00    +0.000 A 
ATOM     29  N   UNL     1      49.607   5.849  17.380  0.00  0.00    +0.000 N 
ATOM     30  C   UNL     1      49.768   6.398  16.123  0.00  0.00    +0.000 A 
ATOM     31  O   UNL     1      49.040   6.059  15.199  0.00  0.00    +0.000 OA
ATOM     32  C   UNL     1      50.897   7.306  16.024  0.00  0.00    +0.000 A 
ATOM     33  H   UNL     1      48.827   5.217  17.488  0.00  0.00    +0.000 HD
ENDBRANCH  21  23
ENDBRANCH  18  19
ENDBRANCH   4  18
TORSDOF 7
ENDMDL
MODEL 5
REMARK VINA RESULT:    -6.718      3.793      7.972
REMARK INTER + INTRA:         -10.754
REMARK INTER:                  -8.946
REMARK INTRA:                  -1.808
REMARK UNBOUND:                -1.288
REMARK  Name = 
REMARK  9 active torsions:
REMARK  status: ('A' for Active; 'I' for Inactive)
REMARK    1  A    between atoms: C_1  and  C_2
REMARK    2  A    between atoms: C_2  and  N_3
REMARK    3  A    between atoms: C_2  and  C_26
REMARK    4  A    between atoms: N_3  and  C_4
REMARK    5  A    between atoms: C_4  and  C_5
REMARK    6  A    between atoms: C_8  and  C_9
REMARK    7  A    between atoms: C_9  and  N_10
REMARK    8  A    between atoms: N_10  and  C_11
REMARK    9  A    between atoms: C_12  and  C_14
REMARK                            x       y       z     vdW  Elec       q    Type
REMARK                         _______ _______ _______ _____ _____    ______ ____
ROOT
ATOM      1  C   UNL     1      52.448   6.279  16.557  0.00  0.00    +0.000 A 
ATOM      2  C   UNL     1      51.057   6.386  16.682  0.00  0.00    +0.000 A 
ATOM      3  C   UNL     1      50.327   7.261  15.869  0.00  0.00    +0.000 A 
ATOM      4  C   UNL     1      50.966   8.038  14.893  0.00  0.00    +0.000 A 
ATOM      5  C   UNL     1      52.364   7.991  14.817  0.00  0.00    +0.000 A 
ATOM      6  C   UNL     1      53.096   7.120  15.639  0.00  0.00    +0.000 A 
ENDROOT
BRANCH   1   7
ATOM      7  C   UNL     1      53.238   5.303  17.411  0.00  0.00    +0.000 C 
BRANCH   7   8
ATOM      8  N   UNL     1      52.458   4.795  18.542  0.00  0.00    +0.000 NA
ATOM      9  H   UNL     1      52.953   5.013  19.406  0.00  0.00    +0.000 HD
BRANCH   8  11
ATOM     10  C   UNL     1      53.344   2.587  17.771  0.00  0.00    +0.000 C 
ATOM     11  C   UNL     1      52.229   3.336  18.510  0.00  0.00    +0.000 C 
BRANCH  11  12
ATOM     12  C   UNL     1      50.890   3.018  17.858  0.00  0.00    +0.000 A 
ATOM     13  C   UNL     1      49.716   3.707  18.190  0.00  0.00    +0.000 A 
ATOM     14  C   UNL     1      48.508   3.360  17.588  0.00  0.00    +0.000 A 
ATOM     15  C   UNL     1      48.511   2.349  16.647  0.00  0.00    +0.000 A 
ATOM     16  N   UNL     1      49.623   1.683  16.267  0.00  0.00    +0.000 NA
ATOM     17  C   UNL     1      50.781   2.034  16.876  0.00  0.00    +0.000 A 
ENDBRANCH  11  12
ENDBRANCH   8  11
ENDBRANCH   7   8
ENDBRANCH   1   7
BRANCH   4  18
ATOM     18  C   UNL     1      50.160   8.789  13.850  0.00  0.00    +0.000 C 
BRANCH  18  19
ATOM     19  N   UNL     1      49.095   8.044  13.181  0.00  0.00    +0.000 N 
ATOM     20  C   UNL     1      49.435   7.398  11.921  0.00  0.00    +0.000 C 
ATOM     21  C   UNL     1      47.780   8.223  13.653  0.00  0.00    +0.000 C 
ATOM     22  O   UNL     1      47.539   8.931  14.624  0.00  0.00    +0.000 OA
BRANCH  21  23
ATOM     23  C   UNL     1      46.675   7.507  12.984  0.00  0.00    +0.000 A 
ATOM     24  C   UNL     1      45.806   8.089  12.074  0.00  0.00    +0.000 A 
ATOM     25  S   UNL     1      44.641   7.017  11.446  0.00  0.00    +0.000 S 
ATOM     26  C   UNL     1      45.359   5.696  12.246  0.00  0.00    +0.000 A 
ATOM     27  N   UNL     1      44.892   4.439  12.047  0.00  0.00    +0.000 NA
ATOM     28  C   UNL     1      45.554   3.527  12.683  0.00  0.00    +0.000 A 
ATOM     29  N   UNL     1      46.607   3.773  13.526  0.00  0.00    +0.000 N 
ATOM     30  C   UNL     1      47.026   5.045  13.860  0.00  0.00    +0.000 A 
ATOM     31  O   UNL     1      47.804   5.221  14.789  0.00  0.00    +0.000 OA
ATOM     32  C   UNL     1      46.395   6.091  13.074  0.00  0.00    +0.000 A 
ATOM     33  H   UNL     1      47.030   3.020  14.048  0.00  0.00    +0.000 HD
ENDBRANCH  21  23
ENDBRANCH  18  19
ENDBRANCH   4  18
TORSDOF 7
ENDMDL
MODEL 6
REMARK VINA RESULT:    -6.413      3.419      8.762
REMARK INTER + INTRA:         -10.325
REMARK INTER:                  -9.053
REMARK INTRA:                  -1.272
REMARK UNBOUND:                -1.288
REMARK  Name = 
REMARK  9 active torsions:
REMARK  status: ('A' for Active; 'I' for Inactive)
REMARK    1  A    between atoms: C_1  and  C_2
REMARK    2  A    between atoms: C_2  and  N_3
REMARK    3  A    between atoms: C_2  and  C_26
REMARK    4  A    between atoms: N_3  and  C_4
REMARK    5  A    between atoms: C_4  and  C_5
REMARK    6  A    between atoms: C_8  and  C_9
REMARK    7  A    between atoms: C_9  and  N_10
REMARK    8  A    between atoms: N_10  and  C_11
REMARK    9  A    between atoms: C_12  and  C_14
REMARK                            x       y       z     vdW  Elec       q    Type
REMARK                         _______ _______ _______ _____ _____    ______ ____
ROOT
ATOM      1  C   UNL     1      50.025   7.996  16.528  0.00  0.00    +0.000 A 
ATOM      2  C   UNL     1      48.773   8.618  16.617  0.00  0.00    +0.000 A 
ATOM      3  C   UNL     1      47.934   8.706  15.499  0.00  0.00    +0.000 A 
ATOM      4  C   UNL     1      48.314   8.156  14.268  0.00  0.00    +0.000 A 
ATOM      5  C   UNL     1      49.596   7.602  14.156  0.00  0.00    +0.000 A 
ATOM      6  C   UNL     1      50.441   7.522  15.274  0.00  0.00    +0.000 A 
ENDROOT
BRANCH   1   7
ATOM      7  C   UNL     1      50.921   7.865  17.746  0.00  0.00    +0.000 C 
BRANCH   7   8
ATOM      8  N   UNL     1      51.182   6.468  18.100  0.00  0.00    +0.000 NA
ATOM      9  H   UNL     1      51.331   5.935  17.244  0.00  0.00    +0.000 HD
BRANCH   8  11
ATOM     10  C   UNL     1      50.584   5.102  20.108  0.00  0.00    +0.000 C 
ATOM     11  C   UNL     1      50.085   5.820  18.848  0.00  0.00    +0.000 C 
BRANCH  11  12
ATOM     12  C   UNL     1      49.344   4.829  17.962  0.00  0.00    +0.000 A 
ATOM     13  C   UNL     1      48.043   5.067  17.499  0.00  0.00    +0.000 A 
ATOM     14  C   UNL     1      47.395   4.116  16.714  0.00  0.00    +0.000 A 
ATOM     15  C   UNL     1      48.077   2.959  16.388  0.00  0.00    +0.000 A 
ATOM     16  N   UNL     1      49.344   2.703  16.779  0.00  0.00    +0.000 NA
ATOM     17  C   UNL     1      49.947   3.640  17.549  0.00  0.00    +0.000 A 
ENDBRANCH  11  12
ENDBRANCH   8  11
ENDBRANCH   7   8
ENDBRANCH   1   7
BRANCH   4  18
ATOM     18  C   UNL     1      47.314   8.025  13.135  0.00  0.00    +0.000 C 
BRANCH  18  19
ATOM     19  N   UNL     1      46.744   6.698  12.913  0.00  0.00    +0.000 N 
ATOM     20  C   UNL     1      47.585   5.555  13.243  0.00  0.00    +0.000 C 
ATOM     21  C   UNL     1      45.554   6.618  12.162  0.00  0.00    +0.000 C 
ATOM     22  O   UNL     1      44.983   7.624  11.758  0.00  0.00    +0.000 OA
BRANCH  21  23
ATOM     23  C   UNL     1      44.964   5.291  11.895  0.00  0.00    +0.000 A 
ATOM     24  C   UNL     1      44.204   4.577  12.809  0.00  0.00    +0.000 A 
ATOM     25  S   UNL     1      43.635   3.084  12.220  0.00  0.00    +0.000 S 
ATOM     26  C   UNL     1      44.248   3.412  10.665  0.00  0.00    +0.000 A 
ATOM     27  N   UNL     1      44.011   2.556   9.641  0.00  0.00    +0.000 NA
ATOM     28  C   UNL     1      44.498   2.947   8.508  0.00  0.00    +0.000 A 
ATOM     29  N   UNL     1      45.232   4.091   8.327  0.00  0.00    +0.000 N 
ATOM     30  C   UNL     1      45.610   4.918   9.366  0.00  0.00    +0.000 A 
ATOM     31  O   UNL     1      46.455   5.788   9.195  0.00  0.00    +0.000 OA
ATOM     32  C   UNL     1      44.980   4.586  10.632  0.00  0.00    +0.000 A 
ATOM     33  H   UNL     1      45.646   4.297   7.429  0.00  0.00    +0.000 HD
ENDBRANCH  21  23
ENDBRANCH  18  19
ENDBRANCH   4  18
TORSDOF 7
ENDMDL
MODEL 7
REMARK VINA RESULT:    -6.406      3.393      7.874
REMARK INTER + INTRA:         -10.316
REMARK INTER:                  -8.192
REMARK INTRA:                  -2.124
REMARK UNBOUND:                -1.288
REMARK  Name = 
REMARK  9 active torsions:
REMARK  status: ('A' for Active; 'I' for Inactive)
REMARK    1  A    between atoms: C_1  and  C_2
REMARK    2  A    between atoms: C_2  and  N_3
REMARK    3  A    between atoms: C_2  and  C_26
REMARK    4  A    between atoms: N_3  and  C_4
REMARK    5  A    between atoms: C_4  and  C_5
REMARK    6  A    between atoms: C_8  and  C_9
REMARK    7  A    between atoms: C_9  and  N_10
REMARK    8  A    between atoms: N_10  and  C_11
REMARK    9  A    between atoms: C_12  and  C_14
REMARK                            x       y       z     vdW  Elec       q    Type
REMARK                         _______ _______ _______ _____ _____    ______ ____
ROOT
ATOM      1  C   UNL     1      50.922   8.049  17.142  0.00  0.00    +0.000 A 
ATOM      2  C   UNL     1      50.347   9.309  16.929  0.00  0.00    +0.000 A 
ATOM      3  C   UNL     1      49.952   9.711  15.648  0.00  0.00    +0.000 A 
ATOM      4  C   UNL     1      50.099   8.856  14.548  0.00  0.00    +0.000 A 
ATOM      5  C   UNL     1      50.743   7.627  14.744  0.00  0.00    +0.000 A 
ATOM      6  C   UNL     1      51.148   7.228  16.027  0.00  0.00    +0.000 A 
ENDROOT
BRANCH   1   7
ATOM      7  C   UNL     1      51.318   7.595  18.536  0.00  0.00    +0.000 C 
BRANCH   7   8
ATOM      8  N   UNL     1      50.642   6.357  18.932  0.00  0.00    +0.000 NA
ATOM      9  H   UNL     1      51.012   5.588  18.376  0.00  0.00    +0.000 HD
BRANCH   8  11
ATOM     10  C   UNL     1      48.428   6.641  20.059  0.00  0.00    +0.000 C 
ATOM     11  C   UNL     1      49.177   6.384  18.747  0.00  0.00    +0.000 C 
BRANCH  11  12
ATOM     12  C   UNL     1      48.691   5.077  18.135  0.00  0.00    +0.000 A 
ATOM     13  C   UNL     1      49.574   4.065  17.736  0.00  0.00    +0.000 A 
ATOM     14  C   UNL     1      49.083   2.898  17.153  0.00  0.00    +0.000 A 
ATOM     15  C   UNL     1      47.716   2.762  17.010  0.00  0.00    +0.000 A 
ATOM     16  N   UNL     1      46.824   3.693  17.414  0.00  0.00    +0.000 NA
ATOM     17  C   UNL     1      47.330   4.821  17.968  0.00  0.00    +0.000 A 
ENDBRANCH  11  12
ENDBRANCH   8  11
ENDBRANCH   7   8
ENDBRANCH   1   7
BRANCH   4  18
ATOM     18  C   UNL     1      49.446   9.183  13.219  0.00  0.00    +0.000 C 
BRANCH  18  19
ATOM     19  N   UNL     1      48.503   8.198  12.690  0.00  0.00    +0.000 N 
ATOM     20  C   UNL     1      48.890   7.508  11.467  0.00  0.00    +0.000 C 
ATOM     21  C   UNL     1      47.204   8.182  13.236  0.00  0.00    +0.000 C 
ATOM     22  O   UNL     1      46.888   8.923  14.159  0.00  0.00    +0.000 OA
BRANCH  21  23
ATOM     23  C   UNL     1      46.218   7.219  12.707  0.00  0.00    +0.000 A 
ATOM     24  C   UNL     1      45.208   7.546  11.815  0.00  0.00    +0.000 A 
ATOM     25  S   UNL     1      44.231   6.228  11.361  0.00  0.00    +0.000 S 
ATOM     26  C   UNL     1      45.224   5.139  12.215  0.00  0.00    +0.000 A 
ATOM     27  N   UNL     1      44.988   3.805  12.154  0.00  0.00    +0.000 NA
ATOM     28  C   UNL     1      45.841   3.092  12.815  0.00  0.00    +0.000 A 
ATOM     29  N   UNL     1      46.874   3.601  13.559  0.00  0.00    +0.000 N 
ATOM     30  C   UNL     1      47.066   4.954  13.757  0.00  0.00    +0.000 A 
ATOM     31  O   UNL     1      47.847   5.354  14.611  0.00  0.00    +0.000 OA
ATOM     32  C   UNL     1      46.211   5.790  12.933  0.00  0.00    +0.000 A 
ATOM     33  H   UNL     1      47.457   2.989  14.111  0.00  0.00    +0.000 HD
ENDBRANCH  21  23
ENDBRANCH  18  19
ENDBRANCH   4  18
TORSDOF 7
ENDMDL
MODEL 8
REMARK VINA RESULT:    -6.348      5.103      8.456
REMARK INTER + INTRA:         -10.234
REMARK INTER:                  -9.612
REMARK INTRA:                  -0.621
REMARK UNBOUND:                -1.288
REMARK  Name = 
REMARK  9 active torsions:
REMARK  status: ('A' for Active; 'I' for Inactive)
REMARK    1  A    between atoms: C_1  and  C_2
REMARK    2  A    between atoms: C_2  and  N_3
REMARK    3  A    between atoms: C_2  and  C_26
REMARK    4  A    between atoms: N_3  and  C_4
REMARK    5  A    between atoms: C_4  and  C_5
REMARK    6  A    between atoms: C_8  and  C_9
REMARK    7  A    between atoms: C_9  and  N_10
REMARK    8  A    between atoms: N_10  and  C_11
REMARK    9  A    between atoms: C_12  and  C_14
REMARK                            x       y       z     vdW  Elec       q    Type
REMARK                         _______ _______ _______ _____ _____    ______ ____
ROOT
ATOM      1  C   UNL     1      50.542   9.521  11.035  0.00  0.00    +0.000 A 
ATOM      2  C   UNL     1      49.466  10.413  11.138  0.00  0.00    +0.000 A 
ATOM      3  C   UNL     1      48.238   9.998  11.666  0.00  0.00    +0.000 A 
ATOM      4  C   UNL     1      48.057   8.687  12.127  0.00  0.00    +0.000 A 
ATOM      5  C   UNL     1      49.106   7.774  11.955  0.00  0.00    +0.000 A 
ATOM      6  C   UNL     1      50.334   8.187  11.417  0.00  0.00    +0.000 A 
ENDROOT
BRANCH   1   7
ATOM      7  C   UNL     1      51.887   9.977  10.498  0.00  0.00    +0.000 C 
BRANCH   7   8
ATOM      8  N   UNL     1      52.827   8.866  10.332  0.00  0.00    +0.000 NA
ATOM      9  H   UNL     1      53.532   8.919  11.065  0.00  0.00    +0.000 HD
BRANCH   8  11
ATOM     10  C   UNL     1      52.953   9.890   8.053  0.00  0.00    +0.000 C 
ATOM     11  C   UNL     1      53.529   8.860   9.032  0.00  0.00    +0.000 C 
BRANCH  11  12
ATOM     12  C   UNL     1      53.473   7.476   8.400  0.00  0.00    +0.000 A 
ATOM     13  C   UNL     1      54.380   6.462   8.737  0.00  0.00    +0.000 A 
ATOM     14  C   UNL     1      54.307   5.221   8.109  0.00  0.00    +0.000 A 
ATOM     15  C   UNL     1      53.307   5.015   7.178  0.00  0.00    +0.000 A 
ATOM     16  N   UNL     1      52.388   5.948   6.848  0.00  0.00    +0.000 NA
ATOM     17  C   UNL     1      52.489   7.149   7.467  0.00  0.00    +0.000 A 
ENDBRANCH  11  12
ENDBRANCH   8  11
ENDBRANCH   7   8
ENDBRANCH   1   7
BRANCH   4  18
ATOM     18  C   UNL     1      46.825   8.309  12.925  0.00  0.00    +0.000 C 
BRANCH  18  19
ATOM     19  N   UNL     1      46.348   6.934  12.785  0.00  0.00    +0.000 N 
ATOM     20  C   UNL     1      47.193   5.885  13.340  0.00  0.00    +0.000 C 
ATOM     21  C   UNL     1      45.267   6.705  11.911  0.00  0.00    +0.000 C 
ATOM     22  O   UNL     1      44.706   7.628  11.331  0.00  0.00    +0.000 OA
BRANCH  21  23
ATOM     23  C   UNL     1      44.777   5.325  11.725  0.00  0.00    +0.000 A 
ATOM     24  C   UNL     1      44.033   4.628  12.665  0.00  0.00    +0.000 A 
ATOM     25  S   UNL     1      43.587   3.061  12.171  0.00  0.00    +0.000 S 
ATOM     26  C   UNL     1      44.233   3.317  10.616  0.00  0.00    +0.000 A 
ATOM     27  N   UNL     1      44.091   2.375   9.651  0.00  0.00    +0.000 NA
ATOM     28  C   UNL     1      44.593   2.716   8.508  0.00  0.00    +0.000 A 
ATOM     29  N   UNL     1      45.255   3.892   8.266  0.00  0.00    +0.000 N 
ATOM     30  C   UNL     1      45.538   4.816   9.253  0.00  0.00    +0.000 A 
ATOM     31  O   UNL     1      46.329   5.727   9.044  0.00  0.00    +0.000 OA
ATOM     32  C   UNL     1      44.886   4.534  10.519  0.00  0.00    +0.000 A 
ATOM     33  H   UNL     1      45.686   4.061   7.369  0.00  0.00    +0.000 HD
ENDBRANCH  21  23
ENDBRANCH  18  19
ENDBRANCH   4  18
TORSDOF 7
ENDMDL
MODEL 9
REMARK VINA RESULT:    -5.920      4.043      9.128
REMARK INTER + INTRA:          -9.631
REMARK INTER:                  -8.364
REMARK INTRA:                  -1.267
REMARK UNBOUND:                -1.288
REMARK  Name = 
REMARK  9 active torsions:
REMARK  status: ('A' for Active; 'I' for Inactive)
REMARK    1  A    between atoms: C_1  and  C_2
REMARK    2  A    between atoms: C_2  and  N_3
REMARK    3  A    between atoms: C_2  and  C_26
REMARK    4  A    between atoms: N_3  and  C_4
REMARK    5  A    between atoms: C_4  and  C_5
REMARK    6  A    between atoms: C_8  and  C_9
REMARK    7  A    between atoms: C_9  and  N_10
REMARK    8  A    between atoms: N_10  and  C_11
REMARK    9  A    between atoms: C_12  and  C_14
REMARK                            x       y       z     vdW  Elec       q    Type
REMARK                         _______ _______ _______ _____ _____    ______ ____
ROOT
ATOM      1  C   UNL     1      50.229   9.514  11.416  0.00  0.00    +0.000 A 
ATOM      2  C   UNL     1      49.295  10.456  11.867  0.00  0.00    +0.000 A 
ATOM      3  C   UNL     1      48.038  10.055  12.333  0.00  0.00    +0.000 A 
ATOM      4  C   UNL     1      47.687   8.699  12.383  0.00  0.00    +0.000 A 
ATOM      5  C   UNL     1      48.588   7.761  11.862  0.00  0.00    +0.000 A 
ATOM      6  C   UNL     1      49.845   8.165  11.386  0.00  0.00    +0.000 A 
ENDROOT
BRANCH   1   7
ATOM      7  C   UNL     1      51.607   9.943  10.945  0.00  0.00    +0.000 C 
BRANCH   7   8
ATOM      8  N   UNL     1      52.358  10.648  11.986  0.00  0.00    +0.000 NA
ATOM      9  H   UNL     1      53.062  11.236  11.542  0.00  0.00    +0.000 HD
BRANCH   8  11
ATOM     10  C   UNL     1      53.560   8.474  12.273  0.00  0.00    +0.000 C 
ATOM     11  C   UNL     1      53.050   9.757  12.939  0.00  0.00    +0.000 C 
BRANCH  11  12
ATOM     12  C   UNL     1      52.131   9.394  14.098  0.00  0.00    +0.000 A 
ATOM     13  C   UNL     1      51.867   8.065  14.454  0.00  0.00    +0.000 A 
ATOM     14  C   UNL     1      50.994   7.783  15.503  0.00  0.00    +0.000 A 
ATOM     15  C   UNL     1      50.429   8.842  16.189  0.00  0.00    +0.000 A 
ATOM     16  N   UNL     1      50.683  10.138  15.906  0.00  0.00    +0.000 NA
ATOM     17  C   UNL     1      51.527  10.382  14.875  0.00  0.00    +0.000 A 
ENDBRANCH  11  12
ENDBRANCH   8  11
ENDBRANCH   7   8
ENDBRANCH   1   7
BRANCH   4  18
ATOM     18  C   UNL     1      46.440   8.247  13.117  0.00  0.00    +0.000 C 
BRANCH  18  19
ATOM     19  N   UNL     1      46.034   6.855  12.929  0.00  0.00    +0.000 N 
ATOM     20  C   UNL     1      46.900   5.834  13.505  0.00  0.00    +0.000 C 
ATOM     21  C   UNL     1      45.008   6.595  12.000  0.00  0.00    +0.000 C 
ATOM     22  O   UNL     1      44.433   7.503  11.411  0.00  0.00    +0.000 OA
BRANCH  21  23
ATOM     23  C   UNL     1      44.591   5.198  11.765  0.00  0.00    +0.000 A 
ATOM     24  C   UNL     1      43.851   4.444  12.662  0.00  0.00    +0.000 A 
ATOM     25  S   UNL     1      43.498   2.870  12.117  0.00  0.00    +0.000 S 
ATOM     26  C   UNL     1      44.184   3.195  10.592  0.00  0.00    +0.000 A 
ATOM     27  N   UNL     1      44.122   2.271   9.602  0.00  0.00    +0.000 NA
ATOM     28  C   UNL     1      44.645   2.663   8.485  0.00  0.00    +0.000 A 
ATOM     29  N   UNL     1      45.257   3.875   8.294  0.00  0.00    +0.000 N 
ATOM     30  C   UNL     1      45.461   4.787   9.311  0.00  0.00    +0.000 A 
ATOM     31  O   UNL     1      46.214   5.740   9.151  0.00  0.00    +0.000 OA
ATOM     32  C   UNL     1      44.780   4.443  10.546  0.00  0.00    +0.000 A 
ATOM     33  H   UNL     1      45.711   4.086   7.417  0.00  0.00    +0.000 HD
ENDBRANCH  21  23
ENDBRANCH  18  19
ENDBRANCH   4  18
TORSDOF 7
ENDMDL
