MODEL 1
REMARK VINA RESULT:    -7.954      0.000      0.000
REMARK INTER + INTRA:         -11.846
REMARK INTER:                 -10.744
REMARK INTRA:                  -1.102
REMARK UNBOUND:                -1.102
REMARK  Name = 
REMARK  7 active torsions:
REMARK  status: ('A' for Active; 'I' for Inactive)
REMARK    1  A    between atoms: C_1  and  C_2
REMARK    2  A    between atoms: C_2  and  N_3
REMARK    3  A    between atoms: C_2  and  C_16
REMARK    4  A    between atoms: C_4  and  C_6
REMARK    5  A    between atoms: C_19  and  C_20
REMARK    6  A    between atoms: C_20  and  N_21
REMARK    7  A    between atoms: C_22  and  C_24
REMARK                            x       y       z     vdW  Elec       q    Type
REMARK                         _______ _______ _______ _____ _____    ______ ____
ROOT
ATOM      1  C   UNL     1      43.884   2.902  11.061  0.00  0.00    +0.000 C 
ATOM      2  C   UNL     1      44.222   3.992  10.031  0.00  0.00    +0.000 C 
ENDROOT
BRANCH   2   3
ATOM      3  C   UNL     1      45.103   3.409   8.932  0.00  0.00    +0.000 A 
ATOM      4  C   UNL     1      45.347   2.030   8.875  0.00  0.00    +0.000 A 
ATOM      5  C   UNL     1      46.209   1.491   7.909  0.00  0.00    +0.000 A 
ATOM      6  C   UNL     1      46.853   2.320   6.980  0.00  0.00    +0.000 A 
ATOM      7  C   UNL     1      46.580   3.694   7.012  0.00  0.00    +0.000 A 
ATOM      8  C   UNL     1      45.717   4.231   7.974  0.00  0.00    +0.000 A 
BRANCH   6   9
ATOM      9  C   UNL     1      47.861   1.766   6.004  0.00  0.00    +0.000 C 
BRANCH   9  10
ATOM     10  N   UNL     1      47.525   0.460   5.493  0.00  0.00    +0.000 N 
ATOM     11  C   UNL     1      46.942   0.325   4.247  0.00  0.00    +0.000 C 
ATOM     12  O   UNL     1      46.671   1.277   3.521  0.00  0.00    +0.000 OA
ATOM     13  H   UNL     1      47.846  -0.382   5.960  0.00  0.00    +0.000 HD
BRANCH  11  14
ATOM     14  C   UNL     1      46.657  -1.071   3.803  0.00  0.00    +0.000 A 
ATOM     15  C   UNL     1      46.263  -1.315   2.491  0.00  0.00    +0.000 A 
ATOM     16  N   UNL     1      45.996  -2.569   2.035  0.00  0.00    +0.000 NA
ATOM     17  C   UNL     1      46.139  -3.557   2.947  0.00  0.00    +0.000 A 
ATOM     18  C   UNL     1      46.527  -3.311   4.256  0.00  0.00    +0.000 A 
ATOM     19  N   UNL     1      46.802  -2.069   4.723  0.00  0.00    +0.000 NA
ENDBRANCH  11  14
ENDBRANCH   9  10
ENDBRANCH   6   9
ENDBRANCH   2   3
BRANCH   2  20
ATOM     20  N   UNL     1      44.859   5.155  10.634  0.00  0.00    +0.000 N 
ATOM     21  C   UNL     1      44.115   6.143  11.235  0.00  0.00    +0.000 C 
ATOM     22  O   UNL     1      42.894   6.080  11.334  0.00  0.00    +0.000 OA
ATOM     23  H   UNL     1      45.781   5.404  10.281  0.00  0.00    +0.000 HD
BRANCH  21  24
ATOM     24  C   UNL     1      44.843   7.274  11.815  0.00  0.00    +0.000 A 
ATOM     25  C   UNL     1      44.516   8.564  11.421  0.00  0.00    +0.000 A 
ATOM     26  S   UNL     1      45.495   9.765  12.133  0.00  0.00    +0.000 S 
ATOM     27  C   UNL     1      46.406   8.598  12.967  0.00  0.00    +0.000 A 
ATOM     28  N   UNL     1      47.476   8.960  13.732  0.00  0.00    +0.000 NA
ATOM     29  C   UNL     1      48.093   7.968  14.277  0.00  0.00    +0.000 A 
ATOM     30  N   UNL     1      47.728   6.652  14.153  0.00  0.00    +0.000 N 
ATOM     31  C   UNL     1      46.629   6.245  13.434  0.00  0.00    +0.000 A 
ATOM     32  O   UNL     1      46.277   5.069  13.401  0.00  0.00    +0.000 OA
ATOM     33  C   UNL     1      45.935   7.315  12.751  0.00  0.00    +0.000 A 
ATOM     34  H   UNL     1      48.237   5.927  14.635  0.00  0.00    +0.000 HD
ENDBRANCH  21  24
ENDBRANCH   2  20
TORSDOF 6
ENDMDL
MODEL 2
REMARK VINA RESULT:    -7.781      3.440      6.159
REMARK INTER + INTRA:         -11.612
REMARK INTER:                 -10.573
REMARK INTRA:                  -1.039
REMARK UNBOUND:                -1.102
REMARK  Name = 
REMARK  7 active torsions:
REMARK  status: ('A' for Active; 'I' for Inactive)
REMARK    1  A    between atoms: C_1  and  C_2
REMARK    2  A    between atoms: C_2  and  N_3
REMARK    3  A    between atoms: C_2  and  C_16
REMARK    4  A    between atoms: C_4  and  C_6
REMARK    5  A    between atoms: C_19  and  C_20
REMARK    6  A    between atoms: C_20  and  N_21
REMARK    7  A    between atoms: C_22  and  C_24
REMARK                            x       y       z     vdW  Elec       q    Type
REMARK                         _______ _______ _______ _____ _____    ______ ____
ROOT
ATOM      1  C   UNL     1      46.860   8.954  13.309  0.00  0.00    +0.000 C 
ATOM      2  C   UNL     1      47.496   7.579  13.572  0.00  0.00    +0.000 C 
ENDROOT
BRANCH   2   3
ATOM      3  C   UNL     1      46.594   6.479  13.026  0.00  0.00    +0.000 A 
ATOM      4  C   UNL     1      46.872   5.132  13.303  0.00  0.00    +0.000 A 
ATOM      5  C   UNL     1      46.089   4.109  12.751  0.00  0.00    +0.000 A 
ATOM      6  C   UNL     1      45.012   4.406  11.905  0.00  0.00    +0.000 A 
ATOM      7  C   UNL     1      44.710   5.752  11.658  0.00  0.00    +0.000 A 
ATOM      8  C   UNL     1      45.490   6.774  12.212  0.00  0.00    +0.000 A 
BRANCH   6   9
ATOM      9  C   UNL     1      44.227   3.313  11.224  0.00  0.00    +0.000 C 
BRANCH   9  10
ATOM     10  N   UNL     1      44.958   2.622  10.190  0.00  0.00    +0.000 N 
ATOM     11  C   UNL     1      45.116   3.196   8.943  0.00  0.00    +0.000 C 
ATOM     12  O   UNL     1      44.650   4.290   8.638  0.00  0.00    +0.000 OA
ATOM     13  H   UNL     1      45.496   1.787  10.400  0.00  0.00    +0.000 HD
BRANCH  11  14
ATOM     14  C   UNL     1      45.910   2.409   7.954  0.00  0.00    +0.000 A 
ATOM     15  C   UNL     1      46.259   2.979   6.733  0.00  0.00    +0.000 A 
ATOM     16  N   UNL     1      46.985   2.306   5.800  0.00  0.00    +0.000 NA
ATOM     17  C   UNL     1      47.340   1.048   6.142  0.00  0.00    +0.000 A 
ATOM     18  C   UNL     1      46.987   0.479   7.357  0.00  0.00    +0.000 A 
ATOM     19  N   UNL     1      46.269   1.138   8.299  0.00  0.00    +0.000 NA
ENDBRANCH  11  14
ENDBRANCH   9  10
ENDBRANCH   6   9
ENDBRANCH   2   3
BRANCH   2  20
ATOM     20  N   UNL     1      47.782   7.355  14.983  0.00  0.00    +0.000 N 
ATOM     21  C   UNL     1      49.048   7.032  15.411  0.00  0.00    +0.000 C 
ATOM     22  O   UNL     1      50.003   6.958  14.645  0.00  0.00    +0.000 OA
ATOM     23  H   UNL     1      46.997   7.073  15.567  0.00  0.00    +0.000 HD
BRANCH  21  24
ATOM     24  C   UNL     1      49.240   6.825  16.849  0.00  0.00    +0.000 A 
ATOM     25  C   UNL     1      50.001   7.735  17.569  0.00  0.00    +0.000 A 
ATOM     26  S   UNL     1      50.187   7.321  19.212  0.00  0.00    +0.000 S 
ATOM     27  C   UNL     1      49.283   5.896  19.007  0.00  0.00    +0.000 A 
ATOM     28  N   UNL     1      49.111   5.021  20.039  0.00  0.00    +0.000 NA
ATOM     29  C   UNL     1      48.433   3.969  19.729  0.00  0.00    +0.000 A 
ATOM     30  N   UNL     1      47.890   3.719  18.495  0.00  0.00    +0.000 N 
ATOM     31  C   UNL     1      47.994   4.596  17.441  0.00  0.00    +0.000 A 
ATOM     32  O   UNL     1      47.434   4.387  16.368  0.00  0.00    +0.000 OA
ATOM     33  C   UNL     1      48.797   5.767  17.717  0.00  0.00    +0.000 A 
ATOM     34  H   UNL     1      47.341   2.889  18.331  0.00  0.00    +0.000 HD
ENDBRANCH  21  24
ENDBRANCH   2  20
TORSDOF 6
ENDMDL
MODEL 3
REMARK VINA RESULT:    -7.565      3.722      6.328
REMARK INTER + INTRA:         -11.320
REMARK INTER:                 -10.190
REMARK INTRA:                  -1.130
REMARK UNBOUND:                -1.102
REMARK  Name = 
REMARK  7 active torsions:
REMARK  status: ('A' for Active; 'I' for Inactive)
REMARK    1  A    between atoms: C_1  and  C_2
REMARK    2  A    between atoms: C_2  and  N_3
REMARK    3  A    between atoms: C_2  and  C_16
REMARK    4  A    between atoms: C_4  and  C_6
REMARK    5  A    between atoms: C_19  and  C_20
REMARK    6  A    between atoms: C_20  and  N_21
REMARK    7  A    between atoms: C_22  and  C_24
REMARK                            x       y       z     vdW  Elec       q    Type
REMARK                         _______ _______ _______ _____ _____    ______ ____
ROOT
ATOM      1  C   UNL     1      48.998   8.034  13.344  0.00  0.00    +0.000 C 
ATOM      2  C   UNL     1      48.568   6.719  14.013  0.00  0.00    +0.000 C 
ENDROOT
BRANCH   2   3
ATOM      3  C   UNL     1      47.434   6.081  13.219  0.00  0.00    +0.000 A 
ATOM      4  C   UNL     1      46.934   4.823  13.584  0.00  0.00    +0.000 A 
ATOM      5  C   UNL     1      45.938   4.196  12.821  0.00  0.00    +0.000 A 
ATOM      6  C   UNL     1      45.423   4.810  11.671  0.00  0.00    +0.000 A 
ATOM      7  C   UNL     1      45.895   6.084  11.328  0.00  0.00    +0.000 A 
ATOM      8  C   UNL     1      46.886   6.710  12.091  0.00  0.00    +0.000 A 
BRANCH   6   9
ATOM      9  C   UNL     1      44.427   4.102  10.786  0.00  0.00    +0.000 C 
BRANCH   9  10
ATOM     10  N   UNL     1      45.025   3.178   9.854  0.00  0.00    +0.000 N 
ATOM     11  C   UNL     1      45.498   3.624   8.634  0.00  0.00    +0.000 C 
ATOM     12  O   UNL     1      45.434   4.795   8.271  0.00  0.00    +0.000 OA
ATOM     13  H   UNL     1      45.249   2.228  10.131  0.00  0.00    +0.000 HD
BRANCH  11  14
ATOM     14  C   UNL     1      46.119   2.591   7.754  0.00  0.00    +0.000 A 
ATOM     15  C   UNL     1      46.479   2.916   6.450  0.00  0.00    +0.000 A 
ATOM     16  N   UNL     1      47.052   2.013   5.609  0.00  0.00    +0.000 NA
ATOM     17  C   UNL     1      47.245   0.781   6.129  0.00  0.00    +0.000 A 
ATOM     18  C   UNL     1      46.880   0.456   7.428  0.00  0.00    +0.000 A 
ATOM     19  N   UNL     1      46.314   1.346   8.279  0.00  0.00    +0.000 NA
ENDBRANCH  11  14
ENDBRANCH   9  10
ENDBRANCH   6   9
ENDBRANCH   2   3
BRANCH   2  20
ATOM     20  N   UNL     1      48.179   6.899  15.406  0.00  0.00    +0.000 N 
ATOM     21  C   UNL     1      48.971   6.442  16.432  0.00  0.00    +0.000 C 
ATOM     22  O   UNL     1      50.055   5.903  16.237  0.00  0.00    +0.000 OA
ATOM     23  H   UNL     1      47.184   7.014  15.589  0.00  0.00    +0.000 HD
BRANCH  21  24
ATOM     24  C   UNL     1      48.498   6.670  17.800  0.00  0.00    +0.000 A 
ATOM     25  C   UNL     1      48.352   5.587  18.656  0.00  0.00    +0.000 A 
ATOM     26  S   UNL     1      47.730   6.005  20.187  0.00  0.00    +0.000 S 
ATOM     27  C   UNL     1      47.608   7.643  19.746  0.00  0.00    +0.000 A 
ATOM     28  N   UNL     1      47.074   8.560  20.601  0.00  0.00    +0.000 NA
ATOM     29  C   UNL     1      47.013   9.755  20.120  0.00  0.00    +0.000 A 
ATOM     30  N   UNL     1      47.458  10.125  18.877  0.00  0.00    +0.000 N 
ATOM     31  C   UNL     1      48.049   9.245  18.001  0.00  0.00    +0.000 A 
ATOM     32  O   UNL     1      48.511   9.614  16.925  0.00  0.00    +0.000 OA
ATOM     33  C   UNL     1      48.088   7.876  18.469  0.00  0.00    +0.000 A 
ATOM     34  H   UNL     1      47.410  11.086  18.576  0.00  0.00    +0.000 HD
ENDBRANCH  21  24
ENDBRANCH   2  20
TORSDOF 6
ENDMDL
MODEL 4
REMARK VINA RESULT:    -7.417      7.399     10.424
REMARK INTER + INTRA:         -11.120
REMARK INTER:                 -10.152
REMARK INTRA:                  -0.967
REMARK UNBOUND:                -1.102
REMARK  Name = 
REMARK  7 active torsions:
REMARK  status: ('A' for Active; 'I' for Inactive)
REMARK    1  A    between atoms: C_1  and  C_2
REMARK    2  A    between atoms: C_2  and  N_3
REMARK    3  A    between atoms: C_2  and  C_16
REMARK    4  A    between atoms: C_4  and  C_6
REMARK    5  A    between atoms: C_19  and  C_20
REMARK    6  A    between atoms: C_20  and  N_21
REMARK    7  A    between atoms: C_22  and  C_24
REMARK                            x       y       z     vdW  Elec       q    Type
REMARK                         _______ _______ _______ _____ _____    ______ ____
ROOT
ATOM      1  C   UNL     1      46.681   3.532  13.221  0.00  0.00    +0.000 C 
ATOM      2  C   UNL     1      46.418   4.651  14.242  0.00  0.00    +0.000 C 
ENDROOT
BRANCH   2   3
ATOM      3  C   UNL     1      46.149   5.963  13.514  0.00  0.00    +0.000 A 
ATOM      4  C   UNL     1      47.005   7.059  13.688  0.00  0.00    +0.000 A 
ATOM      5  C   UNL     1      46.730   8.291  13.077  0.00  0.00    +0.000 A 
ATOM      6  C   UNL     1      45.588   8.458  12.282  0.00  0.00    +0.000 A 
ATOM      7  C   UNL     1      44.752   7.352  12.077  0.00  0.00    +0.000 A 
ATOM      8  C   UNL     1      45.028   6.122  12.684  0.00  0.00    +0.000 A 
BRANCH   6   9
ATOM      9  C   UNL     1      45.227   9.803  11.704  0.00  0.00    +0.000 C 
BRANCH   9  10
ATOM     10  N   UNL     1      43.911  10.265  12.073  0.00  0.00    +0.000 N 
ATOM     11  C   UNL     1      42.932  10.429  11.110  0.00  0.00    +0.000 C 
ATOM     12  O   UNL     1      43.116  10.211   9.916  0.00  0.00    +0.000 OA
ATOM     13  H   UNL     1      43.632  10.328  13.047  0.00  0.00    +0.000 HD
BRANCH  11  14
ATOM     14  C   UNL     1      41.600  10.889  11.600  0.00  0.00    +0.000 A 
ATOM     15  C   UNL     1      40.439  10.292  11.117  0.00  0.00    +0.000 A 
ATOM     16  N   UNL     1      39.201  10.670  11.534  0.00  0.00    +0.000 NA
ATOM     17  C   UNL     1      39.179  11.665  12.449  0.00  0.00    +0.000 A 
ATOM     18  C   UNL     1      40.337  12.262  12.927  0.00  0.00    +0.000 A 
ATOM     19  N   UNL     1      41.577  11.893  12.525  0.00  0.00    +0.000 NA
ENDBRANCH  11  14
ENDBRANCH   9  10
ENDBRANCH   6   9
ENDBRANCH   2   3
BRANCH   2  20
ATOM     20  N   UNL     1      47.510   4.809  15.194  0.00  0.00    +0.000 N 
ATOM     21  C   UNL     1      47.476   4.197  16.425  0.00  0.00    +0.000 C 
ATOM     22  O   UNL     1      46.558   3.461  16.769  0.00  0.00    +0.000 OA
ATOM     23  H   UNL     1      48.083   5.645  15.095  0.00  0.00    +0.000 HD
BRANCH  21  24
ATOM     24  C   UNL     1      48.619   4.413  17.315  0.00  0.00    +0.000 A 
ATOM     25  C   UNL     1      48.664   5.560  18.095  0.00  0.00    +0.000 A 
ATOM     26  S   UNL     1      50.086   5.699  19.026  0.00  0.00    +0.000 S 
ATOM     27  C   UNL     1      50.701   4.246  18.393  0.00  0.00    +0.000 A 
ATOM     28  N   UNL     1      51.946   3.805  18.734  0.00  0.00    +0.000 NA
ATOM     29  C   UNL     1      52.293   2.709  18.152  0.00  0.00    +0.000 A 
ATOM     30  N   UNL     1      51.508   1.998  17.282  0.00  0.00    +0.000 N 
ATOM     31  C   UNL     1      50.229   2.377  16.948  0.00  0.00    +0.000 A 
ATOM     32  O   UNL     1      49.515   1.684  16.228  0.00  0.00    +0.000 OA
ATOM     33  C   UNL     1      49.810   3.635  17.528  0.00  0.00    +0.000 A 
ATOM     34  H   UNL     1      51.830   1.128  16.887  0.00  0.00    +0.000 HD
ENDBRANCH  21  24
ENDBRANCH   2  20
TORSDOF 6
ENDMDL
MODEL 5
REMARK VINA RESULT:    -7.304      3.234      5.635
REMARK INTER + INTRA:         -10.968
REMARK INTER:                  -9.687
REMARK INTRA:                  -1.280
REMARK UNBOUND:                -1.102
REMARK  Name = 
REMARK  7 active torsions:
REMARK  status: ('A' for Active; 'I' for Inactive)
REMARK    1  A    between atoms: C_1  and  C_2
REMARK    2  A    between atoms: C_2  and  N_3
REMARK    3  A    between atoms: C_2  and  C_16
REMARK    4  A    between atoms: C_4  and  C_6
REMARK    5  A    between atoms: C_19  and  C_20
REMARK    6  A    between atoms: C_20  and  N_21
REMARK    7  A    between atoms: C_22  and  C_24
REMARK                            x       y       z     vdW  Elec       q    Type
REMARK                         _______ _______ _______ _____ _____    ______ ____
ROOT
ATOM      1  C   UNL     1      47.346   4.204  15.570  0.00  0.00    +0.000 C 
ATOM      2  C   UNL     1      47.140   5.496  14.762  0.00  0.00    +0.000 C 
ENDROOT
BRANCH   2   3
ATOM      3  C   UNL     1      46.234   5.221  13.568  0.00  0.00    +0.000 A 
ATOM      4  C   UNL     1      45.952   3.903  13.180  0.00  0.00    +0.000 A 
ATOM      5  C   UNL     1      45.175   3.638  12.044  0.00  0.00    +0.000 A 
ATOM      6  C   UNL     1      44.665   4.685  11.263  0.00  0.00    +0.000 A 
ATOM      7  C   UNL     1      44.914   6.002  11.672  0.00  0.00    +0.000 A 
ATOM      8  C   UNL     1      45.687   6.266  12.808  0.00  0.00    +0.000 A 
BRANCH   6   9
ATOM      9  C   UNL     1      43.915   4.414   9.983  0.00  0.00    +0.000 C 
BRANCH   9  10
ATOM     10  N   UNL     1      44.575   3.480   9.104  0.00  0.00    +0.000 N 
ATOM     11  C   UNL     1      45.639   3.889   8.322  0.00  0.00    +0.000 C 
ATOM     12  O   UNL     1      46.071   5.039   8.316  0.00  0.00    +0.000 OA
ATOM     13  H   UNL     1      44.379   2.486   9.155  0.00  0.00    +0.000 HD
BRANCH  11  14
ATOM     14  C   UNL     1      46.265   2.840   7.465  0.00  0.00    +0.000 A 
ATOM     15  C   UNL     1      46.635   3.141   6.158  0.00  0.00    +0.000 A 
ATOM     16  N   UNL     1      47.214   2.223   5.338  0.00  0.00    +0.000 NA
ATOM     17  C   UNL     1      47.402   1.000   5.883  0.00  0.00    +0.000 A 
ATOM     18  C   UNL     1      47.028   0.699   7.185  0.00  0.00    +0.000 A 
ATOM     19  N   UNL     1      46.456   1.605   8.015  0.00  0.00    +0.000 NA
ENDBRANCH  11  14
ENDBRANCH   9  10
ENDBRANCH   6   9
ENDBRANCH   2   3
BRANCH   2  20
ATOM     20  N   UNL     1      48.396   6.090  14.325  0.00  0.00    +0.000 N 
ATOM     21  C   UNL     1      48.984   7.113  15.030  0.00  0.00    +0.000 C 
ATOM     22  O   UNL     1      48.513   7.548  16.076  0.00  0.00    +0.000 OA
ATOM     23  H   UNL     1      48.619   6.007  13.335  0.00  0.00    +0.000 HD
BRANCH  21  24
ATOM     24  C   UNL     1      50.247   7.647  14.514  0.00  0.00    +0.000 A 
ATOM     25  C   UNL     1      51.375   7.623  15.323  0.00  0.00    +0.000 A 
ATOM     26  S   UNL     1      52.746   8.339  14.607  0.00  0.00    +0.000 S 
ATOM     27  C   UNL     1      51.869   8.733  13.205  0.00  0.00    +0.000 A 
ATOM     28  N   UNL     1      52.449   9.436  12.191  0.00  0.00    +0.000 NA
ATOM     29  C   UNL     1      51.656   9.692  11.207  0.00  0.00    +0.000 A 
ATOM     30  N   UNL     1      50.347   9.291  11.128  0.00  0.00    +0.000 N 
ATOM     31  C   UNL     1      49.736   8.538  12.103  0.00  0.00    +0.000 A 
ATOM     32  O   UNL     1      48.586   8.124  11.975  0.00  0.00    +0.000 OA
ATOM     33  C   UNL     1      50.564   8.274  13.259  0.00  0.00    +0.000 A 
ATOM     34  H   UNL     1      49.791   9.498  10.312  0.00  0.00    +0.000 HD
ENDBRANCH  21  24
ENDBRANCH   2  20
TORSDOF 6
ENDMDL
MODEL 6
REMARK VINA RESULT:    -7.008      4.713     10.508
REMARK INTER + INTRA:         -10.568
REMARK INTER:                  -9.575
REMARK INTRA:                  -0.994
REMARK UNBOUND:                -1.102
REMARK  Name = 
REMARK  7 active torsions:
REMARK  status: ('A' for Active; 'I' for Inactive)
REMARK    1  A    between atoms: C_1  and  C_2
REMARK    2  A    between atoms: C_2  and  N_3
REMARK    3  A    between atoms: C_2  and  C_16
REMARK    4  A    between atoms: C_4  and  C_6
REMARK    5  A    between atoms: C_19  and  C_20
REMARK    6  A    between atoms: C_20  and  N_21
REMARK    7  A    between atoms: C_22  and  C_24
REMARK                            x       y       z     vdW  Elec       q    Type
REMARK                         _______ _______ _______ _____ _____    ______ ____
ROOT
ATOM      1  C   UNL     1      49.010   7.879  11.365  0.00  0.00    +0.000 C 
ATOM      2  C   UNL     1      48.053   7.616  12.539  0.00  0.00    +0.000 C 
ENDROOT
BRANCH   2   3
ATOM      3  C   UNL     1      48.849   7.455  13.829  0.00  0.00    +0.000 A 
ATOM      4  C   UNL     1      50.121   8.031  13.954  0.00  0.00    +0.000 A 
ATOM      5  C   UNL     1      50.890   7.833  15.110  0.00  0.00    +0.000 A 
ATOM      6  C   UNL     1      50.407   7.050  16.168  0.00  0.00    +0.000 A 
ATOM      7  C   UNL     1      49.120   6.506  16.060  0.00  0.00    +0.000 A 
ATOM      8  C   UNL     1      48.351   6.706  14.907  0.00  0.00    +0.000 A 
BRANCH   6   9
ATOM      9  C   UNL     1      51.263   6.746  17.371  0.00  0.00    +0.000 C 
BRANCH   9  10
ATOM     10  N   UNL     1      51.837   5.423  17.362  0.00  0.00    +0.000 N 
ATOM     11  C   UNL     1      51.261   4.406  18.100  0.00  0.00    +0.000 C 
ATOM     12  O   UNL     1      50.262   4.559  18.797  0.00  0.00    +0.000 OA
ATOM     13  H   UNL     1      52.570   5.175  16.704  0.00  0.00    +0.000 HD
BRANCH  11  14
ATOM     14  C   UNL     1      51.919   3.070  18.003  0.00  0.00    +0.000 A 
ATOM     15  C   UNL     1      51.244   2.005  17.415  0.00  0.00    +0.000 A 
ATOM     16  N   UNL     1      51.801   0.769  17.297  0.00  0.00    +0.000 NA
ATOM     17  C   UNL     1      53.053   0.650  17.792  0.00  0.00    +0.000 A 
ATOM     18  C   UNL     1      53.723   1.712  18.383  0.00  0.00    +0.000 A 
ATOM     19  N   UNL     1      53.184   2.950  18.502  0.00  0.00    +0.000 NA
ENDBRANCH  11  14
ENDBRANCH   9  10
ENDBRANCH   6   9
ENDBRANCH   2   3
BRANCH   2  20
ATOM     20  N   UNL     1      47.199   6.457  12.317  0.00  0.00    +0.000 N 
ATOM     21  C   UNL     1      45.913   6.598  11.851  0.00  0.00    +0.000 C 
ATOM     22  O   UNL     1      45.435   7.689  11.559  0.00  0.00    +0.000 OA
ATOM     23  H   UNL     1      47.420   5.619  12.852  0.00  0.00    +0.000 HD
BRANCH  21  24
ATOM     24  C   UNL     1      45.129   5.376  11.658  0.00  0.00    +0.000 A 
ATOM     25  C   UNL     1      44.409   4.857  12.724  0.00  0.00    +0.000 A 
ATOM     26  S   UNL     1      43.604   3.398  12.361  0.00  0.00    +0.000 S 
ATOM     27  C   UNL     1      44.217   3.398  10.775  0.00  0.00    +0.000 A 
ATOM     28  N   UNL     1      43.958   2.364   9.925  0.00  0.00    +0.000 NA
ATOM     29  C   UNL     1      44.515   2.482   8.768  0.00  0.00    +0.000 A 
ATOM     30  N   UNL     1      45.285   3.545   8.371  0.00  0.00    +0.000 N 
ATOM     31  C   UNL     1      45.531   4.631   9.177  0.00  0.00    +0.000 A 
ATOM     32  O   UNL     1      46.158   5.607   8.773  0.00  0.00    +0.000 OA
ATOM     33  C   UNL     1      44.978   4.523  10.509  0.00  0.00    +0.000 A 
ATOM     34  H   UNL     1      45.663   3.588   7.438  0.00  0.00    +0.000 HD
ENDBRANCH  21  24
ENDBRANCH   2  20
TORSDOF 6
ENDMDL
MODEL 7
REMARK VINA RESULT:    -6.946      5.545     10.436
REMARK INTER + INTRA:         -10.484
REMARK INTER:                  -9.411
REMARK INTRA:                  -1.073
REMARK UNBOUND:                -1.102
REMARK  Name = 
REMARK  7 active torsions:
REMARK  status: ('A' for Active; 'I' for Inactive)
REMARK    1  A    between atoms: C_1  and  C_2
REMARK    2  A    between atoms: C_2  and  N_3
REMARK    3  A    between atoms: C_2  and  C_16
REMARK    4  A    between atoms: C_4  and  C_6
REMARK    5  A    between atoms: C_19  and  C_20
REMARK    6  A    between atoms: C_20  and  N_21
REMARK    7  A    between atoms: C_22  and  C_24
REMARK                            x       y       z     vdW  Elec       q    Type
REMARK                         _______ _______ _______ _____ _____    ______ ____
ROOT
ATOM      1  C   UNL     1      49.317   8.747  11.433  0.00  0.00    +0.000 C 
ATOM      2  C   UNL     1      48.305   8.054  12.360  0.00  0.00    +0.000 C 
ENDROOT
BRANCH   2   3
ATOM      3  C   UNL     1      48.997   7.610  13.642  0.00  0.00    +0.000 A 
ATOM      4  C   UNL     1      48.295   6.876  14.609  0.00  0.00    +0.000 A 
ATOM      5  C   UNL     1      48.902   6.519  15.822  0.00  0.00    +0.000 A 
ATOM      6  C   UNL     1      50.224   6.893  16.100  0.00  0.00    +0.000 A 
ATOM      7  C   UNL     1      50.938   7.594  15.119  0.00  0.00    +0.000 A 
ATOM      8  C   UNL     1      50.334   7.946  13.907  0.00  0.00    +0.000 A 
BRANCH   6   9
ATOM      9  C   UNL     1      50.853   6.606  17.440  0.00  0.00    +0.000 C 
BRANCH   9  10
ATOM     10  N   UNL     1      51.577   5.359  17.492  0.00  0.00    +0.000 N 
ATOM     11  C   UNL     1      51.023   4.255  18.114  0.00  0.00    +0.000 C 
ATOM     12  O   UNL     1      49.920   4.266  18.653  0.00  0.00    +0.000 OA
ATOM     13  H   UNL     1      52.423   5.222  16.949  0.00  0.00    +0.000 HD
BRANCH  11  14
ATOM     14  C   UNL     1      51.844   3.009  18.091  0.00  0.00    +0.000 A 
ATOM     15  C   UNL     1      53.032   2.948  18.812  0.00  0.00    +0.000 A 
ATOM     16  N   UNL     1      53.815   1.835  18.829  0.00  0.00    +0.000 NA
ATOM     17  C   UNL     1      53.356   0.796  18.096  0.00  0.00    +0.000 A 
ATOM     18  C   UNL     1      52.174   0.860  17.373  0.00  0.00    +0.000 A 
ATOM     19  N   UNL     1      51.381   1.960  17.351  0.00  0.00    +0.000 NA
ENDBRANCH  11  14
ENDBRANCH   9  10
ENDBRANCH   6   9
ENDBRANCH   2   3
BRANCH   2  20
ATOM     20  N   UNL     1      47.638   6.928  11.721  0.00  0.00    +0.000 N 
ATOM     21  C   UNL     1      46.269   6.882  11.603  0.00  0.00    +0.000 C 
ATOM     22  O   UNL     1      45.545   7.795  11.986  0.00  0.00    +0.000 OA
ATOM     23  H   UNL     1      48.145   6.044  11.712  0.00  0.00    +0.000 HD
BRANCH  21  24
ATOM     24  C   UNL     1      45.688   5.709  10.945  0.00  0.00    +0.000 A 
ATOM     25  C   UNL     1      45.808   5.576   9.569  0.00  0.00    +0.000 A 
ATOM     26  S   UNL     1      45.024   4.196   8.945  0.00  0.00    +0.000 S 
ATOM     27  C   UNL     1      44.474   3.749  10.490  0.00  0.00    +0.000 A 
ATOM     28  N   UNL     1      43.666   2.663  10.659  0.00  0.00    +0.000 NA
ATOM     29  C   UNL     1      43.300   2.465  11.879  0.00  0.00    +0.000 A 
ATOM     30  N   UNL     1      43.682   3.232  12.950  0.00  0.00    +0.000 N 
ATOM     31  C   UNL     1      44.534   4.305  12.834  0.00  0.00    +0.000 A 
ATOM     32  O   UNL     1      44.926   4.930  13.816  0.00  0.00    +0.000 OA
ATOM     33  C   UNL     1      44.929   4.608  11.475  0.00  0.00    +0.000 A 
ATOM     34  H   UNL     1      43.384   3.000  13.885  0.00  0.00    +0.000 HD
ENDBRANCH  21  24
ENDBRANCH   2  20
TORSDOF 6
ENDMDL
MODEL 8
REMARK VINA RESULT:    -6.930      3.999      7.310
REMARK INTER + INTRA:         -10.462
REMARK INTER:                  -9.546
REMARK INTRA:                  -0.916
REMARK UNBOUND:                -1.102
REMARK  Name = 
REMARK  7 active torsions:
REMARK  status: ('A' for Active; 'I' for Inactive)
REMARK    1  A    between atoms: C_1  and  C_2
REMARK    2  A    between atoms: C_2  and  N_3
REMARK    3  A    between atoms: C_2  and  C_16
REMARK    4  A    between atoms: C_4  and  C_6
REMARK    5  A    between atoms: C_19  and  C_20
REMARK    6  A    between atoms: C_20  and  N_21
REMARK    7  A    between atoms: C_22  and  C_24
REMARK                            x       y       z     vdW  Elec       q    Type
REMARK                         _______ _______ _______ _____ _____    ______ ____
ROOT
ATOM      1  C   UNL     1      48.953   9.780  14.132  0.00  0.00    +0.000 C 
ATOM      2  C   UNL     1      48.532   8.411  14.691  0.00  0.00    +0.000 C 
ENDROOT
BRANCH   2   3
ATOM      3  C   UNL     1      47.464   7.793  13.796  0.00  0.00    +0.000 A 
ATOM      4  C   UNL     1      47.527   6.436  13.451  0.00  0.00    +0.000 A 
ATOM      5  C   UNL     1      46.588   5.872  12.575  0.00  0.00    +0.000 A 
ATOM      6  C   UNL     1      45.566   6.654  12.018  0.00  0.00    +0.000 A 
ATOM      7  C   UNL     1      45.480   8.002  12.393  0.00  0.00    +0.000 A 
ATOM      8  C   UNL     1      46.415   8.563  13.270  0.00  0.00    +0.000 A 
BRANCH   6   9
ATOM      9  C   UNL     1      44.614   6.085  10.997  0.00  0.00    +0.000 C 
BRANCH   9  10
ATOM     10  N   UNL     1      45.258   5.319   9.958  0.00  0.00    +0.000 N 
ATOM     11  C   UNL     1      44.850   4.025   9.690  0.00  0.00    +0.000 C 
ATOM     12  O   UNL     1      43.951   3.459  10.304  0.00  0.00    +0.000 OA
ATOM     13  H   UNL     1      45.905   5.756   9.310  0.00  0.00    +0.000 HD
BRANCH  11  14
ATOM     14  C   UNL     1      45.566   3.329   8.581  0.00  0.00    +0.000 A 
ATOM     15  C   UNL     1      45.797   1.959   8.657  0.00  0.00    +0.000 A 
ATOM     16  N   UNL     1      46.440   1.276   7.672  0.00  0.00    +0.000 NA
ATOM     17  C   UNL     1      46.838   2.022   6.617  0.00  0.00    +0.000 A 
ATOM     18  C   UNL     1      46.612   3.389   6.545  0.00  0.00    +0.000 A 
ATOM     19  N   UNL     1      45.968   4.082   7.516  0.00  0.00    +0.000 NA
ENDBRANCH  11  14
ENDBRANCH   9  10
ENDBRANCH   6   9
ENDBRANCH   2   3
BRANCH   2  20
ATOM     20  N   UNL     1      48.064   8.488  16.068  0.00  0.00    +0.000 N 
ATOM     21  C   UNL     1      48.840   8.038  17.111  0.00  0.00    +0.000 C 
ATOM     22  O   UNL     1      49.970   7.593  16.945  0.00  0.00    +0.000 OA
ATOM     23  H   UNL     1      47.055   8.518  16.206  0.00  0.00    +0.000 HD
BRANCH  21  24
ATOM     24  C   UNL     1      48.286   8.157  18.462  0.00  0.00    +0.000 A 
ATOM     25  C   UNL     1      48.012   9.417  18.974  0.00  0.00    +0.000 A 
ATOM     26  S   UNL     1      47.437   9.392  20.579  0.00  0.00    +0.000 S 
ATOM     27  C   UNL     1      47.565   7.699  20.651  0.00  0.00    +0.000 A 
ATOM     28  N   UNL     1      47.282   7.024  21.802  0.00  0.00    +0.000 NA
ATOM     29  C   UNL     1      47.457   5.749  21.720  0.00  0.00    +0.000 A 
ATOM     30  N   UNL     1      47.861   5.082  20.593  0.00  0.00    +0.000 N 
ATOM     31  C   UNL     1      48.108   5.715  19.398  0.00  0.00    +0.000 A 
ATOM     32  O   UNL     1      48.394   5.088  18.381  0.00  0.00    +0.000 OA
ATOM     33  C   UNL     1      47.986   7.155  19.450  0.00  0.00    +0.000 A 
ATOM     34  H   UNL     1      47.945   4.077  20.590  0.00  0.00    +0.000 HD
ENDBRANCH  21  24
ENDBRANCH   2  20
TORSDOF 6
ENDMDL
MODEL 9
REMARK VINA RESULT:    -6.770      3.330      5.717
REMARK INTER + INTRA:         -10.247
REMARK INTER:                  -9.142
REMARK INTRA:                  -1.105
REMARK UNBOUND:                -1.102
REMARK  Name = 
REMARK  7 active torsions:
REMARK  status: ('A' for Active; 'I' for Inactive)
REMARK    1  A    between atoms: C_1  and  C_2
REMARK    2  A    between atoms: C_2  and  N_3
REMARK    3  A    between atoms: C_2  and  C_16
REMARK    4  A    between atoms: C_4  and  C_6
REMARK    5  A    between atoms: C_19  and  C_20
REMARK    6  A    between atoms: C_20  and  N_21
REMARK    7  A    between atoms: C_22  and  C_24
REMARK                            x       y       z     vdW  Elec       q    Type
REMARK                         _______ _______ _______ _____ _____    ______ ____
ROOT
ATOM      1  C   UNL     1      47.868   5.224  15.318  0.00  0.00    +0.000 C 
ATOM      2  C   UNL     1      47.522   6.348  14.329  0.00  0.00    +0.000 C 
ENDROOT
BRANCH   2   3
ATOM      3  C   UNL     1      46.520   5.841  13.298  0.00  0.00    +0.000 A 
ATOM      4  C   UNL     1      46.202   4.477  13.231  0.00  0.00    +0.000 A 
ATOM      5  C   UNL     1      45.333   3.990  12.244  0.00  0.00    +0.000 A 
ATOM      6  C   UNL     1      44.766   4.854  11.296  0.00  0.00    +0.000 A 
ATOM      7  C   UNL     1      45.054   6.222  11.387  0.00  0.00    +0.000 A 
ATOM      8  C   UNL     1      45.919   6.709  12.374  0.00  0.00    +0.000 A 
BRANCH   6   9
ATOM      9  C   UNL     1      43.914   4.328  10.169  0.00  0.00    +0.000 C 
BRANCH   9  10
ATOM     10  N   UNL     1      44.595   3.397   9.304  0.00  0.00    +0.000 N 
ATOM     11  C   UNL     1      45.519   3.849   8.380  0.00  0.00    +0.000 C 
ATOM     12  O   UNL     1      45.803   5.034   8.233  0.00  0.00    +0.000 OA
ATOM     13  H   UNL     1      44.529   2.396   9.457  0.00  0.00    +0.000 HD
BRANCH  11  14
ATOM     14  C   UNL     1      46.184   2.801   7.551  0.00  0.00    +0.000 A 
ATOM     15  C   UNL     1      46.555   3.086   6.240  0.00  0.00    +0.000 A 
ATOM     16  N   UNL     1      47.168   2.169   5.444  0.00  0.00    +0.000 NA
ATOM     17  C   UNL     1      47.389   0.964   6.015  0.00  0.00    +0.000 A 
ATOM     18  C   UNL     1      47.013   0.680   7.321  0.00  0.00    +0.000 A 
ATOM     19  N   UNL     1      46.407   1.585   8.127  0.00  0.00    +0.000 NA
ENDBRANCH  11  14
ENDBRANCH   9  10
ENDBRANCH   6   9
ENDBRANCH   2   3
BRANCH   2  20
ATOM     20  N   UNL     1      48.700   6.898  13.670  0.00  0.00    +0.000 N 
ATOM     21  C   UNL     1      48.908   8.255  13.598  0.00  0.00    +0.000 C 
ATOM     22  O   UNL     1      48.146   9.066  14.113  0.00  0.00    +0.000 OA
ATOM     23  H   UNL     1      49.142   6.311  12.965  0.00  0.00    +0.000 HD
BRANCH  21  24
ATOM     24  C   UNL     1      50.121   8.714  12.916  0.00  0.00    +0.000 A 
ATOM     25  C   UNL     1      50.005   9.427  11.731  0.00  0.00    +0.000 A 
ATOM     26  S   UNL     1      51.504   9.832  11.027  0.00  0.00    +0.000 S 
ATOM     27  C   UNL     1      52.356   9.041  12.267  0.00  0.00    +0.000 A 
ATOM     28  N   UNL     1      53.717   8.954  12.236  0.00  0.00    +0.000 NA
ATOM     29  C   UNL     1      54.224   8.298  13.223  0.00  0.00    +0.000 A 
ATOM     30  N   UNL     1      53.506   7.743  14.250  0.00  0.00    +0.000 N 
ATOM     31  C   UNL     1      52.139   7.849  14.349  0.00  0.00    +0.000 A 
ATOM     32  O   UNL     1      51.524   7.412  15.319  0.00  0.00    +0.000 OA
ATOM     33  C   UNL     1      51.511   8.526  13.235  0.00  0.00    +0.000 A 
ATOM     34  H   UNL     1      53.971   7.270  15.010  0.00  0.00    +0.000 HD
ENDBRANCH  21  24
ENDBRANCH   2  20
TORSDOF 6
ENDMDL
