MODEL 1
REMARK VINA RESULT:    -8.590      0.000      0.000
REMARK INTER + INTRA:         -13.163
REMARK INTER:                 -12.106
REMARK INTRA:                  -1.057
REMARK UNBOUND:                -1.057
REMARK  Name = 
REMARK  8 active torsions:
REMARK  status: ('A' for Active; 'I' for Inactive)
REMARK    1  A    between atoms: C_1  and  C_2
REMARK    2  A    between atoms: C_2  and  C_3
REMARK    3  A    between atoms: C_2  and  C_14
REMARK    4  A    between atoms: C_3  and  O_4
REMARK    5  A    between atoms: O_4  and  C_5
REMARK    6  A    between atoms: C_8  and  C_9
REMARK    7  A    between atoms: C_19  and  O_20
REMARK    8  A    between atoms: O_20  and  C_21
REMARK                            x       y       z     vdW  Elec       q    Type
REMARK                         _______ _______ _______ _____ _____    ______ ____
ROOT
ATOM      1  C   UNL     1      42.504   5.655  11.840  0.00  0.00    +0.000 C 
ATOM      2  C   UNL     1      43.453   4.537  12.278  0.00  0.00    +0.000 C 
ENDROOT
BRANCH   2   3
ATOM      3  C   UNL     1      44.835   5.084  12.608  0.00  0.00    +0.000 A 
ATOM      4  C   UNL     1      45.331   6.281  12.074  0.00  0.00    +0.000 A 
ATOM      5  C   UNL     1      46.619   6.702  12.408  0.00  0.00    +0.000 A 
ATOM      6  F   UNL     1      47.090   7.840  11.880  0.00  0.00    +0.000 F 
ATOM      7  C   UNL     1      47.423   5.963  13.278  0.00  0.00    +0.000 A 
ATOM      8  C   UNL     1      46.934   4.789  13.849  0.00  0.00    +0.000 A 
ATOM      9  C   UNL     1      45.655   4.354  13.489  0.00  0.00    +0.000 A 
BRANCH   8  10
ATOM     10  O   UNL     1      47.773   4.133  14.724  0.00  0.00    +0.000 OA
BRANCH  10  11
ATOM     11  C   UNL     1      47.550   4.339  16.126  0.00  0.00    +0.000 C 
ATOM     12  C   UNL     1      48.502   5.357  16.741  0.00  0.00    +0.000 C 
ATOM     13  C   UNL     1      48.733   4.920  18.182  0.00  0.00    +0.000 C 
ATOM     14  C   UNL     1      48.147   3.522  18.336  0.00  0.00    +0.000 C 
ATOM     15  C   UNL     1      47.753   3.053  16.939  0.00  0.00    +0.000 C 
ENDBRANCH  10  11
ENDBRANCH   8  10
ENDBRANCH   2   3
BRANCH   2  16
ATOM     16  C   UNL     1      43.522   3.406  11.239  0.00  0.00    +0.000 C 
BRANCH  16  17
ATOM     17  O   UNL     1      43.510   3.950   9.905  0.00  0.00    +0.000 OA
BRANCH  17  18
ATOM     18  C   UNL     1      44.544   3.441   9.137  0.00  0.00    +0.000 A 
ATOM     19  C   UNL     1      44.854   2.093   9.246  0.00  0.00    +0.000 A 
ATOM     20  C   UNL     1      45.866   1.585   8.425  0.00  0.00    +0.000 A 
ATOM     21  C   UNL     1      46.527   2.425   7.521  0.00  0.00    +0.000 A 
ATOM     22  C   UNL     1      46.140   3.760   7.505  0.00  0.00    +0.000 A 
ATOM     23  N   UNL     1      45.180   4.275   8.289  0.00  0.00    +0.000 NA
BRANCH  21  24
ATOM     24  C   UNL     1      47.568   1.880   6.626  0.00  0.00    +0.000 C 
ATOM     25  N   UNL     1      48.694   2.622   6.363  0.00  0.00    +0.000 N 
ATOM     26  O   UNL     1      47.440   0.775   6.108  0.00  0.00    +0.000 OA
ATOM     27  H   UNL     1      48.904   3.540   6.723  0.00  0.00    +0.000 HD
ATOM     28  H   UNL     1      49.368   2.204   5.737  0.00  0.00    +0.000 HD
ENDBRANCH  21  24
ENDBRANCH  17  18
ENDBRANCH  16  17
ENDBRANCH   2  16
TORSDOF 7
ENDMDL
MODEL 2
REMARK VINA RESULT:    -8.035      2.245      3.649
REMARK INTER + INTRA:         -12.381
REMARK INTER:                 -11.178
REMARK INTRA:                  -1.203
REMARK UNBOUND:                -1.057
REMARK  Name = 
REMARK  8 active torsions:
REMARK  status: ('A' for Active; 'I' for Inactive)
REMARK    1  A    between atoms: C_1  and  C_2
REMARK    2  A    between atoms: C_2  and  C_3
REMARK    3  A    between atoms: C_2  and  C_14
REMARK    4  A    between atoms: C_3  and  O_4
REMARK    5  A    between atoms: O_4  and  C_5
REMARK    6  A    between atoms: C_8  and  C_9
REMARK    7  A    between atoms: C_19  and  O_20
REMARK    8  A    between atoms: O_20  and  C_21
REMARK                            x       y       z     vdW  Elec       q    Type
REMARK                         _______ _______ _______ _____ _____    ______ ____
ROOT
ATOM      1  C   UNL     1      42.884   6.164  11.502  0.00  0.00    +0.000 C 
ATOM      2  C   UNL     1      43.587   4.926  12.063  0.00  0.00    +0.000 C 
ENDROOT
BRANCH   2   3
ATOM      3  C   UNL     1      45.008   5.250  12.505  0.00  0.00    +0.000 A 
ATOM      4  C   UNL     1      45.595   4.700  13.652  0.00  0.00    +0.000 A 
ATOM      5  C   UNL     1      46.895   5.067  14.002  0.00  0.00    +0.000 A 
ATOM      6  F   UNL     1      47.443   4.546  15.110  0.00  0.00    +0.000 F 
ATOM      7  C   UNL     1      47.633   5.961  13.226  0.00  0.00    +0.000 A 
ATOM      8  C   UNL     1      47.080   6.491  12.060  0.00  0.00    +0.000 A 
ATOM      9  C   UNL     1      45.767   6.145  11.728  0.00  0.00    +0.000 A 
BRANCH   8  10
ATOM     10  O   UNL     1      47.881   7.341  11.328  0.00  0.00    +0.000 OA
BRANCH  10  11
ATOM     11  C   UNL     1      48.976   7.963  12.015  0.00  0.00    +0.000 C 
ATOM     12  C   UNL     1      48.868   9.482  12.064  0.00  0.00    +0.000 C 
ATOM     13  C   UNL     1      50.292  10.021  12.039  0.00  0.00    +0.000 C 
ATOM     14  C   UNL     1      51.216   8.855  11.707  0.00  0.00    +0.000 C 
ATOM     15  C   UNL     1      50.322   7.676  11.336  0.00  0.00    +0.000 C 
ENDBRANCH  10  11
ENDBRANCH   8  10
ENDBRANCH   2   3
BRANCH   2  16
ATOM     16  C   UNL     1      43.555   3.752  11.071  0.00  0.00    +0.000 C 
BRANCH  16  17
ATOM     17  O   UNL     1      43.624   4.238   9.716  0.00  0.00    +0.000 OA
BRANCH  17  18
ATOM     18  C   UNL     1      44.661   3.647   9.014  0.00  0.00    +0.000 A 
ATOM     19  C   UNL     1      44.885   2.287   9.176  0.00  0.00    +0.000 A 
ATOM     20  C   UNL     1      45.902   1.697   8.419  0.00  0.00    +0.000 A 
ATOM     21  C   UNL     1      46.655   2.469   7.526  0.00  0.00    +0.000 A 
ATOM     22  C   UNL     1      46.349   3.824   7.455  0.00  0.00    +0.000 A 
ATOM     23  N   UNL     1      45.385   4.417   8.176  0.00  0.00    +0.000 NA
BRANCH  21  24
ATOM     24  C   UNL     1      47.703   1.838   6.698  0.00  0.00    +0.000 C 
ATOM     25  N   UNL     1      48.739   2.600   6.217  0.00  0.00    +0.000 N 
ATOM     26  O   UNL     1      47.659   0.641   6.429  0.00  0.00    +0.000 OA
ATOM     27  H   UNL     1      48.875   3.588   6.366  0.00  0.00    +0.000 HD
ATOM     28  H   UNL     1      49.422   2.119   5.649  0.00  0.00    +0.000 HD
ENDBRANCH  21  24
ENDBRANCH  17  18
ENDBRANCH  16  17
ENDBRANCH   2  16
TORSDOF 7
ENDMDL
MODEL 3
REMARK VINA RESULT:    -7.728      3.376      8.341
REMARK INTER + INTRA:         -11.947
REMARK INTER:                 -11.316
REMARK INTRA:                  -0.631
REMARK UNBOUND:                -1.057
REMARK  Name = 
REMARK  8 active torsions:
REMARK  status: ('A' for Active; 'I' for Inactive)
REMARK    1  A    between atoms: C_1  and  C_2
REMARK    2  A    between atoms: C_2  and  C_3
REMARK    3  A    between atoms: C_2  and  C_14
REMARK    4  A    between atoms: C_3  and  O_4
REMARK    5  A    between atoms: O_4  and  C_5
REMARK    6  A    between atoms: C_8  and  C_9
REMARK    7  A    between atoms: C_19  and  O_20
REMARK    8  A    between atoms: O_20  and  C_21
REMARK                            x       y       z     vdW  Elec       q    Type
REMARK                         _______ _______ _______ _____ _____    ______ ____
ROOT
ATOM      1  C   UNL     1      44.859   7.834  11.480  0.00  0.00    +0.000 C 
ATOM      2  C   UNL     1      45.781   6.626  11.656  0.00  0.00    +0.000 C 
ENDROOT
BRANCH   2   3
ATOM      3  C   UNL     1      45.221   5.396  10.954  0.00  0.00    +0.000 A 
ATOM      4  C   UNL     1      44.404   4.456  11.596  0.00  0.00    +0.000 A 
ATOM      5  C   UNL     1      43.951   3.342  10.888  0.00  0.00    +0.000 A 
ATOM      6  F   UNL     1      43.182   2.440  11.516  0.00  0.00    +0.000 F 
ATOM      7  C   UNL     1      44.280   3.150   9.546  0.00  0.00    +0.000 A 
ATOM      8  C   UNL     1      45.061   4.093   8.879  0.00  0.00    +0.000 A 
ATOM      9  C   UNL     1      45.539   5.192   9.598  0.00  0.00    +0.000 A 
BRANCH   8  10
ATOM     10  O   UNL     1      45.316   3.851   7.546  0.00  0.00    +0.000 OA
BRANCH  10  11
ATOM     11  C   UNL     1      46.552   3.198   7.224  0.00  0.00    +0.000 C 
ATOM     12  C   UNL     1      46.786   3.062   5.725  0.00  0.00    +0.000 C 
ATOM     13  C   UNL     1      47.571   1.773   5.521  0.00  0.00    +0.000 C 
ATOM     14  C   UNL     1      47.566   1.021   6.847  0.00  0.00    +0.000 C 
ATOM     15  C   UNL     1      46.609   1.765   7.772  0.00  0.00    +0.000 C 
ENDBRANCH  10  11
ENDBRANCH   8  10
ENDBRANCH   2   3
BRANCH   2  16
ATOM     16  C   UNL     1      46.081   6.347  13.138  0.00  0.00    +0.000 C 
BRANCH  16  17
ATOM     17  O   UNL     1      47.286   5.567  13.268  0.00  0.00    +0.000 OA
BRANCH  17  18
ATOM     18  C   UNL     1      47.583   5.304  14.595  0.00  0.00    +0.000 A 
ATOM     19  C   UNL     1      46.984   4.211  15.208  0.00  0.00    +0.000 A 
ATOM     20  C   UNL     1      47.335   3.929  16.531  0.00  0.00    +0.000 A 
ATOM     21  C   UNL     1      48.269   4.730  17.198  0.00  0.00    +0.000 A 
ATOM     22  C   UNL     1      48.797   5.804  16.489  0.00  0.00    +0.000 A 
ATOM     23  N   UNL     1      48.470   6.102  15.222  0.00  0.00    +0.000 NA
BRANCH  21  24
ATOM     24  C   UNL     1      48.670   4.408  18.583  0.00  0.00    +0.000 C 
ATOM     25  N   UNL     1      48.337   3.188  19.120  0.00  0.00    +0.000 N 
ATOM     26  O   UNL     1      49.292   5.217  19.265  0.00  0.00    +0.000 OA
ATOM     27  H   UNL     1      47.824   2.452  18.660  0.00  0.00    +0.000 HD
ATOM     28  H   UNL     1      48.627   3.025  20.074  0.00  0.00    +0.000 HD
ENDBRANCH  21  24
ENDBRANCH  17  18
ENDBRANCH  16  17
ENDBRANCH   2  16
TORSDOF 7
ENDMDL
MODEL 4
REMARK VINA RESULT:    -7.709      3.003      5.496
REMARK INTER + INTRA:         -11.921
REMARK INTER:                 -10.884
REMARK INTRA:                  -1.037
REMARK UNBOUND:                -1.057
REMARK  Name = 
REMARK  8 active torsions:
REMARK  status: ('A' for Active; 'I' for Inactive)
REMARK    1  A    between atoms: C_1  and  C_2
REMARK    2  A    between atoms: C_2  and  C_3
REMARK    3  A    between atoms: C_2  and  C_14
REMARK    4  A    between atoms: C_3  and  O_4
REMARK    5  A    between atoms: O_4  and  C_5
REMARK    6  A    between atoms: C_8  and  C_9
REMARK    7  A    between atoms: C_19  and  O_20
REMARK    8  A    between atoms: O_20  and  C_21
REMARK                            x       y       z     vdW  Elec       q    Type
REMARK                         _______ _______ _______ _____ _____    ______ ____
ROOT
ATOM      1  C   UNL     1      44.131   4.487  13.016  0.00  0.00    +0.000 C 
ATOM      2  C   UNL     1      44.822   4.917  11.721  0.00  0.00    +0.000 C 
ENDROOT
BRANCH   2   3
ATOM      3  C   UNL     1      45.465   6.290  11.867  0.00  0.00    +0.000 A 
ATOM      4  C   UNL     1      46.829   6.471  12.127  0.00  0.00    +0.000 A 
ATOM      5  C   UNL     1      47.336   7.763  12.271  0.00  0.00    +0.000 A 
ATOM      6  F   UNL     1      48.641   7.926  12.536  0.00  0.00    +0.000 F 
ATOM      7  C   UNL     1      46.515   8.885  12.145  0.00  0.00    +0.000 A 
ATOM      8  C   UNL     1      45.162   8.727  11.849  0.00  0.00    +0.000 A 
ATOM      9  C   UNL     1      44.651   7.431  11.736  0.00  0.00    +0.000 A 
BRANCH   8  10
ATOM     10  O   UNL     1      44.422   9.881  11.707  0.00  0.00    +0.000 OA
BRANCH  10  11
ATOM     11  C   UNL     1      43.422   9.896  10.678  0.00  0.00    +0.000 C 
ATOM     12  C   UNL     1      43.859  10.645   9.426  0.00  0.00    +0.000 C 
ATOM     13  C   UNL     1      42.604  11.268   8.830  0.00  0.00    +0.000 C 
ATOM     14  C   UNL     1      41.488  11.119   9.858  0.00  0.00    +0.000 C 
ATOM     15  C   UNL     1      42.133  10.593  11.136  0.00  0.00    +0.000 C 
ENDBRANCH  10  11
ENDBRANCH   8  10
ENDBRANCH   2   3
BRANCH   2  16
ATOM     16  C   UNL     1      43.867   4.861  10.518  0.00  0.00    +0.000 C 
BRANCH  16  17
ATOM     17  O   UNL     1      43.661   3.496  10.105  0.00  0.00    +0.000 OA
BRANCH  17  18
ATOM     18  C   UNL     1      44.604   3.096   9.174  0.00  0.00    +0.000 A 
ATOM     19  C   UNL     1      45.121   4.042   8.299  0.00  0.00    +0.000 A 
ATOM     20  C   UNL     1      46.112   3.631   7.401  0.00  0.00    +0.000 A 
ATOM     21  C   UNL     1      46.559   2.305   7.404  0.00  0.00    +0.000 A 
ATOM     22  C   UNL     1      45.962   1.442   8.316  0.00  0.00    +0.000 A 
ATOM     23  N   UNL     1      45.004   1.808   9.183  0.00  0.00    +0.000 NA
BRANCH  21  24
ATOM     24  C   UNL     1      47.632   1.881   6.482  0.00  0.00    +0.000 C 
ATOM     25  N   UNL     1      48.753   2.663   6.339  0.00  0.00    +0.000 N 
ATOM     26  O   UNL     1      47.536   0.842   5.836  0.00  0.00    +0.000 OA
ATOM     27  H   UNL     1      48.937   3.536   6.809  0.00  0.00    +0.000 HD
ATOM     28  H   UNL     1      49.450   2.330   5.689  0.00  0.00    +0.000 HD
ENDBRANCH  21  24
ENDBRANCH  17  18
ENDBRANCH  16  17
ENDBRANCH   2  16
TORSDOF 7
ENDMDL
MODEL 5
REMARK VINA RESULT:    -7.136      3.611      8.574
REMARK INTER + INTRA:         -11.114
REMARK INTER:                 -10.553
REMARK INTRA:                  -0.561
REMARK UNBOUND:                -1.057
REMARK  Name = 
REMARK  8 active torsions:
REMARK  status: ('A' for Active; 'I' for Inactive)
REMARK    1  A    between atoms: C_1  and  C_2
REMARK    2  A    between atoms: C_2  and  C_3
REMARK    3  A    between atoms: C_2  and  C_14
REMARK    4  A    between atoms: C_3  and  O_4
REMARK    5  A    between atoms: O_4  and  C_5
REMARK    6  A    between atoms: C_8  and  C_9
REMARK    7  A    between atoms: C_19  and  O_20
REMARK    8  A    between atoms: O_20  and  C_21
REMARK                            x       y       z     vdW  Elec       q    Type
REMARK                         _______ _______ _______ _____ _____    ______ ____
ROOT
ATOM      1  C   UNL     1      47.550   6.310  13.002  0.00  0.00    +0.000 C 
ATOM      2  C   UNL     1      46.791   4.990  13.158  0.00  0.00    +0.000 C 
ENDROOT
BRANCH   2   3
ATOM      3  C   UNL     1      45.570   4.943  12.249  0.00  0.00    +0.000 A 
ATOM      4  C   UNL     1      44.646   5.992  12.157  0.00  0.00    +0.000 A 
ATOM      5  C   UNL     1      43.539   5.861  11.318  0.00  0.00    +0.000 A 
ATOM      6  F   UNL     1      42.651   6.864  11.249  0.00  0.00    +0.000 F 
ATOM      7  C   UNL     1      43.338   4.712  10.551  0.00  0.00    +0.000 A 
ATOM      8  C   UNL     1      44.267   3.673  10.600  0.00  0.00    +0.000 A 
ATOM      9  C   UNL     1      45.359   3.794  11.465  0.00  0.00    +0.000 A 
BRANCH   8  10
ATOM     10  O   UNL     1      44.019   2.586   9.791  0.00  0.00    +0.000 OA
BRANCH  10  11
ATOM     11  C   UNL     1      44.679   2.552   8.517  0.00  0.00    +0.000 C 
ATOM     12  C   UNL     1      45.817   1.541   8.458  0.00  0.00    +0.000 C 
ATOM     13  C   UNL     1      46.861   2.115   7.508  0.00  0.00    +0.000 C 
ATOM     14  C   UNL     1      46.472   3.561   7.223  0.00  0.00    +0.000 C 
ATOM     15  C   UNL     1      45.319   3.901   8.161  0.00  0.00    +0.000 C 
ENDBRANCH  10  11
ENDBRANCH   8  10
ENDBRANCH   2   3
BRANCH   2  16
ATOM     16  C   UNL     1      46.420   4.715  14.624  0.00  0.00    +0.000 C 
BRANCH  16  17
ATOM     17  O   UNL     1      47.121   3.554  15.109  0.00  0.00    +0.000 OA
BRANCH  17  18
ATOM     18  C   UNL     1      47.789   3.819  16.293  0.00  0.00    +0.000 A 
ATOM     19  C   UNL     1      47.755   2.869  17.305  0.00  0.00    +0.000 A 
ATOM     20  C   UNL     1      48.479   3.130  18.473  0.00  0.00    +0.000 A 
ATOM     21  C   UNL     1      49.214   4.315  18.596  0.00  0.00    +0.000 A 
ATOM     22  C   UNL     1      49.166   5.198  17.523  0.00  0.00    +0.000 A 
ATOM     23  N   UNL     1      48.473   4.976  16.395  0.00  0.00    +0.000 NA
BRANCH  21  24
ATOM     24  C   UNL     1      50.009   4.572  19.813  0.00  0.00    +0.000 C 
ATOM     25  N   UNL     1      49.408   4.495  21.046  0.00  0.00    +0.000 N 
ATOM     26  O   UNL     1      51.200   4.860  19.741  0.00  0.00    +0.000 OA
ATOM     27  H   UNL     1      48.441   4.276  21.228  0.00  0.00    +0.000 HD
ATOM     28  H   UNL     1      49.997   4.690  21.843  0.00  0.00    +0.000 HD
ENDBRANCH  21  24
ENDBRANCH  17  18
ENDBRANCH  16  17
ENDBRANCH   2  16
TORSDOF 7
ENDMDL
MODEL 6
REMARK VINA RESULT:    -6.907      3.220      7.767
REMARK INTER + INTRA:         -10.790
REMARK INTER:                  -9.808
REMARK INTRA:                  -0.982
REMARK UNBOUND:                -1.057
REMARK  Name = 
REMARK  8 active torsions:
REMARK  status: ('A' for Active; 'I' for Inactive)
REMARK    1  A    between atoms: C_1  and  C_2
REMARK    2  A    between atoms: C_2  and  C_3
REMARK    3  A    between atoms: C_2  and  C_14
REMARK    4  A    between atoms: C_3  and  O_4
REMARK    5  A    between atoms: O_4  and  C_5
REMARK    6  A    between atoms: C_8  and  C_9
REMARK    7  A    between atoms: C_19  and  O_20
REMARK    8  A    between atoms: O_20  and  C_21
REMARK                            x       y       z     vdW  Elec       q    Type
REMARK                         _______ _______ _______ _____ _____    ______ ____
ROOT
ATOM      1  C   UNL     1      49.437   9.025  11.654  0.00  0.00    +0.000 C 
ATOM      2  C   UNL     1      48.832   7.630  11.824  0.00  0.00    +0.000 C 
ENDROOT
BRANCH   2   3
ATOM      3  C   UNL     1      47.311   7.675  11.763  0.00  0.00    +0.000 A 
ATOM      4  C   UNL     1      46.568   8.823  12.069  0.00  0.00    +0.000 A 
ATOM      5  C   UNL     1      45.175   8.776  12.012  0.00  0.00    +0.000 A 
ATOM      6  F   UNL     1      44.472   9.875  12.322  0.00  0.00    +0.000 F 
ATOM      7  C   UNL     1      44.501   7.612  11.639  0.00  0.00    +0.000 A 
ATOM      8  C   UNL     1      45.223   6.470  11.293  0.00  0.00    +0.000 A 
ATOM      9  C   UNL     1      46.618   6.511  11.381  0.00  0.00    +0.000 A 
BRANCH   8  10
ATOM     10  O   UNL     1      44.490   5.371  10.903  0.00  0.00    +0.000 OA
BRANCH  10  11
ATOM     11  C   UNL     1      45.197   4.313  10.239  0.00  0.00    +0.000 C 
ATOM     12  C   UNL     1      45.409   4.575   8.753  0.00  0.00    +0.000 C 
ATOM     13  C   UNL     1      45.388   3.216   8.065  0.00  0.00    +0.000 C 
ATOM     14  C   UNL     1      44.900   2.195   9.085  0.00  0.00    +0.000 C 
ATOM     15  C   UNL     1      44.441   2.979  10.310  0.00  0.00    +0.000 C 
ENDBRANCH  10  11
ENDBRANCH   8  10
ENDBRANCH   2   3
BRANCH   2  16
ATOM     16  C   UNL     1      49.328   6.945  13.107  0.00  0.00    +0.000 C 
BRANCH  16  17
ATOM     17  O   UNL     1      48.527   7.350  14.235  0.00  0.00    +0.000 OA
BRANCH  17  18
ATOM     18  C   UNL     1      48.329   6.306  15.122  0.00  0.00    +0.000 A 
ATOM     19  C   UNL     1      48.913   6.379  16.379  0.00  0.00    +0.000 A 
ATOM     20  C   UNL     1      48.659   5.341  17.281  0.00  0.00    +0.000 A 
ATOM     21  C   UNL     1      47.833   4.273  16.911  0.00  0.00    +0.000 A 
ATOM     22  C   UNL     1      47.312   4.299  15.622  0.00  0.00    +0.000 A 
ATOM     23  N   UNL     1      47.547   5.278  14.735  0.00  0.00    +0.000 NA
BRANCH  21  24
ATOM     24  C   UNL     1      47.534   3.196  17.877  0.00  0.00    +0.000 C 
ATOM     25  N   UNL     1      48.329   3.039  18.986  0.00  0.00    +0.000 N 
ATOM     26  O   UNL     1      46.588   2.435  17.701  0.00  0.00    +0.000 OA
ATOM     27  H   UNL     1      49.133   3.596  19.230  0.00  0.00    +0.000 HD
ATOM     28  H   UNL     1      48.084   2.281  19.608  0.00  0.00    +0.000 HD
ENDBRANCH  21  24
ENDBRANCH  17  18
ENDBRANCH  16  17
ENDBRANCH   2  16
TORSDOF 7
ENDMDL
MODEL 7
REMARK VINA RESULT:    -6.603      3.879      8.753
REMARK INTER + INTRA:         -10.362
REMARK INTER:                  -9.522
REMARK INTRA:                  -0.840
REMARK UNBOUND:                -1.057
REMARK  Name = 
REMARK  8 active torsions:
REMARK  status: ('A' for Active; 'I' for Inactive)
REMARK    1  A    between atoms: C_1  and  C_2
REMARK    2  A    between atoms: C_2  and  C_3
REMARK    3  A    between atoms: C_2  and  C_14
REMARK    4  A    between atoms: C_3  and  O_4
REMARK    5  A    between atoms: O_4  and  C_5
REMARK    6  A    between atoms: C_8  and  C_9
REMARK    7  A    between atoms: C_19  and  O_20
REMARK    8  A    between atoms: O_20  and  C_21
REMARK                            x       y       z     vdW  Elec       q    Type
REMARK                         _______ _______ _______ _____ _____    ______ ____
ROOT
ATOM      1  C   UNL     1      49.622   7.496  12.660  0.00  0.00    +0.000 C 
ATOM      2  C   UNL     1      48.521   6.587  13.209  0.00  0.00    +0.000 C 
ENDROOT
BRANCH   2   3
ATOM      3  C   UNL     1      47.156   6.978  12.658  0.00  0.00    +0.000 A 
ATOM      4  C   UNL     1      46.589   8.244  12.851  0.00  0.00    +0.000 A 
ATOM      5  C   UNL     1      45.322   8.516  12.334  0.00  0.00    +0.000 A 
ATOM      6  F   UNL     1      44.781   9.726  12.538  0.00  0.00    +0.000 F 
ATOM      7  C   UNL     1      44.609   7.558  11.612  0.00  0.00    +0.000 A 
ATOM      8  C   UNL     1      45.172   6.304  11.377  0.00  0.00    +0.000 A 
ATOM      9  C   UNL     1      46.429   6.024  11.922  0.00  0.00    +0.000 A 
BRANCH   8  10
ATOM     10  O   UNL     1      44.424   5.422  10.628  0.00  0.00    +0.000 OA
BRANCH  10  11
ATOM     11  C   UNL     1      45.099   4.269  10.104  0.00  0.00    +0.000 C 
ATOM     12  C   UNL     1      45.469   4.407   8.633  0.00  0.00    +0.000 C 
ATOM     13  C   UNL     1      45.399   3.009   8.033  0.00  0.00    +0.000 C 
ATOM     14  C   UNL     1      44.736   2.103   9.063  0.00  0.00    +0.000 C 
ATOM     15  C   UNL     1      44.232   3.005  10.185  0.00  0.00    +0.000 C 
ENDBRANCH  10  11
ENDBRANCH   8  10
ENDBRANCH   2   3
BRANCH   2  16
ATOM     16  C   UNL     1      48.524   6.549  14.746  0.00  0.00    +0.000 C 
BRANCH  16  17
ATOM     17  O   UNL     1      48.063   5.268  15.217  0.00  0.00    +0.000 OA
BRANCH  17  18
ATOM     18  C   UNL     1      48.284   5.113  16.575  0.00  0.00    +0.000 A 
ATOM     19  C   UNL     1      48.092   3.861  17.144  0.00  0.00    +0.000 A 
ATOM     20  C   UNL     1      48.371   3.711  18.506  0.00  0.00    +0.000 A 
ATOM     21  C   UNL     1      48.835   4.799  19.254  0.00  0.00    +0.000 A 
ATOM     22  C   UNL     1      48.980   6.008  18.582  0.00  0.00    +0.000 A 
ATOM     23  N   UNL     1      48.711   6.182  17.278  0.00  0.00    +0.000 NA
BRANCH  21  24
ATOM     24  C   UNL     1      49.167   4.630  20.683  0.00  0.00    +0.000 C 
ATOM     25  N   UNL     1      50.483   4.640  21.080  0.00  0.00    +0.000 N 
ATOM     26  O   UNL     1      48.286   4.476  21.522  0.00  0.00    +0.000 OA
ATOM     27  H   UNL     1      51.287   4.751  20.483  0.00  0.00    +0.000 HD
ATOM     28  H   UNL     1      50.652   4.511  22.068  0.00  0.00    +0.000 HD
ENDBRANCH  21  24
ENDBRANCH  17  18
ENDBRANCH  16  17
ENDBRANCH   2  16
TORSDOF 7
ENDMDL
MODEL 8
REMARK VINA RESULT:    -6.291      3.719      8.129
REMARK INTER + INTRA:          -9.922
REMARK INTER:                  -9.114
REMARK INTRA:                  -0.808
REMARK UNBOUND:                -1.057
REMARK  Name = 
REMARK  8 active torsions:
REMARK  status: ('A' for Active; 'I' for Inactive)
REMARK    1  A    between atoms: C_1  and  C_2
REMARK    2  A    between atoms: C_2  and  C_3
REMARK    3  A    between atoms: C_2  and  C_14
REMARK    4  A    between atoms: C_3  and  O_4
REMARK    5  A    between atoms: O_4  and  C_5
REMARK    6  A    between atoms: C_8  and  C_9
REMARK    7  A    between atoms: C_19  and  O_20
REMARK    8  A    between atoms: O_20  and  C_21
REMARK                            x       y       z     vdW  Elec       q    Type
REMARK                         _______ _______ _______ _____ _____    ______ ____
ROOT
ATOM      1  C   UNL     1      48.443   7.032  15.120  0.00  0.00    +0.000 C 
ATOM      2  C   UNL     1      47.826   5.832  14.400  0.00  0.00    +0.000 C 
ENDROOT
BRANCH   2   3
ATOM      3  C   UNL     1      46.764   6.273  13.401  0.00  0.00    +0.000 A 
ATOM      4  C   UNL     1      46.439   7.617  13.176  0.00  0.00    +0.000 A 
ATOM      5  C   UNL     1      45.436   7.937  12.259  0.00  0.00    +0.000 A 
ATOM      6  F   UNL     1      45.121   9.225  12.062  0.00  0.00    +0.000 F 
ATOM      7  C   UNL     1      44.758   6.947  11.548  0.00  0.00    +0.000 A 
ATOM      8  C   UNL     1      45.093   5.605  11.730  0.00  0.00    +0.000 A 
ATOM      9  C   UNL     1      46.076   5.286  12.671  0.00  0.00    +0.000 A 
BRANCH   8  10
ATOM     10  O   UNL     1      44.403   4.688  10.968  0.00  0.00    +0.000 OA
BRANCH  10  11
ATOM     11  C   UNL     1      45.174   3.841  10.104  0.00  0.00    +0.000 C 
ATOM     12  C   UNL     1      45.517   4.496   8.772  0.00  0.00    +0.000 C 
ATOM     13  C   UNL     1      45.568   3.379   7.738  0.00  0.00    +0.000 C 
ATOM     14  C   UNL     1      44.998   2.125   8.391  0.00  0.00    +0.000 C 
ATOM     15  C   UNL     1      44.424   2.552   9.739  0.00  0.00    +0.000 C 
ENDBRANCH  10  11
ENDBRANCH   8  10
ENDBRANCH   2   3
BRANCH   2  16
ATOM     16  C   UNL     1      47.278   4.792  15.390  0.00  0.00    +0.000 C 
BRANCH  16  17
ATOM     17  O   UNL     1      47.849   4.994  16.697  0.00  0.00    +0.000 OA
BRANCH  17  18
ATOM     18  C   UNL     1      48.938   4.165  16.912  0.00  0.00    +0.000 A 
ATOM     19  C   UNL     1      50.096   4.712  17.449  0.00  0.00    +0.000 A 
ATOM     20  C   UNL     1      51.167   3.851  17.709  0.00  0.00    +0.000 A 
ATOM     21  C   UNL     1      51.053   2.483  17.435  0.00  0.00    +0.000 A 
ATOM     22  C   UNL     1      49.850   2.049  16.888  0.00  0.00    +0.000 A 
ATOM     23  N   UNL     1      48.811   2.855  16.621  0.00  0.00    +0.000 NA
BRANCH  21  24
ATOM     24  C   UNL     1      52.170   1.568  17.746  0.00  0.00    +0.000 C 
ATOM     25  N   UNL     1      53.464   2.019  17.648  0.00  0.00    +0.000 N 
ATOM     26  O   UNL     1      51.961   0.407  18.085  0.00  0.00    +0.000 OA
ATOM     27  H   UNL     1      53.757   2.944  17.373  0.00  0.00    +0.000 HD
ATOM     28  H   UNL     1      54.189   1.348  17.863  0.00  0.00    +0.000 HD
ENDBRANCH  21  24
ENDBRANCH  17  18
ENDBRANCH  16  17
ENDBRANCH   2  16
TORSDOF 7
ENDMDL
MODEL 9
REMARK VINA RESULT:    -6.174      4.167      6.138
REMARK INTER + INTRA:          -9.757
REMARK INTER:                  -8.436
REMARK INTRA:                  -1.321
REMARK UNBOUND:                -1.057
REMARK  Name = 
REMARK  8 active torsions:
REMARK  status: ('A' for Active; 'I' for Inactive)
REMARK    1  A    between atoms: C_1  and  C_2
REMARK    2  A    between atoms: C_2  and  C_3
REMARK    3  A    between atoms: C_2  and  C_14
REMARK    4  A    between atoms: C_3  and  O_4
REMARK    5  A    between atoms: O_4  and  C_5
REMARK    6  A    between atoms: C_8  and  C_9
REMARK    7  A    between atoms: C_19  and  O_20
REMARK    8  A    between atoms: O_20  and  C_21
REMARK                            x       y       z     vdW  Elec       q    Type
REMARK                         _______ _______ _______ _____ _____    ______ ____
ROOT
ATOM      1  C   UNL     1      50.742   8.348  14.570  0.00  0.00    +0.000 C 
ATOM      2  C   UNL     1      49.324   8.866  14.820  0.00  0.00    +0.000 C 
ENDROOT
BRANCH   2   3
ATOM      3  C   UNL     1      48.805   8.421  16.181  0.00  0.00    +0.000 A 
ATOM      4  C   UNL     1      48.065   9.257  17.027  0.00  0.00    +0.000 A 
ATOM      5  C   UNL     1      47.645   8.780  18.270  0.00  0.00    +0.000 A 
ATOM      6  F   UNL     1      46.951   9.594  19.079  0.00  0.00    +0.000 F 
ATOM      7  C   UNL     1      47.933   7.479  18.685  0.00  0.00    +0.000 A 
ATOM      8  C   UNL     1      48.636   6.619  17.842  0.00  0.00    +0.000 A 
ATOM      9  C   UNL     1      49.081   7.109  16.611  0.00  0.00    +0.000 A 
BRANCH   8  10
ATOM     10  O   UNL     1      48.853   5.341  18.307  0.00  0.00    +0.000 OA
BRANCH  10  11
ATOM     11  C   UNL     1      49.275   4.358  17.350  0.00  0.00    +0.000 C 
ATOM     12  C   UNL     1      48.151   3.429  16.908  0.00  0.00    +0.000 C 
ATOM     13  C   UNL     1      48.793   2.080  16.613  0.00  0.00    +0.000 C 
ATOM     14  C   UNL     1      50.225   2.131  17.132  0.00  0.00    +0.000 C 
ATOM     15  C   UNL     1      50.365   3.434  17.912  0.00  0.00    +0.000 C 
ENDBRANCH  10  11
ENDBRANCH   8  10
ENDBRANCH   2   3
BRANCH   2  16
ATOM     16  C   UNL     1      48.363   8.469  13.688  0.00  0.00    +0.000 C 
BRANCH  16  17
ATOM     17  O   UNL     1      48.590   7.102  13.293  0.00  0.00    +0.000 OA
BRANCH  17  18
ATOM     18  C   UNL     1      47.409   6.382  13.245  0.00  0.00    +0.000 A 
ATOM     19  C   UNL     1      46.238   7.043  12.899  0.00  0.00    +0.000 A 
ATOM     20  C   UNL     1      45.064   6.289  12.803  0.00  0.00    +0.000 A 
ATOM     21  C   UNL     1      45.090   4.911  13.046  0.00  0.00    +0.000 A 
ATOM     22  C   UNL     1      46.317   4.357  13.396  0.00  0.00    +0.000 A 
ATOM     23  N   UNL     1      47.456   5.059  13.503  0.00  0.00    +0.000 NA
BRANCH  21  24
ATOM     24  C   UNL     1      43.858   4.108  12.907  0.00  0.00    +0.000 C 
ATOM     25  N   UNL     1      43.950   2.759  12.663  0.00  0.00    +0.000 N 
ATOM     26  O   UNL     1      42.751   4.630  12.999  0.00  0.00    +0.000 OA
ATOM     27  H   UNL     1      44.799   2.226  12.561  0.00  0.00    +0.000 HD
ATOM     28  H   UNL     1      43.076   2.262  12.568  0.00  0.00    +0.000 HD
ENDBRANCH  21  24
ENDBRANCH  17  18
ENDBRANCH  16  17
ENDBRANCH   2  16
TORSDOF 7
ENDMDL
