MODEL 1
REMARK VINA RESULT:    -8.773      0.000      0.000
REMARK INTER + INTRA:         -15.324
REMARK INTER:                 -13.645
REMARK INTRA:                  -1.679
REMARK UNBOUND:                -1.679
REMARK  Name = 
REMARK  10 active torsions:
REMARK  status: ('A' for Active; 'I' for Inactive)
REMARK    1  A    between atoms: N_1  and  C_2
REMARK    2  A    between atoms: C_2  and  C_3
REMARK    3  A    between atoms: C_3  and  C_4
REMARK    4  A    between atoms: C_4  and  N_5
REMARK    5  A    between atoms: C_4  and  C_13
REMARK    6  A    between atoms: N_5  and  C_6
REMARK    7  A    between atoms: C_6  and  C_7
REMARK    8  A    between atoms: C_16  and  C_17
REMARK    9  A    between atoms: C_17  and  N_18
REMARK   10  A    between atoms: C_19  and  C_21
REMARK                            x       y       z     vdW  Elec       q    Type
REMARK                         _______ _______ _______ _____ _____    ______ ____
ROOT
ATOM      1  C   UNL     1      44.551   5.699  10.947  0.00  0.00    +0.000 A 
ATOM      2  C   UNL     1      44.033   6.654  11.842  0.00  0.00    +0.000 A 
ATOM      3  C   UNL     1      44.876   7.509  12.576  0.00  0.00    +0.000 A 
ATOM      4  C   UNL     1      46.267   7.449  12.427  0.00  0.00    +0.000 A 
ATOM      5  C   UNL     1      46.784   6.553  11.488  0.00  0.00    +0.000 A 
ATOM      6  C   UNL     1      45.939   5.707  10.742  0.00  0.00    +0.000 A 
ENDROOT
BRANCH   1   7
ATOM      7  C   UNL     1      43.609   4.688  10.267  0.00  0.00    +0.000 C 
BRANCH   7   8
ATOM      8  N   UNL     1      44.173   4.257   8.954  0.00  0.00    +0.000 NA
ATOM      9  H   UNL     1      43.426   4.291   8.257  0.00  0.00    +0.000 HD
BRANCH   8  10
ATOM     10  C   UNL     1      44.697   2.883   8.992  0.00  0.00    +0.000 C 
BRANCH  10  11
ATOM     11  C   UNL     1      45.818   2.587   8.020  0.00  0.00    +0.000 A 
ATOM     12  C   UNL     1      46.422   1.321   7.984  0.00  0.00    +0.000 A 
ATOM     13  C   UNL     1      47.293   0.978   6.947  0.00  0.00    +0.000 A 
ATOM     14  C   UNL     1      47.569   1.893   5.934  0.00  0.00    +0.000 A 
ATOM     15  C   UNL     1      46.984   3.157   5.961  0.00  0.00    +0.000 A 
ATOM     16  C   UNL     1      46.112   3.501   6.996  0.00  0.00    +0.000 A 
ENDBRANCH  10  11
ENDBRANCH   8  10
ENDBRANCH   7   8
BRANCH   7  17
ATOM     17  C   UNL     1      43.267   3.431  11.121  0.00  0.00    +0.000 C 
BRANCH  17  18
ATOM     18  C   UNL     1      43.803   3.335  12.547  0.00  0.00    +0.000 C 
BRANCH  18  19
ATOM     19  N   UNL     1      45.142   2.757  12.613  0.00  0.00    +0.000 NA
ATOM     20  H   UNL     1      45.713   3.176  11.880  0.00  0.00    +0.000 HD
ATOM     21  H   UNL     1      45.098   1.763  12.388  0.00  0.00    +0.000 HD
ENDBRANCH  18  19
ENDBRANCH  17  18
ENDBRANCH   7  17
ENDBRANCH   1   7
BRANCH   4  22
ATOM     22  C   UNL     1      47.182   8.289  13.290  0.00  0.00    +0.000 C 
BRANCH  22  23
ATOM     23  N   UNL     1      47.554   7.595  14.506  0.00  0.00    +0.000 N 
ATOM     24  C   UNL     1      48.733   6.896  14.608  0.00  0.00    +0.000 C 
ATOM     25  O   UNL     1      49.551   6.871  13.688  0.00  0.00    +0.000 OA
ATOM     26  H   UNL     1      46.818   7.434  15.186  0.00  0.00    +0.000 HD
BRANCH  24  27
ATOM     27  C   UNL     1      49.007   6.220  15.887  0.00  0.00    +0.000 A 
ATOM     28  C   UNL     1      50.041   6.675  16.697  0.00  0.00    +0.000 A 
ATOM     29  S   UNL     1      50.204   5.813  18.159  0.00  0.00    +0.000 S 
ATOM     30  C   UNL     1      48.933   4.764  17.743  0.00  0.00    +0.000 A 
ATOM     31  N   UNL     1      48.568   3.748  18.571  0.00  0.00    +0.000 NA
ATOM     32  C   UNL     1      47.607   3.015  18.119  0.00  0.00    +0.000 A 
ATOM     33  N   UNL     1      46.979   3.203  16.917  0.00  0.00    +0.000 N 
ATOM     34  C   UNL     1      47.296   4.229  16.061  0.00  0.00    +0.000 A 
ATOM     35  O   UNL     1      46.693   4.386  15.006  0.00  0.00    +0.000 OA
ATOM     36  C   UNL     1      48.378   5.081  16.514  0.00  0.00    +0.000 A 
ATOM     37  H   UNL     1      46.229   2.592  16.626  0.00  0.00    +0.000 HD
ENDBRANCH  24  27
ENDBRANCH  22  23
ENDBRANCH   4  22
TORSDOF 10
ENDMDL
MODEL 2
REMARK VINA RESULT:    -8.350      2.009      2.329
REMARK INTER + INTRA:         -14.666
REMARK INTER:                 -13.614
REMARK INTRA:                  -1.051
REMARK UNBOUND:                -1.679
REMARK  Name = 
REMARK  10 active torsions:
REMARK  status: ('A' for Active; 'I' for Inactive)
REMARK    1  A    between atoms: N_1  and  C_2
REMARK    2  A    between atoms: C_2  and  C_3
REMARK    3  A    between atoms: C_3  and  C_4
REMARK    4  A    between atoms: C_4  and  N_5
REMARK    5  A    between atoms: C_4  and  C_13
REMARK    6  A    between atoms: N_5  and  C_6
REMARK    7  A    between atoms: C_6  and  C_7
REMARK    8  A    between atoms: C_16  and  C_17
REMARK    9  A    between atoms: C_17  and  N_18
REMARK   10  A    between atoms: C_19  and  C_21
REMARK                            x       y       z     vdW  Elec       q    Type
REMARK                         _______ _______ _______ _____ _____    ______ ____
ROOT
ATOM      1  C   UNL     1      45.521   4.949  11.607  0.00  0.00    +0.000 A 
ATOM      2  C   UNL     1      45.868   4.521  12.902  0.00  0.00    +0.000 A 
ATOM      3  C   UNL     1      46.865   5.172  13.652  0.00  0.00    +0.000 A 
ATOM      4  C   UNL     1      47.539   6.286  13.136  0.00  0.00    +0.000 A 
ATOM      5  C   UNL     1      47.150   6.760  11.880  0.00  0.00    +0.000 A 
ATOM      6  C   UNL     1      46.141   6.116  11.137  0.00  0.00    +0.000 A 
ENDROOT
BRANCH   1   7
ATOM      7  C   UNL     1      44.526   4.129  10.765  0.00  0.00    +0.000 C 
BRANCH   7   8
ATOM      8  N   UNL     1      44.992   2.716  10.644  0.00  0.00    +0.000 NA
ATOM      9  H   UNL     1      46.005   2.699  10.773  0.00  0.00    +0.000 HD
BRANCH   8  10
ATOM     10  C   UNL     1      44.691   2.136   9.326  0.00  0.00    +0.000 C 
BRANCH  10  11
ATOM     11  C   UNL     1      45.793   2.250   8.297  0.00  0.00    +0.000 A 
ATOM     12  C   UNL     1      46.563   1.132   7.941  0.00  0.00    +0.000 A 
ATOM     13  C   UNL     1      47.421   1.181   6.840  0.00  0.00    +0.000 A 
ATOM     14  C   UNL     1      47.519   2.345   6.081  0.00  0.00    +0.000 A 
ATOM     15  C   UNL     1      46.768   3.466   6.428  0.00  0.00    +0.000 A 
ATOM     16  C   UNL     1      45.908   3.419   7.527  0.00  0.00    +0.000 A 
ENDBRANCH  10  11
ENDBRANCH   8  10
ENDBRANCH   7   8
BRANCH   7  17
ATOM     17  C   UNL     1      43.056   4.148  11.280  0.00  0.00    +0.000 C 
BRANCH  17  18
ATOM     18  C   UNL     1      42.497   5.434  11.882  0.00  0.00    +0.000 C 
BRANCH  18  19
ATOM     19  N   UNL     1      42.565   5.456  13.340  0.00  0.00    +0.000 NA
ATOM     20  H   UNL     1      42.564   6.427  13.651  0.00  0.00    +0.000 HD
ATOM     21  H   UNL     1      43.459   5.073  13.648  0.00  0.00    +0.000 HD
ENDBRANCH  18  19
ENDBRANCH  17  18
ENDBRANCH   7  17
ENDBRANCH   1   7
BRANCH   4  22
ATOM     22  C   UNL     1      48.685   6.924  13.889  0.00  0.00    +0.000 C 
BRANCH  22  23
ATOM     23  N   UNL     1      48.375   7.090  15.294  0.00  0.00    +0.000 N 
ATOM     24  C   UNL     1      49.254   6.704  16.278  0.00  0.00    +0.000 C 
ATOM     25  O   UNL     1      50.366   6.250  16.010  0.00  0.00    +0.000 OA
ATOM     26  H   UNL     1      47.404   7.264  15.533  0.00  0.00    +0.000 HD
BRANCH  24  27
ATOM     27  C   UNL     1      48.833   6.909  17.675  0.00  0.00    +0.000 A 
ATOM     28  C   UNL     1      48.526   8.190  18.119  0.00  0.00    +0.000 A 
ATOM     29  S   UNL     1      48.019   8.254  19.746  0.00  0.00    +0.000 S 
ATOM     30  C   UNL     1      48.241   6.579  19.936  0.00  0.00    +0.000 A 
ATOM     31  N   UNL     1      48.007   5.976  21.132  0.00  0.00    +0.000 NA
ATOM     32  C   UNL     1      48.241   4.707  21.141  0.00  0.00    +0.000 A 
ATOM     33  N   UNL     1      48.688   3.987  20.066  0.00  0.00    +0.000 N 
ATOM     34  C   UNL     1      48.914   4.548  18.832  0.00  0.00    +0.000 A 
ATOM     35  O   UNL     1      49.286   3.868  17.884  0.00  0.00    +0.000 OA
ATOM     36  C   UNL     1      48.677   5.977  18.767  0.00  0.00    +0.000 A 
ATOM     37  H   UNL     1      48.847   2.992  20.141  0.00  0.00    +0.000 HD
ENDBRANCH  24  27
ENDBRANCH  22  23
ENDBRANCH   4  22
TORSDOF 10
ENDMDL
MODEL 3
REMARK VINA RESULT:    -8.272      2.341      2.782
REMARK INTER + INTRA:         -14.546
REMARK INTER:                 -13.198
REMARK INTRA:                  -1.348
REMARK UNBOUND:                -1.679
REMARK  Name = 
REMARK  10 active torsions:
REMARK  status: ('A' for Active; 'I' for Inactive)
REMARK    1  A    between atoms: N_1  and  C_2
REMARK    2  A    between atoms: C_2  and  C_3
REMARK    3  A    between atoms: C_3  and  C_4
REMARK    4  A    between atoms: C_4  and  N_5
REMARK    5  A    between atoms: C_4  and  C_13
REMARK    6  A    between atoms: N_5  and  C_6
REMARK    7  A    between atoms: C_6  and  C_7
REMARK    8  A    between atoms: C_16  and  C_17
REMARK    9  A    between atoms: C_17  and  N_18
REMARK   10  A    between atoms: C_19  and  C_21
REMARK                            x       y       z     vdW  Elec       q    Type
REMARK                         _______ _______ _______ _____ _____    ______ ____
ROOT
ATOM      1  C   UNL     1      45.532   4.712  11.671  0.00  0.00    +0.000 A 
ATOM      2  C   UNL     1      46.046   5.939  11.212  0.00  0.00    +0.000 A 
ATOM      3  C   UNL     1      46.941   6.700  11.987  0.00  0.00    +0.000 A 
ATOM      4  C   UNL     1      47.367   6.250  13.242  0.00  0.00    +0.000 A 
ATOM      5  C   UNL     1      46.916   4.999  13.674  0.00  0.00    +0.000 A 
ATOM      6  C   UNL     1      46.032   4.231  12.891  0.00  0.00    +0.000 A 
ENDROOT
BRANCH   1   7
ATOM      7  C   UNL     1      44.450   3.977  10.860  0.00  0.00    +0.000 C 
BRANCH   7   8
ATOM      8  N   UNL     1      44.840   2.551  10.649  0.00  0.00    +0.000 NA
ATOM      9  H   UNL     1      45.843   2.463  10.822  0.00  0.00    +0.000 HD
BRANCH   8  10
ATOM     10  C   UNL     1      44.573   2.093   9.277  0.00  0.00    +0.000 C 
BRANCH  10  11
ATOM     11  C   UNL     1      45.721   2.248   8.304  0.00  0.00    +0.000 A 
ATOM     12  C   UNL     1      46.529   1.152   7.966  0.00  0.00    +0.000 A 
ATOM     13  C   UNL     1      47.438   1.238   6.908  0.00  0.00    +0.000 A 
ATOM     14  C   UNL     1      47.548   2.417   6.175  0.00  0.00    +0.000 A 
ATOM     15  C   UNL     1      46.757   3.517   6.504  0.00  0.00    +0.000 A 
ATOM     16  C   UNL     1      45.847   3.432   7.559  0.00  0.00    +0.000 A 
ENDBRANCH  10  11
ENDBRANCH   8  10
ENDBRANCH   7   8
BRANCH   7  17
ATOM     17  C   UNL     1      43.017   4.037  11.468  0.00  0.00    +0.000 C 
BRANCH  17  18
ATOM     18  C   UNL     1      42.459   5.384  11.920  0.00  0.00    +0.000 C 
BRANCH  18  19
ATOM     19  N   UNL     1      42.774   5.692  13.311  0.00  0.00    +0.000 NA
ATOM     20  H   UNL     1      43.673   6.173  13.342  0.00  0.00    +0.000 HD
ATOM     21  H   UNL     1      42.912   4.825  13.832  0.00  0.00    +0.000 HD
ENDBRANCH  18  19
ENDBRANCH  17  18
ENDBRANCH   7  17
ENDBRANCH   1   7
BRANCH   4  22
ATOM     22  C   UNL     1      48.242   7.111  14.126  0.00  0.00    +0.000 C 
BRANCH  22  23
ATOM     23  N   UNL     1      48.094   6.764  15.524  0.00  0.00    +0.000 N 
ATOM     24  C   UNL     1      49.166   6.362  16.286  0.00  0.00    +0.000 C 
ATOM     25  O   UNL     1      50.308   6.328  15.828  0.00  0.00    +0.000 OA
ATOM     26  H   UNL     1      47.151   6.589  15.857  0.00  0.00    +0.000 HD
BRANCH  24  27
ATOM     27  C   UNL     1      48.901   6.024  17.695  0.00  0.00    +0.000 A 
ATOM     28  C   UNL     1      49.163   4.739  18.155  0.00  0.00    +0.000 A 
ATOM     29  S   UNL     1      48.840   4.519  19.815  0.00  0.00    +0.000 S 
ATOM     30  C   UNL     1      48.288   6.119  19.972  0.00  0.00    +0.000 A 
ATOM     31  N   UNL     1      47.825   6.582  21.165  0.00  0.00    +0.000 NA
ATOM     32  C   UNL     1      47.414   7.805  21.135  0.00  0.00    +0.000 A 
ATOM     33  N   UNL     1      47.420   8.605  20.024  0.00  0.00    +0.000 N 
ATOM     34  C   UNL     1      47.900   8.189  18.806  0.00  0.00    +0.000 A 
ATOM     35  O   UNL     1      47.918   8.941  17.839  0.00  0.00    +0.000 OA
ATOM     36  C   UNL     1      48.367   6.817  18.779  0.00  0.00    +0.000 A 
ATOM     37  H   UNL     1      47.086   9.557  20.072  0.00  0.00    +0.000 HD
ENDBRANCH  24  27
ENDBRANCH  22  23
ENDBRANCH   4  22
TORSDOF 10
ENDMDL
MODEL 4
REMARK VINA RESULT:    -8.131      2.192      2.599
REMARK INTER + INTRA:         -14.326
REMARK INTER:                 -13.019
REMARK INTRA:                  -1.308
REMARK UNBOUND:                -1.679
REMARK  Name = 
REMARK  10 active torsions:
REMARK  status: ('A' for Active; 'I' for Inactive)
REMARK    1  A    between atoms: N_1  and  C_2
REMARK    2  A    between atoms: C_2  and  C_3
REMARK    3  A    between atoms: C_3  and  C_4
REMARK    4  A    between atoms: C_4  and  N_5
REMARK    5  A    between atoms: C_4  and  C_13
REMARK    6  A    between atoms: N_5  and  C_6
REMARK    7  A    between atoms: C_6  and  C_7
REMARK    8  A    between atoms: C_16  and  C_17
REMARK    9  A    between atoms: C_17  and  N_18
REMARK   10  A    between atoms: C_19  and  C_21
REMARK                            x       y       z     vdW  Elec       q    Type
REMARK                         _______ _______ _______ _____ _____    ______ ____
ROOT
ATOM      1  C   UNL     1      45.678   4.799  12.031  0.00  0.00    +0.000 A 
ATOM      2  C   UNL     1      46.276   6.024  11.678  0.00  0.00    +0.000 A 
ATOM      3  C   UNL     1      47.089   6.734  12.580  0.00  0.00    +0.000 A 
ATOM      4  C   UNL     1      47.345   6.235  13.863  0.00  0.00    +0.000 A 
ATOM      5  C   UNL     1      46.813   4.986  14.196  0.00  0.00    +0.000 A 
ATOM      6  C   UNL     1      46.012   4.268  13.286  0.00  0.00    +0.000 A 
ENDROOT
BRANCH   1   7
ATOM      7  C   UNL     1      44.686   4.121  11.070  0.00  0.00    +0.000 C 
BRANCH   7   8
ATOM      8  N   UNL     1      45.109   2.716  10.795  0.00  0.00    +0.000 NA
ATOM      9  H   UNL     1      46.129   2.675  10.828  0.00  0.00    +0.000 HD
BRANCH   8  10
ATOM     10  C   UNL     1      44.678   2.249   9.468  0.00  0.00    +0.000 C 
BRANCH  10  11
ATOM     11  C   UNL     1      45.737   2.286   8.389  0.00  0.00    +0.000 A 
ATOM     12  C   UNL     1      46.450   1.128   8.042  0.00  0.00    +0.000 A 
ATOM     13  C   UNL     1      47.260   1.107   6.904  0.00  0.00    +0.000 A 
ATOM     14  C   UNL     1      47.366   2.238   6.098  0.00  0.00    +0.000 A 
ATOM     15  C   UNL     1      46.670   3.397   6.435  0.00  0.00    +0.000 A 
ATOM     16  C   UNL     1      45.858   3.421   7.570  0.00  0.00    +0.000 A 
ENDBRANCH  10  11
ENDBRANCH   8  10
ENDBRANCH   7   8
BRANCH   7  17
ATOM     17  C   UNL     1      43.201   4.131  11.542  0.00  0.00    +0.000 C 
BRANCH  17  18
ATOM     18  C   UNL     1      42.619   5.413  12.132  0.00  0.00    +0.000 C 
BRANCH  18  19
ATOM     19  N   UNL     1      42.532   6.497  11.159  0.00  0.00    +0.000 NA
ATOM     20  H   UNL     1      42.249   6.106  10.260  0.00  0.00    +0.000 HD
ATOM     21  H   UNL     1      43.459   6.893  11.002  0.00  0.00    +0.000 HD
ENDBRANCH  18  19
ENDBRANCH  17  18
ENDBRANCH   7  17
ENDBRANCH   1   7
BRANCH   4  22
ATOM     22  C   UNL     1      48.127   7.043  14.875  0.00  0.00    +0.000 C 
BRANCH  22  23
ATOM     23  N   UNL     1      49.220   6.279  15.439  0.00  0.00    +0.000 N 
ATOM     24  C   UNL     1      49.220   5.883  16.756  0.00  0.00    +0.000 C 
ATOM     25  O   UNL     1      48.268   6.113  17.500  0.00  0.00    +0.000 OA
ATOM     26  H   UNL     1      50.087   6.259  14.912  0.00  0.00    +0.000 HD
BRANCH  24  27
ATOM     27  C   UNL     1      50.387   5.118  17.228  0.00  0.00    +0.000 A 
ATOM     28  C   UNL     1      51.496   5.792  17.724  0.00  0.00    +0.000 A 
ATOM     29  S   UNL     1      52.745   4.765  18.266  0.00  0.00    +0.000 S 
ATOM     30  C   UNL     1      51.873   3.379  17.810  0.00  0.00    +0.000 A 
ATOM     31  N   UNL     1      52.402   2.137  17.978  0.00  0.00    +0.000 NA
ATOM     32  C   UNL     1      51.643   1.178  17.566  0.00  0.00    +0.000 A 
ATOM     33  N   UNL     1      50.409   1.346  16.999  0.00  0.00    +0.000 N 
ATOM     34  C   UNL     1      49.824   2.578  16.832  0.00  0.00    +0.000 A 
ATOM     35  O   UNL     1      48.704   2.690  16.349  0.00  0.00    +0.000 OA
ATOM     36  C   UNL     1      50.638   3.695  17.270  0.00  0.00    +0.000 A 
ATOM     37  H   UNL     1      49.864   0.549  16.701  0.00  0.00    +0.000 HD
ENDBRANCH  24  27
ENDBRANCH  22  23
ENDBRANCH   4  22
TORSDOF 10
ENDMDL
MODEL 5
REMARK VINA RESULT:    -7.265      3.827      5.306
REMARK INTER + INTRA:         -12.978
REMARK INTER:                 -11.496
REMARK INTRA:                  -1.482
REMARK UNBOUND:                -1.679
REMARK  Name = 
REMARK  10 active torsions:
REMARK  status: ('A' for Active; 'I' for Inactive)
REMARK    1  A    between atoms: N_1  and  C_2
REMARK    2  A    between atoms: C_2  and  C_3
REMARK    3  A    between atoms: C_3  and  C_4
REMARK    4  A    between atoms: C_4  and  N_5
REMARK    5  A    between atoms: C_4  and  C_13
REMARK    6  A    between atoms: N_5  and  C_6
REMARK    7  A    between atoms: C_6  and  C_7
REMARK    8  A    between atoms: C_16  and  C_17
REMARK    9  A    between atoms: C_17  and  N_18
REMARK   10  A    between atoms: C_19  and  C_21
REMARK                            x       y       z     vdW  Elec       q    Type
REMARK                         _______ _______ _______ _____ _____    ______ ____
ROOT
ATOM      1  C   UNL     1      45.399   6.354  11.572  0.00  0.00    +0.000 A 
ATOM      2  C   UNL     1      46.617   6.200  12.262  0.00  0.00    +0.000 A 
ATOM      3  C   UNL     1      47.317   7.306  12.778  0.00  0.00    +0.000 A 
ATOM      4  C   UNL     1      46.814   8.605  12.636  0.00  0.00    +0.000 A 
ATOM      5  C   UNL     1      45.571   8.759  12.016  0.00  0.00    +0.000 A 
ATOM      6  C   UNL     1      44.863   7.649  11.512  0.00  0.00    +0.000 A 
ENDROOT
BRANCH   1   7
ATOM      7  C   UNL     1      44.733   5.139  10.902  0.00  0.00    +0.000 C 
BRANCH   7   8
ATOM      8  N   UNL     1      45.155   5.041   9.473  0.00  0.00    +0.000 NA
ATOM      9  H   UNL     1      44.864   5.894   8.993  0.00  0.00    +0.000 HD
BRANCH   8  10
ATOM     10  C   UNL     1      44.537   3.898   8.782  0.00  0.00    +0.000 C 
BRANCH  10  11
ATOM     11  C   UNL     1      45.488   3.013   8.008  0.00  0.00    +0.000 A 
ATOM     12  C   UNL     1      46.339   3.554   7.032  0.00  0.00    +0.000 A 
ATOM     13  C   UNL     1      47.367   2.785   6.481  0.00  0.00    +0.000 A 
ATOM     14  C   UNL     1      47.560   1.471   6.899  0.00  0.00    +0.000 A 
ATOM     15  C   UNL     1      46.718   0.917   7.861  0.00  0.00    +0.000 A 
ATOM     16  C   UNL     1      45.691   1.684   8.415  0.00  0.00    +0.000 A 
ENDBRANCH  10  11
ENDBRANCH   8  10
ENDBRANCH   7   8
BRANCH   7  17
ATOM     17  C   UNL     1      44.987   3.774  11.611  0.00  0.00    +0.000 C 
BRANCH  17  18
ATOM     18  C   UNL     1      43.841   3.108  12.368  0.00  0.00    +0.000 C 
BRANCH  18  19
ATOM     19  N   UNL     1      42.992   2.290  11.508  0.00  0.00    +0.000 NA
ATOM     20  H   UNL     1      43.429   2.222  10.589  0.00  0.00    +0.000 HD
ATOM     21  H   UNL     1      42.103   2.766  11.351  0.00  0.00    +0.000 HD
ENDBRANCH  18  19
ENDBRANCH  17  18
ENDBRANCH   7  17
ENDBRANCH   1   7
BRANCH   4  22
ATOM     22  C   UNL     1      47.611   9.806  13.092  0.00  0.00    +0.000 C 
BRANCH  22  23
ATOM     23  N   UNL     1      48.964   9.777  12.575  0.00  0.00    +0.000 N 
ATOM     24  C   UNL     1      49.297  10.389  11.390  0.00  0.00    +0.000 C 
ATOM     25  O   UNL     1      48.474  11.034  10.741  0.00  0.00    +0.000 OA
ATOM     26  H   UNL     1      49.595   9.092  12.978  0.00  0.00    +0.000 HD
BRANCH  24  27
ATOM     27  C   UNL     1      50.700  10.290  10.952  0.00  0.00    +0.000 A 
ATOM     28  C   UNL     1      51.403  11.444  10.631  0.00  0.00    +0.000 A 
ATOM     29  S   UNL     1      53.024  11.164  10.181  0.00  0.00    +0.000 S 
ATOM     30  C   UNL     1      52.834   9.483  10.347  0.00  0.00    +0.000 A 
ATOM     31  N   UNL     1      53.862   8.635  10.076  0.00  0.00    +0.000 NA
ATOM     32  C   UNL     1      53.571   7.386  10.219  0.00  0.00    +0.000 A 
ATOM     33  N   UNL     1      52.349   6.907  10.604  0.00  0.00    +0.000 N 
ATOM     34  C   UNL     1      51.289   7.725  10.912  0.00  0.00    +0.000 A 
ATOM     35  O   UNL     1      50.216   7.264  11.284  0.00  0.00    +0.000 OA
ATOM     36  C   UNL     1      51.557   9.142  10.760  0.00  0.00    +0.000 A 
ATOM     37  H   UNL     1      52.190   5.914  10.701  0.00  0.00    +0.000 HD
ENDBRANCH  24  27
ENDBRANCH  22  23
ENDBRANCH   4  22
TORSDOF 10
ENDMDL
MODEL 6
REMARK VINA RESULT:    -7.078      3.796     10.120
REMARK INTER + INTRA:         -12.689
REMARK INTER:                 -10.584
REMARK INTRA:                  -2.105
REMARK UNBOUND:                -1.679
REMARK  Name = 
REMARK  10 active torsions:
REMARK  status: ('A' for Active; 'I' for Inactive)
REMARK    1  A    between atoms: N_1  and  C_2
REMARK    2  A    between atoms: C_2  and  C_3
REMARK    3  A    between atoms: C_3  and  C_4
REMARK    4  A    between atoms: C_4  and  N_5
REMARK    5  A    between atoms: C_4  and  C_13
REMARK    6  A    between atoms: N_5  and  C_6
REMARK    7  A    between atoms: C_6  and  C_7
REMARK    8  A    between atoms: C_16  and  C_17
REMARK    9  A    between atoms: C_17  and  N_18
REMARK   10  A    between atoms: C_19  and  C_21
REMARK                            x       y       z     vdW  Elec       q    Type
REMARK                         _______ _______ _______ _____ _____    ______ ____
ROOT
ATOM      1  C   UNL     1      51.600   3.187  17.726  0.00  0.00    +0.000 A 
ATOM      2  C   UNL     1      50.873   2.043  17.343  0.00  0.00    +0.000 A 
ATOM      3  C   UNL     1      49.495   2.105  17.063  0.00  0.00    +0.000 A 
ATOM      4  C   UNL     1      48.800   3.318  17.142  0.00  0.00    +0.000 A 
ATOM      5  C   UNL     1      49.529   4.469  17.453  0.00  0.00    +0.000 A 
ATOM      6  C   UNL     1      50.911   4.409  17.718  0.00  0.00    +0.000 A 
ENDROOT
BRANCH   1   7
ATOM      7  C   UNL     1      53.071   3.056  18.158  0.00  0.00    +0.000 C 
BRANCH   7   8
ATOM      8  N   UNL     1      53.158   2.774  19.622  0.00  0.00    +0.000 NA
ATOM      9  H   UNL     1      52.221   2.555  19.963  0.00  0.00    +0.000 HD
BRANCH   8  10
ATOM     10  C   UNL     1      53.662   3.926  20.386  0.00  0.00    +0.000 C 
BRANCH  10  11
ATOM     11  C   UNL     1      52.641   4.999  20.695  0.00  0.00    +0.000 A 
ATOM     12  C   UNL     1      52.757   6.282  20.139  0.00  0.00    +0.000 A 
ATOM     13  C   UNL     1      51.706   7.198  20.239  0.00  0.00    +0.000 A 
ATOM     14  C   UNL     1      50.529   6.842  20.894  0.00  0.00    +0.000 A 
ATOM     15  C   UNL     1      50.403   5.575  21.459  0.00  0.00    +0.000 A 
ATOM     16  C   UNL     1      51.451   4.658  21.358  0.00  0.00    +0.000 A 
ENDBRANCH  10  11
ENDBRANCH   8  10
ENDBRANCH   7   8
BRANCH   7  17
ATOM     17  C   UNL     1      53.894   1.988  17.376  0.00  0.00    +0.000 C 
BRANCH  17  18
ATOM     18  C   UNL     1      54.374   0.738  18.110  0.00  0.00    +0.000 C 
BRANCH  18  19
ATOM     19  N   UNL     1      53.300  -0.218  18.365  0.00  0.00    +0.000 NA
ATOM     20  H   UNL     1      52.536  -0.029  17.716  0.00  0.00    +0.000 HD
ATOM     21  H   UNL     1      52.913  -0.059  19.295  0.00  0.00    +0.000 HD
ENDBRANCH  18  19
ENDBRANCH  17  18
ENDBRANCH   7  17
ENDBRANCH   1   7
BRANCH   4  22
ATOM     22  C   UNL     1      47.300   3.373  16.949  0.00  0.00    +0.000 C 
BRANCH  22  23
ATOM     23  N   UNL     1      46.923   4.379  15.979  0.00  0.00    +0.000 N 
ATOM     24  C   UNL     1      46.973   4.135  14.627  0.00  0.00    +0.000 C 
ATOM     25  O   UNL     1      47.291   3.032  14.181  0.00  0.00    +0.000 OA
ATOM     26  H   UNL     1      46.860   5.337  16.311  0.00  0.00    +0.000 HD
BRANCH  24  27
ATOM     27  C   UNL     1      46.576   5.232  13.729  0.00  0.00    +0.000 A 
ATOM     28  C   UNL     1      47.431   6.312  13.544  0.00  0.00    +0.000 A 
ATOM     29  S   UNL     1      46.845   7.478  12.447  0.00  0.00    +0.000 S 
ATOM     30  C   UNL     1      45.401   6.610  12.215  0.00  0.00    +0.000 A 
ATOM     31  N   UNL     1      44.426   7.086  11.395  0.00  0.00    +0.000 NA
ATOM     32  C   UNL     1      43.375   6.339  11.332  0.00  0.00    +0.000 A 
ATOM     33  N   UNL     1      43.209   5.165  12.015  0.00  0.00    +0.000 N 
ATOM     34  C   UNL     1      44.175   4.633  12.835  0.00  0.00    +0.000 A 
ATOM     35  O   UNL     1      44.004   3.564  13.408  0.00  0.00    +0.000 OA
ATOM     36  C   UNL     1      45.377   5.437  12.950  0.00  0.00    +0.000 A 
ATOM     37  H   UNL     1      42.360   4.627  11.918  0.00  0.00    +0.000 HD
ENDBRANCH  24  27
ENDBRANCH  22  23
ENDBRANCH   4  22
TORSDOF 10
ENDMDL
MODEL 7
REMARK VINA RESULT:    -7.049      3.529      8.983
REMARK INTER + INTRA:         -12.643
REMARK INTER:                 -10.157
REMARK INTRA:                  -2.486
REMARK UNBOUND:                -1.679
REMARK  Name = 
REMARK  10 active torsions:
REMARK  status: ('A' for Active; 'I' for Inactive)
REMARK    1  A    between atoms: N_1  and  C_2
REMARK    2  A    between atoms: C_2  and  C_3
REMARK    3  A    between atoms: C_3  and  C_4
REMARK    4  A    between atoms: C_4  and  N_5
REMARK    5  A    between atoms: C_4  and  C_13
REMARK    6  A    between atoms: N_5  and  C_6
REMARK    7  A    between atoms: C_6  and  C_7
REMARK    8  A    between atoms: C_16  and  C_17
REMARK    9  A    between atoms: C_17  and  N_18
REMARK   10  A    between atoms: C_19  and  C_21
REMARK                            x       y       z     vdW  Elec       q    Type
REMARK                         _______ _______ _______ _____ _____    ______ ____
ROOT
ATOM      1  C   UNL     1      50.359   5.233  17.208  0.00  0.00    +0.000 A 
ATOM      2  C   UNL     1      49.049   4.954  16.772  0.00  0.00    +0.000 A 
ATOM      3  C   UNL     1      48.384   5.788  15.855  0.00  0.00    +0.000 A 
ATOM      4  C   UNL     1      49.014   6.923  15.328  0.00  0.00    +0.000 A 
ATOM      5  C   UNL     1      50.338   7.167  15.702  0.00  0.00    +0.000 A 
ATOM      6  C   UNL     1      51.009   6.322  16.609  0.00  0.00    +0.000 A 
ENDROOT
BRANCH   1   7
ATOM      7  C   UNL     1      51.001   4.378  18.315  0.00  0.00    +0.000 C 
BRANCH   7   8
ATOM      8  N   UNL     1      49.997   4.061  19.373  0.00  0.00    +0.000 NA
ATOM      9  H   UNL     1      49.070   4.051  18.944  0.00  0.00    +0.000 HD
BRANCH   8  10
ATOM     10  C   UNL     1      49.986   5.060  20.454  0.00  0.00    +0.000 C 
BRANCH  10  11
ATOM     11  C   UNL     1      49.318   6.375  20.118  0.00  0.00    +0.000 A 
ATOM     12  C   UNL     1      50.076   7.545  19.957  0.00  0.00    +0.000 A 
ATOM     13  C   UNL     1      49.496   8.701  19.430  0.00  0.00    +0.000 A 
ATOM     14  C   UNL     1      48.154   8.703  19.057  0.00  0.00    +0.000 A 
ATOM     15  C   UNL     1      47.386   7.551  19.220  0.00  0.00    +0.000 A 
ATOM     16  C   UNL     1      47.965   6.394  19.744  0.00  0.00    +0.000 A 
ENDBRANCH  10  11
ENDBRANCH   8  10
ENDBRANCH   7   8
BRANCH   7  17
ATOM     17  C   UNL     1      51.668   3.058  17.824  0.00  0.00    +0.000 C 
BRANCH  17  18
ATOM     18  C   UNL     1      50.790   1.839  17.554  0.00  0.00    +0.000 C 
BRANCH  18  19
ATOM     19  N   UNL     1      51.434   0.582  17.923  0.00  0.00    +0.000 NA
ATOM     20  H   UNL     1      51.659   0.070  17.070  0.00  0.00    +0.000 HD
ATOM     21  H   UNL     1      50.770  -0.008  18.425  0.00  0.00    +0.000 HD
ENDBRANCH  18  19
ENDBRANCH  17  18
ENDBRANCH   7  17
ENDBRANCH   1   7
BRANCH   4  22
ATOM     22  C   UNL     1      48.269   7.883  14.427  0.00  0.00    +0.000 C 
BRANCH  22  23
ATOM     23  N   UNL     1      47.047   7.296  13.915  0.00  0.00    +0.000 N 
ATOM     24  C   UNL     1      46.898   6.984  12.585  0.00  0.00    +0.000 C 
ATOM     25  O   UNL     1      47.814   7.139  11.778  0.00  0.00    +0.000 OA
ATOM     26  H   UNL     1      46.227   7.352  14.510  0.00  0.00    +0.000 HD
BRANCH  24  27
ATOM     27  C   UNL     1      45.611   6.401  12.171  0.00  0.00    +0.000 A 
ATOM     28  C   UNL     1      44.631   7.218  11.620  0.00  0.00    +0.000 A 
ATOM     29  S   UNL     1      43.217   6.387  11.157  0.00  0.00    +0.000 S 
ATOM     30  C   UNL     1      43.837   4.909  11.724  0.00  0.00    +0.000 A 
ATOM     31  N   UNL     1      43.098   3.769  11.653  0.00  0.00    +0.000 NA
ATOM     32  C   UNL     1      43.681   2.728  12.143  0.00  0.00    +0.000 A 
ATOM     33  N   UNL     1      44.932   2.721  12.698  0.00  0.00    +0.000 N 
ATOM     34  C   UNL     1      45.725   3.841  12.769  0.00  0.00    +0.000 A 
ATOM     35  O   UNL     1      46.852   3.792  13.245  0.00  0.00    +0.000 OA
ATOM     36  C   UNL     1      45.115   5.045  12.240  0.00  0.00    +0.000 A 
ATOM     37  H   UNL     1      45.331   1.867  13.060  0.00  0.00    +0.000 HD
ENDBRANCH  24  27
ENDBRANCH  22  23
ENDBRANCH   4  22
TORSDOF 10
ENDMDL
MODEL 8
REMARK VINA RESULT:    -6.851      3.836     10.153
REMARK INTER + INTRA:         -12.336
REMARK INTER:                 -10.027
REMARK INTRA:                  -2.308
REMARK UNBOUND:                -1.679
REMARK  Name = 
REMARK  10 active torsions:
REMARK  status: ('A' for Active; 'I' for Inactive)
REMARK    1  A    between atoms: N_1  and  C_2
REMARK    2  A    between atoms: C_2  and  C_3
REMARK    3  A    between atoms: C_3  and  C_4
REMARK    4  A    between atoms: C_4  and  N_5
REMARK    5  A    between atoms: C_4  and  C_13
REMARK    6  A    between atoms: N_5  and  C_6
REMARK    7  A    between atoms: C_6  and  C_7
REMARK    8  A    between atoms: C_16  and  C_17
REMARK    9  A    between atoms: C_17  and  N_18
REMARK   10  A    between atoms: C_19  and  C_21
REMARK                            x       y       z     vdW  Elec       q    Type
REMARK                         _______ _______ _______ _____ _____    ______ ____
ROOT
ATOM      1  C   UNL     1      51.137   4.773  18.224  0.00  0.00    +0.000 A 
ATOM      2  C   UNL     1      50.904   3.416  17.927  0.00  0.00    +0.000 A 
ATOM      3  C   UNL     1      49.688   2.983  17.367  0.00  0.00    +0.000 A 
ATOM      4  C   UNL     1      48.668   3.895  17.069  0.00  0.00    +0.000 A 
ATOM      5  C   UNL     1      48.919   5.251  17.296  0.00  0.00    +0.000 A 
ATOM      6  C   UNL     1      50.143   5.686  17.842  0.00  0.00    +0.000 A 
ENDROOT
BRANCH   1   7
ATOM      7  C   UNL     1      52.421   5.190  18.963  0.00  0.00    +0.000 C 
BRANCH   7   8
ATOM      8  N   UNL     1      52.277   4.950  20.429  0.00  0.00    +0.000 NA
ATOM      9  H   UNL     1      51.604   4.193  20.565  0.00  0.00    +0.000 HD
BRANCH   8  10
ATOM     10  C   UNL     1      51.781   6.135  21.146  0.00  0.00    +0.000 C 
BRANCH  10  11
ATOM     11  C   UNL     1      50.279   6.219  21.304  0.00  0.00    +0.000 A 
ATOM     12  C   UNL     1      49.591   7.406  21.008  0.00  0.00    +0.000 A 
ATOM     13  C   UNL     1      48.196   7.420  20.937  0.00  0.00    +0.000 A 
ATOM     14  C   UNL     1      47.472   6.250  21.157  0.00  0.00    +0.000 A 
ATOM     15  C   UNL     1      48.141   5.066  21.460  0.00  0.00    +0.000 A 
ATOM     16  C   UNL     1      49.536   5.049  21.530  0.00  0.00    +0.000 A 
ENDBRANCH  10  11
ENDBRANCH   8  10
ENDBRANCH   7   8
BRANCH   7  17
ATOM     17  C   UNL     1      53.726   4.507  18.452  0.00  0.00    +0.000 C 
BRANCH  17  18
ATOM     18  C   UNL     1      54.490   3.575  19.389  0.00  0.00    +0.000 C 
BRANCH  18  19
ATOM     19  N   UNL     1      53.744   2.364  19.718  0.00  0.00    +0.000 NA
ATOM     20  H   UNL     1      54.305   1.555  19.453  0.00  0.00    +0.000 HD
ATOM     21  H   UNL     1      52.904   2.312  19.142  0.00  0.00    +0.000 HD
ENDBRANCH  18  19
ENDBRANCH  17  18
ENDBRANCH   7  17
ENDBRANCH   1   7
BRANCH   4  22
ATOM     22  C   UNL     1      47.320   3.425  16.569  0.00  0.00    +0.000 C 
BRANCH  22  23
ATOM     23  N   UNL     1      46.722   4.384  15.664  0.00  0.00    +0.000 N 
ATOM     24  C   UNL     1      46.739   4.200  14.302  0.00  0.00    +0.000 C 
ATOM     25  O   UNL     1      47.218   3.187  13.792  0.00  0.00    +0.000 OA
ATOM     26  H   UNL     1      46.512   5.303  16.042  0.00  0.00    +0.000 HD
BRANCH  24  27
ATOM     27  C   UNL     1      46.110   5.243  13.474  0.00  0.00    +0.000 A 
ATOM     28  C   UNL     1      46.779   6.440  13.250  0.00  0.00    +0.000 A 
ATOM     29  S   UNL     1      45.936   7.526  12.241  0.00  0.00    +0.000 S 
ATOM     30  C   UNL     1      44.618   6.460  12.108  0.00  0.00    +0.000 A 
ATOM     31  N   UNL     1      43.516   6.801  11.388  0.00  0.00    +0.000 NA
ATOM     32  C   UNL     1      42.583   5.909  11.393  0.00  0.00    +0.000 A 
ATOM     33  N   UNL     1      42.649   4.712  12.052  0.00  0.00    +0.000 N 
ATOM     34  C   UNL     1      43.751   4.314  12.770  0.00  0.00    +0.000 A 
ATOM     35  O   UNL     1      43.788   3.221  13.324  0.00  0.00    +0.000 OA
ATOM     36  C   UNL     1      44.829   5.283  12.807  0.00  0.00    +0.000 A 
ATOM     37  H   UNL     1      41.882   4.056  12.011  0.00  0.00    +0.000 HD
ENDBRANCH  24  27
ENDBRANCH  22  23
ENDBRANCH   4  22
TORSDOF 10
ENDMDL
MODEL 9
REMARK VINA RESULT:    -6.804      2.138      3.574
REMARK INTER + INTRA:         -12.262
REMARK INTER:                 -10.805
REMARK INTRA:                  -1.457
REMARK UNBOUND:                -1.679
REMARK  Name = 
REMARK  10 active torsions:
REMARK  status: ('A' for Active; 'I' for Inactive)
REMARK    1  A    between atoms: N_1  and  C_2
REMARK    2  A    between atoms: C_2  and  C_3
REMARK    3  A    between atoms: C_3  and  C_4
REMARK    4  A    between atoms: C_4  and  N_5
REMARK    5  A    between atoms: C_4  and  C_13
REMARK    6  A    between atoms: N_5  and  C_6
REMARK    7  A    between atoms: C_6  and  C_7
REMARK    8  A    between atoms: C_16  and  C_17
REMARK    9  A    between atoms: C_17  and  N_18
REMARK   10  A    between atoms: C_19  and  C_21
REMARK                            x       y       z     vdW  Elec       q    Type
REMARK                         _______ _______ _______ _____ _____    ______ ____
ROOT
ATOM      1  C   UNL     1      45.702   4.884  12.202  0.00  0.00    +0.000 A 
ATOM      2  C   UNL     1      46.173   5.837  13.125  0.00  0.00    +0.000 A 
ATOM      3  C   UNL     1      46.813   5.454  14.318  0.00  0.00    +0.000 A 
ATOM      4  C   UNL     1      47.019   4.103  14.621  0.00  0.00    +0.000 A 
ATOM      5  C   UNL     1      46.618   3.154  13.677  0.00  0.00    +0.000 A 
ATOM      6  C   UNL     1      45.991   3.539  12.475  0.00  0.00    +0.000 A 
ENDROOT
BRANCH   1   7
ATOM      7  C   UNL     1      44.885   5.335  10.978  0.00  0.00    +0.000 C 
BRANCH   7   8
ATOM      8  N   UNL     1      44.227   4.160  10.333  0.00  0.00    +0.000 NA
ATOM      9  H   UNL     1      44.637   3.309  10.722  0.00  0.00    +0.000 HD
BRANCH   8  10
ATOM     10  C   UNL     1      44.426   4.135   8.876  0.00  0.00    +0.000 C 
BRANCH  10  11
ATOM     11  C   UNL     1      45.545   3.243   8.386  0.00  0.00    +0.000 A 
ATOM     12  C   UNL     1      45.538   1.866   8.660  0.00  0.00    +0.000 A 
ATOM     13  C   UNL     1      46.441   1.010   8.025  0.00  0.00    +0.000 A 
ATOM     14  C   UNL     1      47.359   1.518   7.108  0.00  0.00    +0.000 A 
ATOM     15  C   UNL     1      47.383   2.883   6.832  0.00  0.00    +0.000 A 
ATOM     16  C   UNL     1      46.480   3.740   7.464  0.00  0.00    +0.000 A 
ENDBRANCH  10  11
ENDBRANCH   8  10
ENDBRANCH   7   8
BRANCH   7  17
ATOM     17  C   UNL     1      43.817   6.432  11.267  0.00  0.00    +0.000 C 
BRANCH  17  18
ATOM     18  C   UNL     1      42.438   6.010  11.768  0.00  0.00    +0.000 C 
BRANCH  18  19
ATOM     19  N   UNL     1      42.489   5.310  13.048  0.00  0.00    +0.000 NA
ATOM     20  H   UNL     1      42.501   4.306  12.869  0.00  0.00    +0.000 HD
ATOM     21  H   UNL     1      41.628   5.483  13.567  0.00  0.00    +0.000 HD
ENDBRANCH  18  19
ENDBRANCH  17  18
ENDBRANCH   7  17
ENDBRANCH   1   7
BRANCH   4  22
ATOM     22  C   UNL     1      47.607   3.680  15.949  0.00  0.00    +0.000 C 
BRANCH  22  23
ATOM     23  N   UNL     1      48.497   4.689  16.485  0.00  0.00    +0.000 N 
ATOM     24  C   UNL     1      48.150   5.454  17.573  0.00  0.00    +0.000 C 
ATOM     25  O   UNL     1      47.090   5.281  18.174  0.00  0.00    +0.000 OA
ATOM     26  H   UNL     1      49.267   4.984  15.892  0.00  0.00    +0.000 HD
BRANCH  24  27
ATOM     27  C   UNL     1      49.127   6.458  18.029  0.00  0.00    +0.000 A 
ATOM     28  C   UNL     1      49.230   6.751  19.383  0.00  0.00    +0.000 A 
ATOM     29  S   UNL     1      50.431   7.904  19.752  0.00  0.00    +0.000 S 
ATOM     30  C   UNL     1      50.825   8.096  18.109  0.00  0.00    +0.000 A 
ATOM     31  N   UNL     1      51.782   8.981  17.721  0.00  0.00    +0.000 NA
ATOM     32  C   UNL     1      51.960   9.043  16.444  0.00  0.00    +0.000 A 
ATOM     33  N   UNL     1      51.268   8.305  15.522  0.00  0.00    +0.000 N 
ATOM     34  C   UNL     1      50.312   7.381  15.868  0.00  0.00    +0.000 A 
ATOM     35  O   UNL     1      49.734   6.715  15.018  0.00  0.00    +0.000 OA
ATOM     36  C   UNL     1      50.063   7.276  17.293  0.00  0.00    +0.000 A 
ATOM     37  H   UNL     1      51.461   8.400  14.535  0.00  0.00    +0.000 HD
ENDBRANCH  24  27
ENDBRANCH  22  23
ENDBRANCH   4  22
TORSDOF 10
ENDMDL
