MODEL 1
REMARK VINA RESULT:    -6.988      0.000      0.000
REMARK INTER + INTRA:          -9.526
REMARK INTER:                  -8.826
REMARK INTRA:                  -0.699
REMARK UNBOUND:                -0.699
REMARK  Name = 
REMARK  5 active torsions:
REMARK  status: ('A' for Active; 'I' for Inactive)
REMARK    1  A    between atoms: O_1  and  C_2
REMARK    2  A    between atoms: C_5  and  C_6
REMARK    3  A    between atoms: C_6  and  C_7
REMARK    4  A    between atoms: C_7  and  C_8
REMARK    5  A    between atoms: C_12  and  C_13
REMARK                            x       y       z     vdW  Elec       q    Type
REMARK                         _______ _______ _______ _____ _____    ______ ____
ROOT
ATOM      1  C   UNL     1      45.397   3.977  12.618  0.00  0.00    +0.000 C 
ENDROOT
BRANCH   1   2
ATOM      2  C   UNL     1      46.050   5.341  12.726  0.00  0.00    +0.000 A 
ATOM      3  C   UNL     1      47.415   5.536  12.953  0.00  0.00    +0.000 A 
ATOM      4  C   UNL     1      47.958   6.820  12.928  0.00  0.00    +0.000 A 
ATOM      5  C   UNL     1      47.153   7.919  12.626  0.00  0.00    +0.000 A 
ATOM      6  C   UNL     1      45.789   7.761  12.336  0.00  0.00    +0.000 A 
ATOM      7  C   UNL     1      45.252   6.465  12.437  0.00  0.00    +0.000 A 
BRANCH   6   8
ATOM      8  C   UNL     1      44.973   8.877  11.826  0.00  0.00    +0.000 A 
ATOM      9  C   UNL     1      43.834   8.670  11.060  0.00  0.00    +0.000 A 
ATOM     10  N   UNL     1      42.991   9.641  10.644  0.00  0.00    +0.000 NA
ATOM     11  C   UNL     1      43.310  10.883  11.026  0.00  0.00    +0.000 A 
ATOM     12  N   UNL     1      44.383  11.231  11.750  0.00  0.00    +0.000 NA
ATOM     13  C   UNL     1      45.189  10.211  12.126  0.00  0.00    +0.000 A 
ENDBRANCH   6   8
ENDBRANCH   1   2
BRANCH   1  14
ATOM     14  C   UNL     1      44.439   3.781  11.448  0.00  0.00    +0.000 C 
ATOM     15  C   UNL     1      43.266   2.836  11.702  0.00  0.00    +0.000 C 
ATOM     16  C   UNL     1      43.017   4.305  11.621  0.00  0.00    +0.000 C 
BRANCH  14  20
ATOM     17  C   UNL     1      46.304   3.499   7.515  0.00  0.00    +0.000 A 
ATOM     18  C   UNL     1      46.081   4.745   8.085  0.00  0.00    +0.000 A 
ATOM     19  C   UNL     1      45.476   4.826   9.344  0.00  0.00    +0.000 A 
ATOM     20  C   UNL     1      45.069   3.676  10.051  0.00  0.00    +0.000 A 
ATOM     21  C   UNL     1      45.291   2.437   9.421  0.00  0.00    +0.000 A 
ATOM     22  C   UNL     1      45.911   2.345   8.172  0.00  0.00    +0.000 A 
BRANCH  17  23
ATOM     23  O   UNL     1      46.914   3.364   6.304  0.00  0.00    +0.000 OA
ATOM     24  H   UNL     1      47.789   2.965   6.441  0.00  0.00    +0.000 HD
ENDBRANCH  17  23
ENDBRANCH  14  20
ENDBRANCH   1  14
TORSDOF 5
ENDMDL
MODEL 2
REMARK VINA RESULT:    -6.906      3.836      5.116
REMARK INTER + INTRA:          -9.422
REMARK INTER:                  -8.646
REMARK INTRA:                  -0.776
REMARK UNBOUND:                -0.699
REMARK  Name = 
REMARK  5 active torsions:
REMARK  status: ('A' for Active; 'I' for Inactive)
REMARK    1  A    between atoms: O_1  and  C_2
REMARK    2  A    between atoms: C_5  and  C_6
REMARK    3  A    between atoms: C_6  and  C_7
REMARK    4  A    between atoms: C_7  and  C_8
REMARK    5  A    between atoms: C_12  and  C_13
REMARK                            x       y       z     vdW  Elec       q    Type
REMARK                         _______ _______ _______ _____ _____    ______ ____
ROOT
ATOM      1  C   UNL     1      44.754   4.278  12.779  0.00  0.00    +0.000 C 
ENDROOT
BRANCH   1   2
ATOM      2  C   UNL     1      46.021   4.977  13.230  0.00  0.00    +0.000 A 
ATOM      3  C   UNL     1      46.563   6.097  12.593  0.00  0.00    +0.000 A 
ATOM      4  C   UNL     1      47.669   6.750  13.134  0.00  0.00    +0.000 A 
ATOM      5  C   UNL     1      48.217   6.323  14.344  0.00  0.00    +0.000 A 
ATOM      6  C   UNL     1      47.670   5.237  15.045  0.00  0.00    +0.000 A 
ATOM      7  C   UNL     1      46.598   4.553  14.443  0.00  0.00    +0.000 A 
BRANCH   6   8
ATOM      8  C   UNL     1      48.109   4.897  16.410  0.00  0.00    +0.000 A 
ATOM      9  C   UNL     1      47.637   3.777  17.081  0.00  0.00    +0.000 A 
ATOM     10  N   UNL     1      48.069   3.358  18.291  0.00  0.00    +0.000 NA
ATOM     11  C   UNL     1      49.032   4.102  18.848  0.00  0.00    +0.000 A 
ATOM     12  N   UNL     1      49.568   5.213  18.325  0.00  0.00    +0.000 NA
ATOM     13  C   UNL     1      49.083   5.581  17.115  0.00  0.00    +0.000 A 
ENDBRANCH   6   8
ENDBRANCH   1   2
BRANCH   1  14
ATOM     14  C   UNL     1      44.178   4.728  11.441  0.00  0.00    +0.000 C 
ATOM     15  C   UNL     1      42.664   4.930  11.404  0.00  0.00    +0.000 C 
ATOM     16  C   UNL     1      43.561   6.122  11.384  0.00  0.00    +0.000 C 
BRANCH  14  20
ATOM     17  C   UNL     1      45.968   2.923   7.896  0.00  0.00    +0.000 A 
ATOM     18  C   UNL     1      46.009   4.301   8.064  0.00  0.00    +0.000 A 
ATOM     19  C   UNL     1      45.426   4.871   9.200  0.00  0.00    +0.000 A 
ATOM     20  C   UNL     1      44.781   4.089  10.180  0.00  0.00    +0.000 A 
ATOM     21  C   UNL     1      44.742   2.700   9.954  0.00  0.00    +0.000 A 
ATOM     22  C   UNL     1      45.336   2.119   8.830  0.00  0.00    +0.000 A 
BRANCH  17  23
ATOM     23  O   UNL     1      46.545   2.316   6.821  0.00  0.00    +0.000 OA
ATOM     24  H   UNL     1      46.440   1.356   6.915  0.00  0.00    +0.000 HD
ENDBRANCH  17  23
ENDBRANCH  14  20
ENDBRANCH   1  14
TORSDOF 5
ENDMDL
MODEL 3
REMARK VINA RESULT:    -6.655      2.699      3.979
REMARK INTER + INTRA:          -9.105
REMARK INTER:                  -9.250
REMARK INTRA:                   0.145
REMARK UNBOUND:                -0.699
REMARK  Name = 
REMARK  5 active torsions:
REMARK  status: ('A' for Active; 'I' for Inactive)
REMARK    1  A    between atoms: O_1  and  C_2
REMARK    2  A    between atoms: C_5  and  C_6
REMARK    3  A    between atoms: C_6  and  C_7
REMARK    4  A    between atoms: C_7  and  C_8
REMARK    5  A    between atoms: C_12  and  C_13
REMARK                            x       y       z     vdW  Elec       q    Type
REMARK                         _______ _______ _______ _____ _____    ______ ____
ROOT
ATOM      1  C   UNL     1      44.253   4.394   9.109  0.00  0.00    +0.000 C 
ENDROOT
BRANCH   1   2
ATOM      2  C   UNL     1      44.344   5.171  10.407  0.00  0.00    +0.000 A 
ATOM      3  C   UNL     1      43.309   5.249  11.343  0.00  0.00    +0.000 A 
ATOM      4  C   UNL     1      43.509   5.891  12.564  0.00  0.00    +0.000 A 
ATOM      5  C   UNL     1      44.760   6.420  12.886  0.00  0.00    +0.000 A 
ATOM      6  C   UNL     1      45.842   6.314  11.997  0.00  0.00    +0.000 A 
ATOM      7  C   UNL     1      45.595   5.723  10.745  0.00  0.00    +0.000 A 
BRANCH   6   8
ATOM      8  C   UNL     1      47.210   6.688  12.398  0.00  0.00    +0.000 A 
ATOM      9  C   UNL     1      47.932   7.668  11.732  0.00  0.00    +0.000 A 
ATOM     10  N   UNL     1      49.148   8.125  12.105  0.00  0.00    +0.000 NA
ATOM     11  C   UNL     1      49.657   7.570  13.212  0.00  0.00    +0.000 A 
ATOM     12  N   UNL     1      49.081   6.606  13.943  0.00  0.00    +0.000 NA
ATOM     13  C   UNL     1      47.868   6.189  13.508  0.00  0.00    +0.000 A 
ENDBRANCH   6   8
ENDBRANCH   1   2
BRANCH   1  14
ATOM     14  C   UNL     1      44.828   2.982   9.129  0.00  0.00    +0.000 C 
ATOM     15  C   UNL     1      45.168   2.423  10.510  0.00  0.00    +0.000 C 
ATOM     16  C   UNL     1      43.978   1.896   9.781  0.00  0.00    +0.000 C 
BRANCH  14  20
ATOM     17  C   UNL     1      47.612   1.930   5.940  0.00  0.00    +0.000 A 
ATOM     18  C   UNL     1      47.335   1.012   6.945  0.00  0.00    +0.000 A 
ATOM     19  C   UNL     1      46.446   1.361   7.967  0.00  0.00    +0.000 A 
ATOM     20  C   UNL     1      45.830   2.628   8.020  0.00  0.00    +0.000 A 
ATOM     21  C   UNL     1      46.162   3.534   6.995  0.00  0.00    +0.000 A 
ATOM     22  C   UNL     1      47.035   3.188   5.959  0.00  0.00    +0.000 A 
BRANCH  17  23
ATOM     23  O   UNL     1      48.449   1.629   4.908  0.00  0.00    +0.000 OA
ATOM     24  H   UNL     1      48.368   2.322   4.233  0.00  0.00    +0.000 HD
ENDBRANCH  17  23
ENDBRANCH  14  20
ENDBRANCH   1  14
TORSDOF 5
ENDMDL
MODEL 4
REMARK VINA RESULT:    -6.579      2.819      4.175
REMARK INTER + INTRA:          -9.009
REMARK INTER:                  -9.179
REMARK INTRA:                   0.170
REMARK UNBOUND:                -0.699
REMARK  Name = 
REMARK  5 active torsions:
REMARK  status: ('A' for Active; 'I' for Inactive)
REMARK    1  A    between atoms: O_1  and  C_2
REMARK    2  A    between atoms: C_5  and  C_6
REMARK    3  A    between atoms: C_6  and  C_7
REMARK    4  A    between atoms: C_7  and  C_8
REMARK    5  A    between atoms: C_12  and  C_13
REMARK                            x       y       z     vdW  Elec       q    Type
REMARK                         _______ _______ _______ _____ _____    ______ ____
ROOT
ATOM      1  C   UNL     1      43.703   5.214  11.042  0.00  0.00    +0.000 C 
ENDROOT
BRANCH   1   2
ATOM      2  C   UNL     1      44.762   6.153  11.584  0.00  0.00    +0.000 A 
ATOM      3  C   UNL     1      44.781   7.529  11.343  0.00  0.00    +0.000 A 
ATOM      4  C   UNL     1      45.725   8.343  11.968  0.00  0.00    +0.000 A 
ATOM      5  C   UNL     1      46.630   7.799  12.880  0.00  0.00    +0.000 A 
ATOM      6  C   UNL     1      46.609   6.430  13.194  0.00  0.00    +0.000 A 
ATOM      7  C   UNL     1      45.694   5.621  12.497  0.00  0.00    +0.000 A 
BRANCH   6   8
ATOM      8  C   UNL     1      47.421   5.877  14.292  0.00  0.00    +0.000 A 
ATOM      9  C   UNL     1      48.486   6.574  14.846  0.00  0.00    +0.000 A 
ATOM     10  N   UNL     1      49.207   6.167  15.915  0.00  0.00    +0.000 NA
ATOM     11  C   UNL     1      48.829   5.003  16.456  0.00  0.00    +0.000 A 
ATOM     12  N   UNL     1      47.833   4.221  16.018  0.00  0.00    +0.000 NA
ATOM     13  C   UNL     1      47.158   4.683  14.940  0.00  0.00    +0.000 A 
ENDBRANCH   6   8
ENDBRANCH   1   2
BRANCH   1  14
ATOM     14  C   UNL     1      44.121   3.757  10.871  0.00  0.00    +0.000 C 
ATOM     15  C   UNL     1      44.553   3.036  12.147  0.00  0.00    +0.000 C 
ATOM     16  C   UNL     1      43.238   2.701  11.527  0.00  0.00    +0.000 C 
BRANCH  14  20
ATOM     17  C   UNL     1      46.538   2.815   7.364  0.00  0.00    +0.000 A 
ATOM     18  C   UNL     1      46.260   4.140   7.675  0.00  0.00    +0.000 A 
ATOM     19  C   UNL     1      45.479   4.431   8.798  0.00  0.00    +0.000 A 
ATOM     20  C   UNL     1      44.947   3.418   9.621  0.00  0.00    +0.000 A 
ATOM     21  C   UNL     1      45.233   2.090   9.251  0.00  0.00    +0.000 A 
ATOM     22  C   UNL     1      46.028   1.789   8.141  0.00  0.00    +0.000 A 
BRANCH  17  23
ATOM     23  O   UNL     1      47.317   2.479   6.298  0.00  0.00    +0.000 OA
ATOM     24  H   UNL     1      46.885   2.793   5.488  0.00  0.00    +0.000 HD
ENDBRANCH  17  23
ENDBRANCH  14  20
ENDBRANCH   1  14
TORSDOF 5
ENDMDL
MODEL 5
REMARK VINA RESULT:    -6.516      3.898      6.783
REMARK INTER + INTRA:          -8.930
REMARK INTER:                  -8.341
REMARK INTRA:                  -0.589
REMARK UNBOUND:                -0.699
REMARK  Name = 
REMARK  5 active torsions:
REMARK  status: ('A' for Active; 'I' for Inactive)
REMARK    1  A    between atoms: O_1  and  C_2
REMARK    2  A    between atoms: C_5  and  C_6
REMARK    3  A    between atoms: C_6  and  C_7
REMARK    4  A    between atoms: C_7  and  C_8
REMARK    5  A    between atoms: C_12  and  C_13
REMARK                            x       y       z     vdW  Elec       q    Type
REMARK                         _______ _______ _______ _____ _____    ______ ____
ROOT
ATOM      1  C   UNL     1      48.929   7.155  13.583  0.00  0.00    +0.000 C 
ENDROOT
BRANCH   1   2
ATOM      2  C   UNL     1      47.506   7.309  13.087  0.00  0.00    +0.000 A 
ATOM      3  C   UNL     1      46.729   8.454  13.287  0.00  0.00    +0.000 A 
ATOM      4  C   UNL     1      45.468   8.562  12.703  0.00  0.00    +0.000 A 
ATOM      5  C   UNL     1      44.987   7.550  11.871  0.00  0.00    +0.000 A 
ATOM      6  C   UNL     1      45.758   6.408  11.599  0.00  0.00    +0.000 A 
ATOM      7  C   UNL     1      46.996   6.292  12.255  0.00  0.00    +0.000 A 
BRANCH   6   8
ATOM      8  C   UNL     1      45.352   5.429  10.575  0.00  0.00    +0.000 A 
ATOM      9  C   UNL     1      45.848   5.467   9.279  0.00  0.00    +0.000 A 
ATOM     10  N   UNL     1      45.593   4.547   8.323  0.00  0.00    +0.000 NA
ATOM     11  C   UNL     1      44.804   3.532   8.696  0.00  0.00    +0.000 A 
ATOM     12  N   UNL     1      44.244   3.376   9.903  0.00  0.00    +0.000 NA
ATOM     13  C   UNL     1      44.534   4.339  10.810  0.00  0.00    +0.000 A 
ENDBRANCH   6   8
ENDBRANCH   1   2
BRANCH   1  14
ATOM     14  C   UNL     1      49.112   7.104  15.096  0.00  0.00    +0.000 C 
ATOM     15  C   UNL     1      50.501   7.477  15.610  0.00  0.00    +0.000 C 
ATOM     16  C   UNL     1      49.369   8.427  15.809  0.00  0.00    +0.000 C 
BRANCH  14  20
ATOM     17  C   UNL     1      47.123   3.844  17.205  0.00  0.00    +0.000 A 
ATOM     18  C   UNL     1      47.701   4.880  17.925  0.00  0.00    +0.000 A 
ATOM     19  C   UNL     1      48.343   5.918  17.240  0.00  0.00    +0.000 A 
ATOM     20  C   UNL     1      48.436   5.938  15.834  0.00  0.00    +0.000 A 
ATOM     21  C   UNL     1      47.858   4.853  15.148  0.00  0.00    +0.000 A 
ATOM     22  C   UNL     1      47.199   3.821  15.822  0.00  0.00    +0.000 A 
BRANCH  17  23
ATOM     23  O   UNL     1      46.463   2.824  17.822  0.00  0.00    +0.000 OA
ATOM     24  H   UNL     1      46.137   3.141  18.680  0.00  0.00    +0.000 HD
ENDBRANCH  17  23
ENDBRANCH  14  20
ENDBRANCH   1  14
TORSDOF 5
ENDMDL
MODEL 6
REMARK VINA RESULT:    -6.451      4.941      7.841
REMARK INTER + INTRA:          -8.847
REMARK INTER:                  -7.858
REMARK INTRA:                  -0.989
REMARK UNBOUND:                -0.699
REMARK  Name = 
REMARK  5 active torsions:
REMARK  status: ('A' for Active; 'I' for Inactive)
REMARK    1  A    between atoms: O_1  and  C_2
REMARK    2  A    between atoms: C_5  and  C_6
REMARK    3  A    between atoms: C_6  and  C_7
REMARK    4  A    between atoms: C_7  and  C_8
REMARK    5  A    between atoms: C_12  and  C_13
REMARK                            x       y       z     vdW  Elec       q    Type
REMARK                         _______ _______ _______ _____ _____    ______ ____
ROOT
ATOM      1  C   UNL     1      49.870   7.023  15.117  0.00  0.00    +0.000 C 
ENDROOT
BRANCH   1   2
ATOM      2  C   UNL     1      48.933   7.132  13.930  0.00  0.00    +0.000 A 
ATOM      3  C   UNL     1      49.263   7.771  12.733  0.00  0.00    +0.000 A 
ATOM      4  C   UNL     1      48.388   7.732  11.648  0.00  0.00    +0.000 A 
ATOM      5  C   UNL     1      47.196   7.012  11.730  0.00  0.00    +0.000 A 
ATOM      6  C   UNL     1      46.852   6.309  12.896  0.00  0.00    +0.000 A 
ATOM      7  C   UNL     1      47.718   6.422  13.998  0.00  0.00    +0.000 A 
BRANCH   6   8
ATOM      8  C   UNL     1      45.701   5.390  12.932  0.00  0.00    +0.000 A 
ATOM      9  C   UNL     1      44.390   5.847  12.943  0.00  0.00    +0.000 A 
ATOM     10  N   UNL     1      43.293   5.061  12.879  0.00  0.00    +0.000 NA
ATOM     11  C   UNL     1      43.531   3.746  12.792  0.00  0.00    +0.000 A 
ATOM     12  N   UNL     1      44.738   3.166  12.786  0.00  0.00    +0.000 NA
ATOM     13  C   UNL     1      45.793   4.011  12.862  0.00  0.00    +0.000 A 
ENDBRANCH   6   8
ENDBRANCH   1   2
BRANCH   1  14
ATOM     14  C   UNL     1      49.314   7.490  16.458  0.00  0.00    +0.000 C 
ATOM     15  C   UNL     1      49.915   8.780  17.013  0.00  0.00    +0.000 C 
ATOM     16  C   UNL     1      48.527   8.796  16.465  0.00  0.00    +0.000 C 
BRANCH  14  20
ATOM     17  C   UNL     1      48.578   4.421  19.469  0.00  0.00    +0.000 A 
ATOM     18  C   UNL     1      49.507   4.191  18.463  0.00  0.00    +0.000 A 
ATOM     19  C   UNL     1      49.730   5.178  17.497  0.00  0.00    +0.000 A 
ATOM     20  C   UNL     1      49.029   6.401  17.504  0.00  0.00    +0.000 A 
ATOM     21  C   UNL     1      48.080   6.578  18.528  0.00  0.00    +0.000 A 
ATOM     22  C   UNL     1      47.862   5.605  19.508  0.00  0.00    +0.000 A 
BRANCH  17  23
ATOM     23  O   UNL     1      48.344   3.503  20.449  0.00  0.00    +0.000 OA
ATOM     24  H   UNL     1      48.481   2.616  20.081  0.00  0.00    +0.000 HD
ENDBRANCH  17  23
ENDBRANCH  14  20
ENDBRANCH   1  14
TORSDOF 5
ENDMDL
MODEL 7
REMARK VINA RESULT:    -6.447      3.923      7.157
REMARK INTER + INTRA:          -8.843
REMARK INTER:                  -8.333
REMARK INTRA:                  -0.510
REMARK UNBOUND:                -0.699
REMARK  Name = 
REMARK  5 active torsions:
REMARK  status: ('A' for Active; 'I' for Inactive)
REMARK    1  A    between atoms: O_1  and  C_2
REMARK    2  A    between atoms: C_5  and  C_6
REMARK    3  A    between atoms: C_6  and  C_7
REMARK    4  A    between atoms: C_7  and  C_8
REMARK    5  A    between atoms: C_12  and  C_13
REMARK                            x       y       z     vdW  Elec       q    Type
REMARK                         _______ _______ _______ _____ _____    ______ ____
ROOT
ATOM      1  C   UNL     1      45.153   6.048  10.715  0.00  0.00    +0.000 C 
ENDROOT
BRANCH   1   2
ATOM      2  C   UNL     1      45.017   4.601  10.287  0.00  0.00    +0.000 A 
ATOM      3  C   UNL     1      44.038   3.732  10.775  0.00  0.00    +0.000 A 
ATOM      4  C   UNL     1      43.909   2.447  10.250  0.00  0.00    +0.000 A 
ATOM      5  C   UNL     1      44.724   2.032   9.196  0.00  0.00    +0.000 A 
ATOM      6  C   UNL     1      45.684   2.892   8.639  0.00  0.00    +0.000 A 
ATOM      7  C   UNL     1      45.841   4.157   9.233  0.00  0.00    +0.000 A 
BRANCH   6   8
ATOM      8  C   UNL     1      46.413   2.542   7.407  0.00  0.00    +0.000 A 
ATOM      9  C   UNL     1      47.115   1.351   7.278  0.00  0.00    +0.000 A 
ATOM     10  N   UNL     1      47.721   0.928   6.147  0.00  0.00    +0.000 NA
ATOM     11  C   UNL     1      47.608   1.742   5.091  0.00  0.00    +0.000 A 
ATOM     12  N   UNL     1      46.976   2.924   5.077  0.00  0.00    +0.000 NA
ATOM     13  C   UNL     1      46.398   3.292   6.245  0.00  0.00    +0.000 A 
ENDBRANCH   6   8
ENDBRANCH   1   2
BRANCH   1  14
ATOM     14  C   UNL     1      46.038   6.310  11.929  0.00  0.00    +0.000 C 
ATOM     15  C   UNL     1      45.409   6.000  13.287  0.00  0.00    +0.000 C 
ATOM     16  C   UNL     1      46.468   5.098  12.748  0.00  0.00    +0.000 C 
BRANCH  14  20
ATOM     17  C   UNL     1      48.507   9.905  11.900  0.00  0.00    +0.000 A 
ATOM     18  C   UNL     1      47.133  10.014  12.065  0.00  0.00    +0.000 A 
ATOM     19  C   UNL     1      46.349   8.856  12.066  0.00  0.00    +0.000 A 
ATOM     20  C   UNL     1      46.909   7.574  11.889  0.00  0.00    +0.000 A 
ATOM     21  C   UNL     1      48.303   7.517  11.699  0.00  0.00    +0.000 A 
ATOM     22  C   UNL     1      49.097   8.666  11.714  0.00  0.00    +0.000 A 
BRANCH  17  23
ATOM     23  O   UNL     1      49.319  11.000  11.920  0.00  0.00    +0.000 OA
ATOM     24  H   UNL     1      49.216  11.476  11.080  0.00  0.00    +0.000 HD
ENDBRANCH  17  23
ENDBRANCH  14  20
ENDBRANCH   1  14
TORSDOF 5
ENDMDL
MODEL 8
REMARK VINA RESULT:    -6.409      2.576      3.801
REMARK INTER + INTRA:          -8.794
REMARK INTER:                  -8.299
REMARK INTRA:                  -0.495
REMARK UNBOUND:                -0.699
REMARK  Name = 
REMARK  5 active torsions:
REMARK  status: ('A' for Active; 'I' for Inactive)
REMARK    1  A    between atoms: O_1  and  C_2
REMARK    2  A    between atoms: C_5  and  C_6
REMARK    3  A    between atoms: C_6  and  C_7
REMARK    4  A    between atoms: C_7  and  C_8
REMARK    5  A    between atoms: C_12  and  C_13
REMARK                            x       y       z     vdW  Elec       q    Type
REMARK                         _______ _______ _______ _____ _____    ______ ____
ROOT
ATOM      1  C   UNL     1      45.420   4.620  12.255  0.00  0.00    +0.000 C 
ENDROOT
BRANCH   1   2
ATOM      2  C   UNL     1      45.815   6.078  12.120  0.00  0.00    +0.000 A 
ATOM      3  C   UNL     1      44.899   7.124  11.983  0.00  0.00    +0.000 A 
ATOM      4  C   UNL     1      45.337   8.448  11.977  0.00  0.00    +0.000 A 
ATOM      5  C   UNL     1      46.688   8.744  12.159  0.00  0.00    +0.000 A 
ATOM      6  C   UNL     1      47.634   7.726  12.356  0.00  0.00    +0.000 A 
ATOM      7  C   UNL     1      47.177   6.397  12.288  0.00  0.00    +0.000 A 
BRANCH   6   8
ATOM      8  C   UNL     1      49.023   8.026  12.742  0.00  0.00    +0.000 A 
ATOM      9  C   UNL     1      49.524   7.713  13.999  0.00  0.00    +0.000 A 
ATOM     10  N   UNL     1      50.810   7.873  14.383  0.00  0.00    +0.000 NA
ATOM     11  C   UNL     1      51.634   8.366  13.450  0.00  0.00    +0.000 A 
ATOM     12  N   UNL     1      51.286   8.726  12.207  0.00  0.00    +0.000 NA
ATOM     13  C   UNL     1      49.981   8.548  11.891  0.00  0.00    +0.000 A 
ENDBRANCH   6   8
ENDBRANCH   1   2
BRANCH   1  14
ATOM     14  C   UNL     1      44.449   4.088  11.206  0.00  0.00    +0.000 C 
ATOM     15  C   UNL     1      43.328   3.194  11.733  0.00  0.00    +0.000 C 
ATOM     16  C   UNL     1      43.008   4.580  11.282  0.00  0.00    +0.000 C 
BRANCH  14  20
ATOM     17  C   UNL     1      46.247   2.863   7.425  0.00  0.00    +0.000 A 
ATOM     18  C   UNL     1      46.064   4.212   7.697  0.00  0.00    +0.000 A 
ATOM     19  C   UNL     1      45.480   4.595   8.910  0.00  0.00    +0.000 A 
ATOM     20  C   UNL     1      45.055   3.649   9.865  0.00  0.00    +0.000 A 
ATOM     21  C   UNL     1      45.237   2.293   9.533  0.00  0.00    +0.000 A 
ATOM     22  C   UNL     1      45.835   1.901   8.332  0.00  0.00    +0.000 A 
BRANCH  17  23
ATOM     23  O   UNL     1      46.836   2.439   6.272  0.00  0.00    +0.000 OA
ATOM     24  H   UNL     1      47.256   3.200   5.841  0.00  0.00    +0.000 HD
ENDBRANCH  17  23
ENDBRANCH  14  20
ENDBRANCH   1  14
TORSDOF 5
ENDMDL
MODEL 9
REMARK VINA RESULT:    -6.350      4.027      5.854
REMARK INTER + INTRA:          -8.720
REMARK INTER:                  -8.418
REMARK INTRA:                  -0.302
REMARK UNBOUND:                -0.699
REMARK  Name = 
REMARK  5 active torsions:
REMARK  status: ('A' for Active; 'I' for Inactive)
REMARK    1  A    between atoms: O_1  and  C_2
REMARK    2  A    between atoms: C_5  and  C_6
REMARK    3  A    between atoms: C_6  and  C_7
REMARK    4  A    between atoms: C_7  and  C_8
REMARK    5  A    between atoms: C_12  and  C_13
REMARK                            x       y       z     vdW  Elec       q    Type
REMARK                         _______ _______ _______ _____ _____    ______ ____
ROOT
ATOM      1  C   UNL     1      47.195   6.875  11.674  0.00  0.00    +0.000 C 
ENDROOT
BRANCH   1   2
ATOM      2  C   UNL     1      47.997   7.039  12.950  0.00  0.00    +0.000 A 
ATOM      3  C   UNL     1      48.701   8.199  13.284  0.00  0.00    +0.000 A 
ATOM      4  C   UNL     1      49.323   8.313  14.527  0.00  0.00    +0.000 A 
ATOM      5  C   UNL     1      49.206   7.291  15.470  0.00  0.00    +0.000 A 
ATOM      6  C   UNL     1      48.461   6.133  15.196  0.00  0.00    +0.000 A 
ATOM      7  C   UNL     1      47.903   6.013  13.911  0.00  0.00    +0.000 A 
BRANCH   6   8
ATOM      8  C   UNL     1      48.165   5.139  16.242  0.00  0.00    +0.000 A 
ATOM      9  C   UNL     1      47.111   4.242  16.132  0.00  0.00    +0.000 A 
ATOM     10  N   UNL     1      46.845   3.247  17.006  0.00  0.00    +0.000 NA
ATOM     11  C   UNL     1      47.689   3.147  18.040  0.00  0.00    +0.000 A 
ATOM     12  N   UNL     1      48.735   3.950  18.281  0.00  0.00    +0.000 NA
ATOM     13  C   UNL     1      48.939   4.931  17.370  0.00  0.00    +0.000 A 
ENDBRANCH   6   8
ENDBRANCH   1   2
BRANCH   1  14
ATOM     14  C   UNL     1      45.680   6.968  11.816  0.00  0.00    +0.000 C 
ATOM     15  C   UNL     1      45.170   7.984  12.837  0.00  0.00    +0.000 C 
ATOM     16  C   UNL     1      45.021   8.273  11.381  0.00  0.00    +0.000 C 
BRANCH  14  20
ATOM     17  C   UNL     1      43.539   3.170  11.680  0.00  0.00    +0.000 A 
ATOM     18  C   UNL     1      44.105   3.684  10.522  0.00  0.00    +0.000 A 
ATOM     19  C   UNL     1      44.784   4.906  10.574  0.00  0.00    +0.000 A 
ATOM     20  C   UNL     1      44.900   5.646  11.769  0.00  0.00    +0.000 A 
ATOM     21  C   UNL     1      44.287   5.097  12.912  0.00  0.00    +0.000 A 
ATOM     22  C   UNL     1      43.622   3.868  12.874  0.00  0.00    +0.000 A 
BRANCH  17  23
ATOM     23  O   UNL     1      42.892   1.970  11.689  0.00  0.00    +0.000 OA
ATOM     24  H   UNL     1      42.680   1.727  10.774  0.00  0.00    +0.000 HD
ENDBRANCH  17  23
ENDBRANCH  14  20
ENDBRANCH   1  14
TORSDOF 5
ENDMDL
