MODEL 1
REMARK VINA RESULT:    -9.126      0.000      0.000
REMARK INTER + INTRA:         -13.001
REMARK INTER:                 -12.060
REMARK INTRA:                  -0.941
REMARK UNBOUND:                -0.941
REMARK  Name = 
REMARK  6 active torsions:
REMARK  status: ('A' for Active; 'I' for Inactive)
REMARK    1  A    between atoms: C_2  and  C_4
REMARK    2  A    between atoms: N_8  and  C_9
REMARK    3  A    between atoms: C_9  and  C_10
REMARK    4  A    between atoms: C_10  and  O_11
REMARK    5  A    between atoms: C_10  and  C_12
REMARK    6  A    between atoms: C_17  and  C_18
REMARK                            x       y       z     vdW  Elec       q    Type
REMARK                         _______ _______ _______ _____ _____    ______ ____
ROOT
ATOM      1  C   UNL     1      43.442   5.672  12.119  0.00  0.00    +0.000 C 
ENDROOT
BRANCH   1   2
ATOM      2  C   UNL     1      44.896   5.649  12.546  0.00  0.00    +0.000 A 
ATOM      3  C   UNL     1      45.391   4.592  13.313  0.00  0.00    +0.000 A 
ATOM      4  C   UNL     1      46.719   4.606  13.718  0.00  0.00    +0.000 A 
ATOM      5  F   UNL     1      47.187   3.594  14.460  0.00  0.00    +0.000 F 
ATOM      6  C   UNL     1      47.576   5.648  13.371  0.00  0.00    +0.000 A 
ATOM      7  C   UNL     1      47.118   6.736  12.610  0.00  0.00    +0.000 A 
ATOM      8  C   UNL     1      45.761   6.710  12.221  0.00  0.00    +0.000 A 
BRANCH   7   9
ATOM      9  C   UNL     1      48.012   7.854  12.222  0.00  0.00    +0.000 A 
ATOM     10  C   UNL     1      47.547   9.176  12.149  0.00  0.00    +0.000 A 
ATOM     11  C   UNL     1      48.418  10.194  11.782  0.00  0.00    +0.000 A 
ATOM     12  N   UNL     1      49.713   9.996  11.473  0.00  0.00    +0.000 NA
ATOM     13  C   UNL     1      50.155   8.725  11.537  0.00  0.00    +0.000 A 
ATOM     14  C   UNL     1      49.362   7.646  11.905  0.00  0.00    +0.000 A 
ENDBRANCH   7   9
ENDBRANCH   1   2
BRANCH   1  15
ATOM     15  O   UNL     1      42.623   5.413  13.266  0.00  0.00    +0.000 OA
ATOM     16  H   UNL     1      42.646   4.452  13.423  0.00  0.00    +0.000 HD
ENDBRANCH   1  15
BRANCH   1  17
ATOM     17  C   UNL     1      43.186   4.632  11.006  0.00  0.00    +0.000 C 
BRANCH  17  22
ATOM     18  C   UNL     1      46.415   2.369   7.730  0.00  0.00    +0.000 A 
ATOM     19  C   UNL     1      45.653   1.848   8.769  0.00  0.00    +0.000 A 
ATOM     20  C   UNL     1      44.823   2.706   9.494  0.00  0.00    +0.000 A 
ATOM     21  C   UNL     1      44.781   4.063   9.185  0.00  0.00    +0.000 A 
ATOM     22  N   UNL     1      43.934   4.953   9.802  0.00  0.00    +0.000 N 
ATOM     23  N   UNL     1      45.546   4.580   8.207  0.00  0.00    +0.000 NA
ATOM     24  C   UNL     1      46.348   3.732   7.503  0.00  0.00    +0.000 A 
ATOM     25  H   UNL     1      44.166   5.917   9.577  0.00  0.00    +0.000 HD
BRANCH  18  27
ATOM     26  N   UNL     1      48.431   2.117   6.391  0.00  0.00    +0.000 N 
ATOM     27  C   UNL     1      47.298   1.535   6.887  0.00  0.00    +0.000 C 
ATOM     28  O   UNL     1      47.044   0.356   6.666  0.00  0.00    +0.000 OA
ATOM     29  H   UNL     1      49.074   1.501   5.905  0.00  0.00    +0.000 HD
ATOM     30  H   UNL     1      48.799   2.990   6.739  0.00  0.00    +0.000 HD
ENDBRANCH  18  27
ENDBRANCH  17  22
ENDBRANCH   1  17
TORSDOF 6
ENDMDL
MODEL 2
REMARK VINA RESULT:    -8.530      2.719      3.854
REMARK INTER + INTRA:         -12.214
REMARK INTER:                 -11.354
REMARK INTRA:                  -0.860
REMARK UNBOUND:                -0.941
REMARK  Name = 
REMARK  6 active torsions:
REMARK  status: ('A' for Active; 'I' for Inactive)
REMARK    1  A    between atoms: C_2  and  C_4
REMARK    2  A    between atoms: N_8  and  C_9
REMARK    3  A    between atoms: C_9  and  C_10
REMARK    4  A    between atoms: C_10  and  O_11
REMARK    5  A    between atoms: C_10  and  C_12
REMARK    6  A    between atoms: C_17  and  C_18
REMARK                            x       y       z     vdW  Elec       q    Type
REMARK                         _______ _______ _______ _____ _____    ______ ____
ROOT
ATOM      1  C   UNL     1      43.792   4.341  12.180  0.00  0.00    +0.000 C 
ENDROOT
BRANCH   1   2
ATOM      2  C   UNL     1      45.120   4.961  12.564  0.00  0.00    +0.000 A 
ATOM      3  C   UNL     1      45.769   5.840  11.694  0.00  0.00    +0.000 A 
ATOM      4  C   UNL     1      46.998   6.373  12.054  0.00  0.00    +0.000 A 
ATOM      5  F   UNL     1      47.621   7.209  11.213  0.00  0.00    +0.000 F 
ATOM      6  C   UNL     1      47.602   6.059  13.270  0.00  0.00    +0.000 A 
ATOM      7  C   UNL     1      46.990   5.172  14.171  0.00  0.00    +0.000 A 
ATOM      8  C   UNL     1      45.748   4.629  13.779  0.00  0.00    +0.000 A 
BRANCH   7   9
ATOM      9  C   UNL     1      47.608   4.827  15.474  0.00  0.00    +0.000 A 
ATOM     10  C   UNL     1      47.366   3.595  16.100  0.00  0.00    +0.000 A 
ATOM     11  C   UNL     1      47.966   3.312  17.321  0.00  0.00    +0.000 A 
ATOM     12  N   UNL     1      48.780   4.164  17.970  0.00  0.00    +0.000 NA
ATOM     13  C   UNL     1      49.005   5.349  17.371  0.00  0.00    +0.000 A 
ATOM     14  C   UNL     1      48.460   5.715  16.147  0.00  0.00    +0.000 A 
ENDBRANCH   7   9
ENDBRANCH   1   2
BRANCH   1  15
ATOM     15  O   UNL     1      43.620   3.128  12.924  0.00  0.00    +0.000 OA
ATOM     16  H   UNL     1      43.890   3.315  13.841  0.00  0.00    +0.000 HD
ENDBRANCH   1  15
BRANCH   1  17
ATOM     17  C   UNL     1      43.738   4.073  10.660  0.00  0.00    +0.000 C 
BRANCH  17  22
ATOM     18  C   UNL     1      46.808   2.263   6.975  0.00  0.00    +0.000 A 
ATOM     19  C   UNL     1      46.347   3.549   7.231  0.00  0.00    +0.000 A 
ATOM     20  C   UNL     1      45.529   3.765   8.342  0.00  0.00    +0.000 A 
ATOM     21  C   UNL     1      45.172   2.699   9.163  0.00  0.00    +0.000 A 
ATOM     22  N   UNL     1      44.436   2.846  10.315  0.00  0.00    +0.000 N 
ATOM     23  N   UNL     1      45.581   1.445   8.898  0.00  0.00    +0.000 NA
ATOM     24  C   UNL     1      46.384   1.248   7.814  0.00  0.00    +0.000 A 
ATOM     25  H   UNL     1      44.123   1.950  10.683  0.00  0.00    +0.000 HD
BRANCH  18  27
ATOM     26  N   UNL     1      48.094   2.973   5.035  0.00  0.00    +0.000 N 
ATOM     27  C   UNL     1      47.702   1.942   5.842  0.00  0.00    +0.000 C 
ATOM     28  O   UNL     1      48.104   0.800   5.650  0.00  0.00    +0.000 OA
ATOM     29  H   UNL     1      48.788   2.750   4.330  0.00  0.00    +0.000 HD
ATOM     30  H   UNL     1      47.990   3.944   5.292  0.00  0.00    +0.000 HD
ENDBRANCH  18  27
ENDBRANCH  17  22
ENDBRANCH   1  17
TORSDOF 6
ENDMDL
MODEL 3
REMARK VINA RESULT:    -8.378      2.228      2.776
REMARK INTER + INTRA:         -12.013
REMARK INTER:                 -11.599
REMARK INTRA:                  -0.415
REMARK UNBOUND:                -0.941
REMARK  Name = 
REMARK  6 active torsions:
REMARK  status: ('A' for Active; 'I' for Inactive)
REMARK    1  A    between atoms: C_2  and  C_4
REMARK    2  A    between atoms: N_8  and  C_9
REMARK    3  A    between atoms: C_9  and  C_10
REMARK    4  A    between atoms: C_10  and  O_11
REMARK    5  A    between atoms: C_10  and  C_12
REMARK    6  A    between atoms: C_17  and  C_18
REMARK                            x       y       z     vdW  Elec       q    Type
REMARK                         _______ _______ _______ _____ _____    ______ ____
ROOT
ATOM      1  C   UNL     1      44.085   4.107  12.345  0.00  0.00    +0.000 C 
ENDROOT
BRANCH   1   2
ATOM      2  C   UNL     1      45.029   5.292  12.300  0.00  0.00    +0.000 A 
ATOM      3  C   UNL     1      46.381   5.132  12.608  0.00  0.00    +0.000 A 
ATOM      4  C   UNL     1      47.221   6.236  12.589  0.00  0.00    +0.000 A 
ATOM      5  F   UNL     1      48.517   6.079  12.893  0.00  0.00    +0.000 F 
ATOM      6  C   UNL     1      46.749   7.505  12.263  0.00  0.00    +0.000 A 
ATOM      7  C   UNL     1      45.394   7.715  11.958  0.00  0.00    +0.000 A 
ATOM      8  C   UNL     1      44.554   6.582  11.997  0.00  0.00    +0.000 A 
BRANCH   7   9
ATOM      9  C   UNL     1      44.869   9.055  11.601  0.00  0.00    +0.000 A 
ATOM     10  C   UNL     1      45.567  10.229  11.923  0.00  0.00    +0.000 A 
ATOM     11  C   UNL     1      45.039  11.464  11.569  0.00  0.00    +0.000 A 
ATOM     12  N   UNL     1      43.866  11.622  10.929  0.00  0.00    +0.000 NA
ATOM     13  C   UNL     1      43.193  10.494  10.628  0.00  0.00    +0.000 A 
ATOM     14  C   UNL     1      43.648   9.216  10.931  0.00  0.00    +0.000 A 
ENDBRANCH   7   9
ENDBRANCH   1   2
BRANCH   1  15
ATOM     15  O   UNL     1      44.852   2.918  12.574  0.00  0.00    +0.000 OA
ATOM     16  H   UNL     1      45.304   2.704  11.737  0.00  0.00    +0.000 HD
ENDBRANCH   1  15
BRANCH   1  17
ATOM     17  C   UNL     1      43.279   4.004  11.032  0.00  0.00    +0.000 C 
BRANCH  17  22
ATOM     18  C   UNL     1      46.632   2.485   7.464  0.00  0.00    +0.000 A 
ATOM     19  C   UNL     1      45.887   1.760   8.387  0.00  0.00    +0.000 A 
ATOM     20  C   UNL     1      45.014   2.442   9.236  0.00  0.00    +0.000 A 
ATOM     21  C   UNL     1      44.912   3.829   9.165  0.00  0.00    +0.000 A 
ATOM     22  N   UNL     1      44.021   4.561   9.913  0.00  0.00    +0.000 N 
ATOM     23  N   UNL     1      45.660   4.541   8.302  0.00  0.00    +0.000 NA
ATOM     24  C   UNL     1      46.505   3.863   7.475  0.00  0.00    +0.000 A 
ATOM     25  H   UNL     1      44.210   5.559   9.861  0.00  0.00    +0.000 HD
BRANCH  18  27
ATOM     26  N   UNL     1      48.745   2.482   6.258  0.00  0.00    +0.000 N 
ATOM     27  C   UNL     1      47.559   1.849   6.504  0.00  0.00    +0.000 C 
ATOM     28  O   UNL     1      47.291   0.778   5.972  0.00  0.00    +0.000 OA
ATOM     29  H   UNL     1      49.409   1.979   5.680  0.00  0.00    +0.000 HD
ATOM     30  H   UNL     1      49.107   3.220   6.844  0.00  0.00    +0.000 HD
ENDBRANCH  18  27
ENDBRANCH  17  22
ENDBRANCH   1  17
TORSDOF 6
ENDMDL
MODEL 4
REMARK VINA RESULT:    -8.116      2.361      2.957
REMARK INTER + INTRA:         -11.667
REMARK INTER:                 -10.774
REMARK INTRA:                  -0.892
REMARK UNBOUND:                -0.941
REMARK  Name = 
REMARK  6 active torsions:
REMARK  status: ('A' for Active; 'I' for Inactive)
REMARK    1  A    between atoms: C_2  and  C_4
REMARK    2  A    between atoms: N_8  and  C_9
REMARK    3  A    between atoms: C_9  and  C_10
REMARK    4  A    between atoms: C_10  and  O_11
REMARK    5  A    between atoms: C_10  and  C_12
REMARK    6  A    between atoms: C_17  and  C_18
REMARK                            x       y       z     vdW  Elec       q    Type
REMARK                         _______ _______ _______ _____ _____    ______ ____
ROOT
ATOM      1  C   UNL     1      44.099   3.864  12.471  0.00  0.00    +0.000 C 
ENDROOT
BRANCH   1   2
ATOM      2  C   UNL     1      44.825   5.194  12.456  0.00  0.00    +0.000 A 
ATOM      3  C   UNL     1      44.329   6.263  11.708  0.00  0.00    +0.000 A 
ATOM      4  C   UNL     1      45.026   7.462  11.685  0.00  0.00    +0.000 A 
ATOM      5  F   UNL     1      44.551   8.483  10.959  0.00  0.00    +0.000 F 
ATOM      6  C   UNL     1      46.211   7.631  12.399  0.00  0.00    +0.000 A 
ATOM      7  C   UNL     1      46.753   6.580  13.156  0.00  0.00    +0.000 A 
ATOM      8  C   UNL     1      46.036   5.364  13.154  0.00  0.00    +0.000 A 
BRANCH   7   9
ATOM      9  C   UNL     1      48.008   6.736  13.930  0.00  0.00    +0.000 A 
ATOM     10  C   UNL     1      48.164   6.164  15.202  0.00  0.00    +0.000 A 
ATOM     11  C   UNL     1      49.357   6.334  15.893  0.00  0.00    +0.000 A 
ATOM     12  N   UNL     1      50.402   7.037  15.420  0.00  0.00    +0.000 NA
ATOM     13  C   UNL     1      50.248   7.591  14.202  0.00  0.00    +0.000 A 
ATOM     14  C   UNL     1      49.098   7.465  13.433  0.00  0.00    +0.000 A 
ENDBRANCH   7   9
ENDBRANCH   1   2
BRANCH   1  15
ATOM     15  O   UNL     1      44.997   2.856  12.952  0.00  0.00    +0.000 OA
ATOM     16  H   UNL     1      44.762   2.684  13.882  0.00  0.00    +0.000 HD
ENDBRANCH   1  15
BRANCH   1  17
ATOM     17  C   UNL     1      43.576   3.515  11.061  0.00  0.00    +0.000 C 
BRANCH  17  22
ATOM     18  C   UNL     1      46.666   2.564   7.082  0.00  0.00    +0.000 A 
ATOM     19  C   UNL     1      46.161   3.758   7.583  0.00  0.00    +0.000 A 
ATOM     20  C   UNL     1      45.349   3.726   8.718  0.00  0.00    +0.000 A 
ATOM     21  C   UNL     1      45.041   2.509   9.322  0.00  0.00    +0.000 A 
ATOM     22  N   UNL     1      44.314   2.404  10.483  0.00  0.00    +0.000 N 
ATOM     23  N   UNL     1      45.494   1.346   8.819  0.00  0.00    +0.000 NA
ATOM     24  C   UNL     1      46.290   1.391   7.713  0.00  0.00    +0.000 A 
ATOM     25  H   UNL     1      44.040   1.444  10.675  0.00  0.00    +0.000 HD
BRANCH  18  27
ATOM     26  N   UNL     1      48.903   2.592   6.125  0.00  0.00    +0.000 N 
ATOM     27  C   UNL     1      47.557   2.500   5.905  0.00  0.00    +0.000 C 
ATOM     28  O   UNL     1      47.111   2.338   4.774  0.00  0.00    +0.000 OA
ATOM     29  H   UNL     1      49.500   2.441   5.320  0.00  0.00    +0.000 HD
ATOM     30  H   UNL     1      49.320   2.481   7.038  0.00  0.00    +0.000 HD
ENDBRANCH  18  27
ENDBRANCH  17  22
ENDBRANCH   1  17
TORSDOF 6
ENDMDL
MODEL 5
REMARK VINA RESULT:    -7.703      3.374      7.136
REMARK INTER + INTRA:         -11.121
REMARK INTER:                 -10.415
REMARK INTRA:                  -0.705
REMARK UNBOUND:                -0.941
REMARK  Name = 
REMARK  6 active torsions:
REMARK  status: ('A' for Active; 'I' for Inactive)
REMARK    1  A    between atoms: C_2  and  C_4
REMARK    2  A    between atoms: N_8  and  C_9
REMARK    3  A    between atoms: C_9  and  C_10
REMARK    4  A    between atoms: C_10  and  O_11
REMARK    5  A    between atoms: C_10  and  C_12
REMARK    6  A    between atoms: C_17  and  C_18
REMARK                            x       y       z     vdW  Elec       q    Type
REMARK                         _______ _______ _______ _____ _____    ______ ____
ROOT
ATOM      1  C   UNL     1      46.121   7.624  12.287  0.00  0.00    +0.000 C 
ENDROOT
BRANCH   1   2
ATOM      2  C   UNL     1      45.215   6.607  11.622  0.00  0.00    +0.000 A 
ATOM      3  C   UNL     1      43.861   6.542  11.955  0.00  0.00    +0.000 A 
ATOM      4  C   UNL     1      43.055   5.584  11.356  0.00  0.00    +0.000 A 
ATOM      5  F   UNL     1      41.758   5.520  11.685  0.00  0.00    +0.000 F 
ATOM      6  C   UNL     1      43.565   4.684  10.422  0.00  0.00    +0.000 A 
ATOM      7  C   UNL     1      44.923   4.705  10.066  0.00  0.00    +0.000 A 
ATOM      8  C   UNL     1      45.727   5.678  10.697  0.00  0.00    +0.000 A 
BRANCH   7   9
ATOM      9  C   UNL     1      45.487   3.764   9.070  0.00  0.00    +0.000 A 
ATOM     10  C   UNL     1      45.376   2.373   9.226  0.00  0.00    +0.000 A 
ATOM     11  C   UNL     1      45.918   1.526   8.268  0.00  0.00    +0.000 A 
ATOM     12  N   UNL     1      46.572   1.955   7.173  0.00  0.00    +0.000 NA
ATOM     13  C   UNL     1      46.685   3.289   7.029  0.00  0.00    +0.000 A 
ATOM     14  C   UNL     1      46.164   4.213   7.927  0.00  0.00    +0.000 A 
ENDBRANCH   7   9
ENDBRANCH   1   2
BRANCH   1  15
ATOM     15  O   UNL     1      45.826   8.920  11.751  0.00  0.00    +0.000 OA
ATOM     16  H   UNL     1      46.322   9.569  12.282  0.00  0.00    +0.000 HD
ENDBRANCH   1  15
BRANCH   1  17
ATOM     17  C   UNL     1      47.604   7.255  12.066  0.00  0.00    +0.000 C 
BRANCH  17  22
ATOM     18  C   UNL     1      47.681   4.318  16.268  0.00  0.00    +0.000 A 
ATOM     19  C   UNL     1      47.019   4.163  15.055  0.00  0.00    +0.000 A 
ATOM     20  C   UNL     1      47.205   5.120  14.057  0.00  0.00    +0.000 A 
ATOM     21  C   UNL     1      48.027   6.220  14.288  0.00  0.00    +0.000 A 
ATOM     22  N   UNL     1      48.318   7.161  13.330  0.00  0.00    +0.000 N 
ATOM     23  N   UNL     1      48.638   6.398  15.473  0.00  0.00    +0.000 NA
ATOM     24  C   UNL     1      48.454   5.453  16.438  0.00  0.00    +0.000 A 
ATOM     25  H   UNL     1      48.782   7.976  13.724  0.00  0.00    +0.000 HD
BRANCH  18  27
ATOM     26  N   UNL     1      48.668   3.161  18.167  0.00  0.00    +0.000 N 
ATOM     27  C   UNL     1      47.571   3.342  17.372  0.00  0.00    +0.000 C 
ATOM     28  O   UNL     1      46.527   2.739  17.590  0.00  0.00    +0.000 OA
ATOM     29  H   UNL     1      48.540   2.568  18.979  0.00  0.00    +0.000 HD
ATOM     30  H   UNL     1      49.451   3.799  18.178  0.00  0.00    +0.000 HD
ENDBRANCH  18  27
ENDBRANCH  17  22
ENDBRANCH   1  17
TORSDOF 6
ENDMDL
MODEL 6
REMARK VINA RESULT:    -7.405      2.373      2.998
REMARK INTER + INTRA:         -10.727
REMARK INTER:                 -10.055
REMARK INTRA:                  -0.672
REMARK UNBOUND:                -0.941
REMARK  Name = 
REMARK  6 active torsions:
REMARK  status: ('A' for Active; 'I' for Inactive)
REMARK    1  A    between atoms: C_2  and  C_4
REMARK    2  A    between atoms: N_8  and  C_9
REMARK    3  A    between atoms: C_9  and  C_10
REMARK    4  A    between atoms: C_10  and  O_11
REMARK    5  A    between atoms: C_10  and  C_12
REMARK    6  A    between atoms: C_17  and  C_18
REMARK                            x       y       z     vdW  Elec       q    Type
REMARK                         _______ _______ _______ _____ _____    ______ ____
ROOT
ATOM      1  C   UNL     1      43.003   5.946  11.499  0.00  0.00    +0.000 C 
ENDROOT
BRANCH   1   2
ATOM      2  C   UNL     1      43.957   7.107  11.691  0.00  0.00    +0.000 A 
ATOM      3  C   UNL     1      43.751   8.312  11.016  0.00  0.00    +0.000 A 
ATOM      4  C   UNL     1      44.654   9.352  11.184  0.00  0.00    +0.000 A 
ATOM      5  F   UNL     1      44.456  10.503  10.528  0.00  0.00    +0.000 F 
ATOM      6  C   UNL     1      45.763   9.227  12.019  0.00  0.00    +0.000 A 
ATOM      7  C   UNL     1      46.015   8.031  12.709  0.00  0.00    +0.000 A 
ATOM      8  C   UNL     1      45.093   6.980  12.512  0.00  0.00    +0.000 A 
BRANCH   7   9
ATOM      9  C   UNL     1      47.184   7.875  13.608  0.00  0.00    +0.000 A 
ATOM     10  C   UNL     1      47.776   6.623  13.836  0.00  0.00    +0.000 A 
ATOM     11  C   UNL     1      48.870   6.522  14.686  0.00  0.00    +0.000 A 
ATOM     12  N   UNL     1      49.414   7.569  15.334  0.00  0.00    +0.000 NA
ATOM     13  C   UNL     1      48.840   8.768  15.120  0.00  0.00    +0.000 A 
ATOM     14  C   UNL     1      47.752   8.968  14.279  0.00  0.00    +0.000 A 
ENDBRANCH   7   9
ENDBRANCH   1   2
BRANCH   1  15
ATOM     15  O   UNL     1      42.378   5.653  12.755  0.00  0.00    +0.000 OA
ATOM     16  H   UNL     1      41.765   4.911  12.603  0.00  0.00    +0.000 HD
ENDBRANCH   1  15
BRANCH   1  17
ATOM     17  C   UNL     1      43.752   4.713  10.949  0.00  0.00    +0.000 C 
BRANCH  17  22
ATOM     18  C   UNL     1      46.633   2.365   7.418  0.00  0.00    +0.000 A 
ATOM     19  C   UNL     1      45.894   1.858   8.480  0.00  0.00    +0.000 A 
ATOM     20  C   UNL     1      45.167   2.740   9.280  0.00  0.00    +0.000 A 
ATOM     21  C   UNL     1      45.202   4.108   9.022  0.00  0.00    +0.000 A 
ATOM     22  N   UNL     1      44.454   5.029   9.716  0.00  0.00    +0.000 N 
ATOM     23  N   UNL     1      45.947   4.610   8.020  0.00  0.00    +0.000 NA
ATOM     24  C   UNL     1      46.649   3.738   7.242  0.00  0.00    +0.000 A 
ATOM     25  H   UNL     1      44.740   5.983   9.512  0.00  0.00    +0.000 HD
BRANCH  18  27
ATOM     26  N   UNL     1      48.502   2.059   5.890  0.00  0.00    +0.000 N 
ATOM     27  C   UNL     1      47.409   1.507   6.498  0.00  0.00    +0.000 C 
ATOM     28  O   UNL     1      47.106   0.334   6.310  0.00  0.00    +0.000 OA
ATOM     29  H   UNL     1      49.079   1.426   5.347  0.00  0.00    +0.000 HD
ATOM     30  H   UNL     1      48.923   2.923   6.196  0.00  0.00    +0.000 HD
ENDBRANCH  18  27
ENDBRANCH  17  22
ENDBRANCH   1  17
TORSDOF 6
ENDMDL
MODEL 7
REMARK VINA RESULT:    -7.117      4.457      8.070
REMARK INTER + INTRA:         -10.347
REMARK INTER:                  -9.714
REMARK INTRA:                  -0.633
REMARK UNBOUND:                -0.941
REMARK  Name = 
REMARK  6 active torsions:
REMARK  status: ('A' for Active; 'I' for Inactive)
REMARK    1  A    between atoms: C_2  and  C_4
REMARK    2  A    between atoms: N_8  and  C_9
REMARK    3  A    between atoms: C_9  and  C_10
REMARK    4  A    between atoms: C_10  and  O_11
REMARK    5  A    between atoms: C_10  and  C_12
REMARK    6  A    between atoms: C_17  and  C_18
REMARK                            x       y       z     vdW  Elec       q    Type
REMARK                         _______ _______ _______ _____ _____    ______ ____
ROOT
ATOM      1  C   UNL     1      46.126   6.708  13.145  0.00  0.00    +0.000 C 
ENDROOT
BRANCH   1   2
ATOM      2  C   UNL     1      45.189   6.000  12.187  0.00  0.00    +0.000 A 
ATOM      3  C   UNL     1      43.806   6.097  12.348  0.00  0.00    +0.000 A 
ATOM      4  C   UNL     1      42.967   5.416  11.477  0.00  0.00    +0.000 A 
ATOM      5  F   UNL     1      41.641   5.506  11.640  0.00  0.00    +0.000 F 
ATOM      6  C   UNL     1      43.472   4.640  10.436  0.00  0.00    +0.000 A 
ATOM      7  C   UNL     1      44.857   4.505  10.243  0.00  0.00    +0.000 A 
ATOM      8  C   UNL     1      45.692   5.193  11.149  0.00  0.00    +0.000 A 
BRANCH   7   9
ATOM      9  C   UNL     1      45.419   3.691   9.139  0.00  0.00    +0.000 A 
ATOM     10  C   UNL     1      45.882   4.280   7.951  0.00  0.00    +0.000 A 
ATOM     11  C   UNL     1      46.402   3.480   6.942  0.00  0.00    +0.000 A 
ATOM     12  N   UNL     1      46.488   2.139   7.018  0.00  0.00    +0.000 NA
ATOM     13  C   UNL     1      46.037   1.575   8.155  0.00  0.00    +0.000 A 
ATOM     14  C   UNL     1      45.512   2.294   9.222  0.00  0.00    +0.000 A 
ENDBRANCH   7   9
ENDBRANCH   1   2
BRANCH   1  15
ATOM     15  O   UNL     1      46.595   7.911  12.523  0.00  0.00    +0.000 OA
ATOM     16  H   UNL     1      46.995   7.655  11.673  0.00  0.00    +0.000 HD
ENDBRANCH   1  15
BRANCH   1  17
ATOM     17  C   UNL     1      47.303   5.787  13.533  0.00  0.00    +0.000 C 
BRANCH  17  22
ATOM     18  C   UNL     1      48.652   4.613  18.338  0.00  0.00    +0.000 A 
ATOM     19  C   UNL     1      49.033   5.664  17.512  0.00  0.00    +0.000 A 
ATOM     20  C   UNL     1      48.476   5.756  16.235  0.00  0.00    +0.000 A 
ATOM     21  C   UNL     1      47.569   4.794  15.798  0.00  0.00    +0.000 A 
ATOM     22  N   UNL     1      46.923   4.860  14.587  0.00  0.00    +0.000 N 
ATOM     23  N   UNL     1      47.227   3.752  16.577  0.00  0.00    +0.000 NA
ATOM     24  C   UNL     1      47.773   3.676  17.824  0.00  0.00    +0.000 A 
ATOM     25  H   UNL     1      46.441   3.992  14.365  0.00  0.00    +0.000 HD
BRANCH  18  27
ATOM     26  N   UNL     1      48.371   3.782  20.608  0.00  0.00    +0.000 N 
ATOM     27  C   UNL     1      49.163   4.449  19.715  0.00  0.00    +0.000 C 
ATOM     28  O   UNL     1      50.269   4.866  20.040  0.00  0.00    +0.000 OA
ATOM     29  H   UNL     1      48.783   3.589  21.514  0.00  0.00    +0.000 HD
ATOM     30  H   UNL     1      47.581   3.220  20.329  0.00  0.00    +0.000 HD
ENDBRANCH  18  27
ENDBRANCH  17  22
ENDBRANCH   1  17
TORSDOF 6
ENDMDL
MODEL 8
REMARK VINA RESULT:    -7.009      1.986      2.482
REMARK INTER + INTRA:         -10.204
REMARK INTER:                  -9.484
REMARK INTRA:                  -0.720
REMARK UNBOUND:                -0.941
REMARK  Name = 
REMARK  6 active torsions:
REMARK  status: ('A' for Active; 'I' for Inactive)
REMARK    1  A    between atoms: C_2  and  C_4
REMARK    2  A    between atoms: N_8  and  C_9
REMARK    3  A    between atoms: C_9  and  C_10
REMARK    4  A    between atoms: C_10  and  O_11
REMARK    5  A    between atoms: C_10  and  C_12
REMARK    6  A    between atoms: C_17  and  C_18
REMARK                            x       y       z     vdW  Elec       q    Type
REMARK                         _______ _______ _______ _____ _____    ______ ____
ROOT
ATOM      1  C   UNL     1      44.869   5.168  12.454  0.00  0.00    +0.000 C 
ENDROOT
BRANCH   1   2
ATOM      2  C   UNL     1      45.500   6.544  12.381  0.00  0.00    +0.000 A 
ATOM      3  C   UNL     1      44.700   7.685  12.292  0.00  0.00    +0.000 A 
ATOM      4  C   UNL     1      45.299   8.933  12.196  0.00  0.00    +0.000 A 
ATOM      5  F   UNL     1      44.528  10.025  12.103  0.00  0.00    +0.000 F 
ATOM      6  C   UNL     1      46.685   9.078  12.193  0.00  0.00    +0.000 A 
ATOM      7  C   UNL     1      47.528   7.958  12.270  0.00  0.00    +0.000 A 
ATOM      8  C   UNL     1      46.899   6.697  12.352  0.00  0.00    +0.000 A 
BRANCH   7   9
ATOM      9  C   UNL     1      49.005   8.087  12.276  0.00  0.00    +0.000 A 
ATOM     10  C   UNL     1      49.695   8.598  13.386  0.00  0.00    +0.000 A 
ATOM     11  C   UNL     1      51.080   8.701  13.350  0.00  0.00    +0.000 A 
ATOM     12  N   UNL     1      51.830   8.343  12.291  0.00  0.00    +0.000 NA
ATOM     13  C   UNL     1      51.165   7.860  11.224  0.00  0.00    +0.000 A 
ATOM     14  C   UNL     1      49.785   7.710  11.173  0.00  0.00    +0.000 A 
ENDBRANCH   7   9
ENDBRANCH   1   2
BRANCH   1  15
ATOM     15  O   UNL     1      45.912   4.190  12.548  0.00  0.00    +0.000 OA
ATOM     16  H   UNL     1      45.650   3.438  11.988  0.00  0.00    +0.000 HD
ENDBRANCH   1  15
BRANCH   1  17
ATOM     17  C   UNL     1      43.977   4.914  11.220  0.00  0.00    +0.000 C 
BRANCH  17  22
ATOM     18  C   UNL     1      46.501   2.691   7.351  0.00  0.00    +0.000 A 
ATOM     19  C   UNL     1      45.762   2.146   8.393  0.00  0.00    +0.000 A 
ATOM     20  C   UNL     1      45.147   3.003   9.307  0.00  0.00    +0.000 A 
ATOM     21  C   UNL     1      45.293   4.382   9.178  0.00  0.00    +0.000 A 
ATOM     22  N   UNL     1      44.657   5.289   9.991  0.00  0.00    +0.000 N 
ATOM     23  N   UNL     1      46.041   4.916   8.195  0.00  0.00    +0.000 NA
ATOM     24  C   UNL     1      46.632   4.068   7.306  0.00  0.00    +0.000 A 
ATOM     25  H   UNL     1      45.018   6.232   9.866  0.00  0.00    +0.000 HD
BRANCH  18  27
ATOM     26  N   UNL     1      46.936   2.190   5.010  0.00  0.00    +0.000 N 
ATOM     27  C   UNL     1      47.163   1.866   6.318  0.00  0.00    +0.000 C 
ATOM     28  O   UNL     1      47.912   0.945   6.620  0.00  0.00    +0.000 OA
ATOM     29  H   UNL     1      47.480   1.681   4.322  0.00  0.00    +0.000 HD
ATOM     30  H   UNL     1      46.534   3.071   4.723  0.00  0.00    +0.000 HD
ENDBRANCH  18  27
ENDBRANCH  17  22
ENDBRANCH   1  17
TORSDOF 6
ENDMDL
MODEL 9
REMARK VINA RESULT:    -6.971      5.153      7.179
REMARK INTER + INTRA:         -10.153
REMARK INTER:                  -9.229
REMARK INTRA:                  -0.925
REMARK UNBOUND:                -0.941
REMARK  Name = 
REMARK  6 active torsions:
REMARK  status: ('A' for Active; 'I' for Inactive)
REMARK    1  A    between atoms: C_2  and  C_4
REMARK    2  A    between atoms: N_8  and  C_9
REMARK    3  A    between atoms: C_9  and  C_10
REMARK    4  A    between atoms: C_10  and  O_11
REMARK    5  A    between atoms: C_10  and  C_12
REMARK    6  A    between atoms: C_17  and  C_18
REMARK                            x       y       z     vdW  Elec       q    Type
REMARK                         _______ _______ _______ _____ _____    ______ ____
ROOT
ATOM      1  C   UNL     1      49.055   6.808  16.157  0.00  0.00    +0.000 C 
ENDROOT
BRANCH   1   2
ATOM      2  C   UNL     1      49.010   5.392  16.698  0.00  0.00    +0.000 A 
ATOM      3  C   UNL     1      47.787   4.754  16.911  0.00  0.00    +0.000 A 
ATOM      4  C   UNL     1      47.768   3.470  17.434  0.00  0.00    +0.000 A 
ATOM      5  F   UNL     1      46.592   2.864  17.644  0.00  0.00    +0.000 F 
ATOM      6  C   UNL     1      48.945   2.793  17.748  0.00  0.00    +0.000 A 
ATOM      7  C   UNL     1      50.198   3.400  17.561  0.00  0.00    +0.000 A 
ATOM      8  C   UNL     1      50.194   4.713  17.041  0.00  0.00    +0.000 A 
BRANCH   7   9
ATOM      9  C   UNL     1      51.465   2.699  17.880  0.00  0.00    +0.000 A 
ATOM     10  C   UNL     1      51.686   1.368  17.496  0.00  0.00    +0.000 A 
ATOM     11  C   UNL     1      52.888   0.749  17.814  0.00  0.00    +0.000 A 
ATOM     12  N   UNL     1      53.882   1.349  18.494  0.00  0.00    +0.000 NA
ATOM     13  C   UNL     1      53.665   2.624  18.869  0.00  0.00    +0.000 A 
ATOM     14  C   UNL     1      52.501   3.328  18.585  0.00  0.00    +0.000 A 
ENDBRANCH   7   9
ENDBRANCH   1   2
BRANCH   1  15
ATOM     15  O   UNL     1      48.013   7.570  16.781  0.00  0.00    +0.000 OA
ATOM     16  H   UNL     1      48.308   8.498  16.794  0.00  0.00    +0.000 HD
ENDBRANCH   1  15
BRANCH   1  17
ATOM     17  C   UNL     1      48.900   6.807  14.621  0.00  0.00    +0.000 C 
BRANCH  17  22
ATOM     18  C   UNL     1      44.885   4.405  12.524  0.00  0.00    +0.000 A 
ATOM     19  C   UNL     1      46.104   3.920  12.984  0.00  0.00    +0.000 A 
ATOM     20  C   UNL     1      47.019   4.812  13.545  0.00  0.00    +0.000 A 
ATOM     21  C   UNL     1      46.714   6.169  13.622  0.00  0.00    +0.000 A 
ATOM     22  N   UNL     1      47.530   7.093  14.228  0.00  0.00    +0.000 N 
ATOM     23  N   UNL     1      45.554   6.652  13.142  0.00  0.00    +0.000 NA
ATOM     24  C   UNL     1      44.666   5.770  12.602  0.00  0.00    +0.000 A 
ATOM     25  H   UNL     1      47.235   8.047  14.033  0.00  0.00    +0.000 HD
BRANCH  18  27
ATOM     26  N   UNL     1      43.671   2.297  12.497  0.00  0.00    +0.000 N 
ATOM     27  C   UNL     1      43.841   3.534  11.944  0.00  0.00    +0.000 C 
ATOM     28  O   UNL     1      43.131   3.917  11.021  0.00  0.00    +0.000 OA
ATOM     29  H   UNL     1      42.883   1.758  12.155  0.00  0.00    +0.000 HD
ATOM     30  H   UNL     1      44.055   2.038  13.394  0.00  0.00    +0.000 HD
ENDBRANCH  18  27
ENDBRANCH  17  22
ENDBRANCH   1  17
TORSDOF 6
ENDMDL
