MODEL 1
REMARK VINA RESULT:    -7.596      0.000      0.000
REMARK INTER + INTRA:         -11.999
REMARK INTER:                 -10.705
REMARK INTRA:                  -1.294
REMARK UNBOUND:                -1.294
REMARK  Name = 
REMARK  7 active torsions:
REMARK  status: ('A' for Active; 'I' for Inactive)
REMARK    1  A    between atoms: C_2  and  C_20
REMARK    2  A    between atoms: N_3  and  C_4
REMARK    3  A    between atoms: C_4  and  C_5
REMARK    4  A    between atoms: C_8  and  C_9
REMARK    5  A    between atoms: C_9  and  N_10
REMARK    6  A    between atoms: N_10  and  C_11
REMARK    7  A    between atoms: C_11  and  C_12
REMARK                            x       y       z     vdW  Elec       q    Type
REMARK                         _______ _______ _______ _____ _____    ______ ____
ROOT
ATOM      1  C   UNL     1      45.898   6.323  12.007  0.00  0.00    +0.000 A 
ATOM      2  C   UNL     1      45.166   5.340  12.657  0.00  0.00    +0.000 A 
ATOM      3  C   UNL     1      44.585   4.307  11.939  0.00  0.00    +0.000 A 
ATOM      4  C   UNL     1      44.709   4.185  10.552  0.00  0.00    +0.000 A 
ATOM      5  C   UNL     1      45.514   5.141   9.908  0.00  0.00    +0.000 A 
ATOM      6  C   UNL     1      46.095   6.205  10.627  0.00  0.00    +0.000 A 
ENDROOT
BRANCH   1   7
ATOM      7  C   UNL     1      46.451   7.444  12.839  0.00  0.00    +0.000 C 
BRANCH   7  10
ATOM      8  O   UNL     1      49.102   6.559  13.289  0.00  0.00    +0.000 OA
ATOM      9  C   UNL     1      48.311   6.593  14.228  0.00  0.00    +0.000 C 
ATOM     10  N   UNL     1      46.995   6.956  14.082  0.00  0.00    +0.000 N 
ATOM     11  H   UNL     1      46.452   7.176  14.906  0.00  0.00    +0.000 HD
BRANCH   9  12
ATOM     12  C   UNL     1      48.717   6.185  15.579  0.00  0.00    +0.000 A 
ATOM     13  C   UNL     1      49.568   6.997  16.319  0.00  0.00    +0.000 A 
ATOM     14  S   UNL     1      49.960   6.359  17.849  0.00  0.00    +0.000 S 
ATOM     15  C   UNL     1      48.958   5.005  17.600  0.00  0.00    +0.000 A 
ATOM     16  N   UNL     1      48.807   4.061  18.568  0.00  0.00    +0.000 NA
ATOM     17  C   UNL     1      47.986   3.113  18.264  0.00  0.00    +0.000 A 
ATOM     18  N   UNL     1      47.308   3.018  17.078  0.00  0.00    +0.000 N 
ATOM     19  C   UNL     1      47.480   3.906  16.051  0.00  0.00    +0.000 A 
ATOM     20  O   UNL     1      46.975   3.707  14.946  0.00  0.00    +0.000 OA
ATOM     21  C   UNL     1      48.360   5.022  16.354  0.00  0.00    +0.000 A 
ATOM     22  H   UNL     1      46.707   2.228  16.894  0.00  0.00    +0.000 HD
ENDBRANCH   9  12
ENDBRANCH   7  10
ENDBRANCH   1   7
BRANCH   4  23
ATOM     23  C   UNL     1      44.111   3.037   9.750  0.00  0.00    +0.000 C 
BRANCH  23  24
ATOM     24  N   UNL     1      44.973   1.858   9.507  0.00  0.00    +0.000 NA
ATOM     25  H   UNL     1      44.427   1.025   9.727  0.00  0.00    +0.000 HD
BRANCH  24  26
ATOM     26  C   UNL     1      45.409   1.747   8.116  0.00  0.00    +0.000 C 
BRANCH  26  27
ATOM     27  C   UNL     1      46.852   2.218   7.828  0.00  0.00    +0.000 C 
ATOM     28  C   UNL     1      46.990   3.438   6.896  0.00  0.00    +0.000 C 
ATOM     29  C   UNL     1      46.765   3.128   5.415  0.00  0.00    +0.000 C 
ATOM     30  N   UNL     1      47.577   2.001   4.948  0.00  0.00    +0.000 NA
ATOM     31  C   UNL     1      47.312   0.804   5.740  0.00  0.00    +0.000 C 
ATOM     32  C   UNL     1      47.636   1.031   7.220  0.00  0.00    +0.000 C 
ATOM     33  H   UNL     1      48.564   2.243   5.029  0.00  0.00    +0.000 HD
ENDBRANCH  26  27
ENDBRANCH  24  26
ENDBRANCH  23  24
ENDBRANCH   4  23
TORSDOF 7
ENDMDL
MODEL 2
REMARK VINA RESULT:    -6.964      3.340      5.969
REMARK INTER + INTRA:         -11.108
REMARK INTER:                 -10.432
REMARK INTRA:                  -0.676
REMARK UNBOUND:                -1.294
REMARK  Name = 
REMARK  7 active torsions:
REMARK  status: ('A' for Active; 'I' for Inactive)
REMARK    1  A    between atoms: C_2  and  C_20
REMARK    2  A    between atoms: N_3  and  C_4
REMARK    3  A    between atoms: C_4  and  C_5
REMARK    4  A    between atoms: C_8  and  C_9
REMARK    5  A    between atoms: C_9  and  N_10
REMARK    6  A    between atoms: N_10  and  C_11
REMARK    7  A    between atoms: C_11  and  C_12
REMARK                            x       y       z     vdW  Elec       q    Type
REMARK                         _______ _______ _______ _____ _____    ______ ____
ROOT
ATOM      1  C   UNL     1      45.404   2.422   8.619  0.00  0.00    +0.000 A 
ATOM      2  C   UNL     1      45.568   3.447   7.698  0.00  0.00    +0.000 A 
ATOM      3  C   UNL     1      46.371   3.267   6.584  0.00  0.00    +0.000 A 
ATOM      4  C   UNL     1      47.039   2.069   6.316  0.00  0.00    +0.000 A 
ATOM      5  C   UNL     1      46.810   1.010   7.212  0.00  0.00    +0.000 A 
ATOM      6  C   UNL     1      46.008   1.187   8.357  0.00  0.00    +0.000 A 
ENDROOT
BRANCH   1   7
ATOM      7  C   UNL     1      44.566   2.703   9.832  0.00  0.00    +0.000 C 
BRANCH   7  10
ATOM      8  O   UNL     1      45.010   2.988  12.613  0.00  0.00    +0.000 OA
ATOM      9  C   UNL     1      45.253   3.932  11.865  0.00  0.00    +0.000 C 
ATOM     10  N   UNL     1      45.013   3.893  10.514  0.00  0.00    +0.000 N 
ATOM     11  H   UNL     1      45.427   4.600   9.921  0.00  0.00    +0.000 HD
BRANCH   9  12
ATOM     12  C   UNL     1      45.770   5.202  12.388  0.00  0.00    +0.000 A 
ATOM     13  C   UNL     1      46.944   5.215  13.133  0.00  0.00    +0.000 A 
ATOM     14  S   UNL     1      47.383   6.766  13.686  0.00  0.00    +0.000 S 
ATOM     15  C   UNL     1      46.054   7.482  12.898  0.00  0.00    +0.000 A 
ATOM     16  N   UNL     1      45.861   8.828  12.938  0.00  0.00    +0.000 NA
ATOM     17  C   UNL     1      44.841   9.239  12.263  0.00  0.00    +0.000 A 
ATOM     18  N   UNL     1      43.992   8.429  11.557  0.00  0.00    +0.000 N 
ATOM     19  C   UNL     1      44.108   7.065  11.544  0.00  0.00    +0.000 A 
ATOM     20  O   UNL     1      43.243   6.358  11.028  0.00  0.00    +0.000 OA
ATOM     21  C   UNL     1      45.267   6.547  12.251  0.00  0.00    +0.000 A 
ATOM     22  H   UNL     1      43.193   8.817  11.080  0.00  0.00    +0.000 HD
ENDBRANCH   9  12
ENDBRANCH   7  10
ENDBRANCH   1   7
BRANCH   4  23
ATOM     23  C   UNL     1      47.896   1.840   5.078  0.00  0.00    +0.000 C 
BRANCH  23  24
ATOM     24  N   UNL     1      47.320   1.004   4.001  0.00  0.00    +0.000 NA
ATOM     25  H   UNL     1      47.913   1.108   3.177  0.00  0.00    +0.000 HD
BRANCH  24  26
ATOM     26  C   UNL     1      47.280  -0.418   4.341  0.00  0.00    +0.000 C 
BRANCH  26  27
ATOM     27  C   UNL     1      46.478  -1.315   3.372  0.00  0.00    +0.000 C 
ATOM     28  C   UNL     1      46.180  -2.744   3.867  0.00  0.00    +0.000 C 
ATOM     29  C   UNL     1      47.377  -3.695   3.803  0.00  0.00    +0.000 C 
ATOM     30  N   UNL     1      48.015  -3.706   2.484  0.00  0.00    +0.000 NA
ATOM     31  C   UNL     1      48.441  -2.364   2.100  0.00  0.00    +0.000 C 
ATOM     32  C   UNL     1      47.253  -1.398   2.036  0.00  0.00    +0.000 C 
ATOM     33  H   UNL     1      47.351  -4.055   1.794  0.00  0.00    +0.000 HD
ENDBRANCH  26  27
ENDBRANCH  24  26
ENDBRANCH  23  24
ENDBRANCH   4  23
TORSDOF 7
ENDMDL
MODEL 3
REMARK VINA RESULT:    -6.875      3.045      4.211
REMARK INTER + INTRA:         -10.983
REMARK INTER:                  -9.370
REMARK INTRA:                  -1.613
REMARK UNBOUND:                -1.294
REMARK  Name = 
REMARK  7 active torsions:
REMARK  status: ('A' for Active; 'I' for Inactive)
REMARK    1  A    between atoms: C_2  and  C_20
REMARK    2  A    between atoms: N_3  and  C_4
REMARK    3  A    between atoms: C_4  and  C_5
REMARK    4  A    between atoms: C_8  and  C_9
REMARK    5  A    between atoms: C_9  and  N_10
REMARK    6  A    between atoms: N_10  and  C_11
REMARK    7  A    between atoms: C_11  and  C_12
REMARK                            x       y       z     vdW  Elec       q    Type
REMARK                         _______ _______ _______ _____ _____    ______ ____
ROOT
ATOM      1  C   UNL     1      48.289   7.943  12.933  0.00  0.00    +0.000 A 
ATOM      2  C   UNL     1      47.894   6.898  12.112  0.00  0.00    +0.000 A 
ATOM      3  C   UNL     1      46.615   6.867  11.580  0.00  0.00    +0.000 A 
ATOM      4  C   UNL     1      45.671   7.870  11.819  0.00  0.00    +0.000 A 
ATOM      5  C   UNL     1      46.101   8.964  12.591  0.00  0.00    +0.000 A 
ATOM      6  C   UNL     1      47.393   8.996  13.150  0.00  0.00    +0.000 A 
ENDROOT
BRANCH   1   7
ATOM      7  C   UNL     1      49.669   7.883  13.522  0.00  0.00    +0.000 C 
BRANCH   7  10
ATOM      8  O   UNL     1      49.405   8.565  16.256  0.00  0.00    +0.000 OA
ATOM      9  C   UNL     1      49.533   7.385  15.940  0.00  0.00    +0.000 C 
ATOM     10  N   UNL     1      49.723   6.977  14.643  0.00  0.00    +0.000 N 
ATOM     11  H   UNL     1      49.604   6.000  14.413  0.00  0.00    +0.000 HD
BRANCH   9  12
ATOM     12  C   UNL     1      49.551   6.324  16.954  0.00  0.00    +0.000 A 
ATOM     13  C   UNL     1      50.377   6.446  18.066  0.00  0.00    +0.000 A 
ATOM     14  S   UNL     1      50.296   5.114  19.125  0.00  0.00    +0.000 S 
ATOM     15  C   UNL     1      49.110   4.356  18.166  0.00  0.00    +0.000 A 
ATOM     16  N   UNL     1      48.565   3.167  18.540  0.00  0.00    +0.000 NA
ATOM     17  C   UNL     1      47.648   2.728  17.746  0.00  0.00    +0.000 A 
ATOM     18  N   UNL     1      47.231   3.365  16.607  0.00  0.00    +0.000 N 
ATOM     19  C   UNL     1      47.797   4.526  16.157  0.00  0.00    +0.000 A 
ATOM     20  O   UNL     1      47.506   4.991  15.054  0.00  0.00    +0.000 OA
ATOM     21  C   UNL     1      48.805   5.093  17.037  0.00  0.00    +0.000 A 
ATOM     22  H   UNL     1      46.532   2.945  16.013  0.00  0.00    +0.000 HD
ENDBRANCH   9  12
ENDBRANCH   7  10
ENDBRANCH   1   7
BRANCH   4  23
ATOM     23  C   UNL     1      44.274   7.875  11.213  0.00  0.00    +0.000 C 
BRANCH  23  24
ATOM     24  N   UNL     1      43.303   6.891  11.741  0.00  0.00    +0.000 NA
ATOM     25  H   UNL     1      42.383   7.335  11.745  0.00  0.00    +0.000 HD
BRANCH  24  26
ATOM     26  C   UNL     1      43.208   5.685  10.921  0.00  0.00    +0.000 C 
BRANCH  26  27
ATOM     27  C   UNL     1      42.942   4.372  11.689  0.00  0.00    +0.000 C 
ATOM     28  C   UNL     1      43.433   4.332  13.149  0.00  0.00    +0.000 C 
ATOM     29  C   UNL     1      44.944   4.145  13.300  0.00  0.00    +0.000 C 
ATOM     30  N   UNL     1      45.448   3.004  12.533  0.00  0.00    +0.000 NA
ATOM     31  C   UNL     1      45.114   3.138  11.118  0.00  0.00    +0.000 C 
ATOM     32  C   UNL     1      43.598   3.211  10.906  0.00  0.00    +0.000 C 
ATOM     33  H   UNL     1      45.030   2.147  12.893  0.00  0.00    +0.000 HD
ENDBRANCH  26  27
ENDBRANCH  24  26
ENDBRANCH  23  24
ENDBRANCH   4  23
TORSDOF 7
ENDMDL
MODEL 4
REMARK VINA RESULT:    -6.706      2.876      8.542
REMARK INTER + INTRA:         -10.744
REMARK INTER:                  -9.156
REMARK INTRA:                  -1.588
REMARK UNBOUND:                -1.294
REMARK  Name = 
REMARK  7 active torsions:
REMARK  status: ('A' for Active; 'I' for Inactive)
REMARK    1  A    between atoms: C_2  and  C_20
REMARK    2  A    between atoms: N_3  and  C_4
REMARK    3  A    between atoms: C_4  and  C_5
REMARK    4  A    between atoms: C_8  and  C_9
REMARK    5  A    between atoms: C_9  and  N_10
REMARK    6  A    between atoms: N_10  and  C_11
REMARK    7  A    between atoms: C_11  and  C_12
REMARK                            x       y       z     vdW  Elec       q    Type
REMARK                         _______ _______ _______ _____ _____    ______ ____
ROOT
ATOM      1  C   UNL     1      48.337   8.042  13.199  0.00  0.00    +0.000 A 
ATOM      2  C   UNL     1      49.571   7.456  13.439  0.00  0.00    +0.000 A 
ATOM      3  C   UNL     1      50.191   7.604  14.670  0.00  0.00    +0.000 A 
ATOM      4  C   UNL     1      49.620   8.323  15.724  0.00  0.00    +0.000 A 
ATOM      5  C   UNL     1      48.336   8.851  15.500  0.00  0.00    +0.000 A 
ATOM      6  C   UNL     1      47.705   8.720  14.248  0.00  0.00    +0.000 A 
ENDROOT
BRANCH   1   7
ATOM      7  C   UNL     1      47.749   7.890  11.826  0.00  0.00    +0.000 C 
BRANCH   7  10
ATOM      8  O   UNL     1      44.962   7.584  12.217  0.00  0.00    +0.000 OA
ATOM      9  C   UNL     1      45.631   6.614  11.868  0.00  0.00    +0.000 C 
ATOM     10  N   UNL     1      46.994   6.666  11.711  0.00  0.00    +0.000 N 
ATOM     11  H   UNL     1      47.461   5.916  11.219  0.00  0.00    +0.000 HD
BRANCH   9  12
ATOM     12  C   UNL     1      45.011   5.302  11.649  0.00  0.00    +0.000 A 
ATOM     13  C   UNL     1      44.295   4.698  12.676  0.00  0.00    +0.000 A 
ATOM     14  S   UNL     1      43.668   3.168  12.263  0.00  0.00    +0.000 S 
ATOM     15  C   UNL     1      44.279   3.288  10.677  0.00  0.00    +0.000 A 
ATOM     16  N   UNL     1      44.053   2.303   9.766  0.00  0.00    +0.000 NA
ATOM     17  C   UNL     1      44.535   2.543   8.593  0.00  0.00    +0.000 A 
ATOM     18  N   UNL     1      45.228   3.673   8.249  0.00  0.00    +0.000 N 
ATOM     19  C   UNL     1      45.537   4.656   9.149  0.00  0.00    +0.000 A 
ATOM     20  O   UNL     1      46.290   5.582   8.847  0.00  0.00    +0.000 OA
ATOM     21  C   UNL     1      44.980   4.462  10.477  0.00  0.00    +0.000 A 
ATOM     22  H   UNL     1      45.607   3.777   7.320  0.00  0.00    +0.000 HD
ENDBRANCH   9  12
ENDBRANCH   7  10
ENDBRANCH   1   7
BRANCH   4  23
ATOM     23  C   UNL     1      50.267   8.465  17.095  0.00  0.00    +0.000 C 
BRANCH  23  24
ATOM     24  N   UNL     1      50.562   7.219  17.838  0.00  0.00    +0.000 NA
ATOM     25  H   UNL     1      50.854   7.482  18.780  0.00  0.00    +0.000 HD
BRANCH  24  26
ATOM     26  C   UNL     1      49.401   6.340  17.963  0.00  0.00    +0.000 C 
BRANCH  26  27
ATOM     27  C   UNL     1      49.397   5.102  17.040  0.00  0.00    +0.000 C 
ATOM     28  C   UNL     1      48.080   4.825  16.289  0.00  0.00    +0.000 C 
ATOM     29  C   UNL     1      46.976   4.217  17.156  0.00  0.00    +0.000 C 
ATOM     30  N   UNL     1      47.429   3.037  17.896  0.00  0.00    +0.000 NA
ATOM     31  C   UNL     1      48.582   3.358  18.733  0.00  0.00    +0.000 C 
ATOM     32  C   UNL     1      49.759   3.862  17.891  0.00  0.00    +0.000 C 
ATOM     33  H   UNL     1      47.690   2.307  17.235  0.00  0.00    +0.000 HD
ENDBRANCH  26  27
ENDBRANCH  24  26
ENDBRANCH  23  24
ENDBRANCH   4  23
TORSDOF 7
ENDMDL
MODEL 5
REMARK VINA RESULT:    -6.644      2.982      5.323
REMARK INTER + INTRA:         -10.657
REMARK INTER:                  -9.738
REMARK INTRA:                  -0.919
REMARK UNBOUND:                -1.294
REMARK  Name = 
REMARK  7 active torsions:
REMARK  status: ('A' for Active; 'I' for Inactive)
REMARK    1  A    between atoms: C_2  and  C_20
REMARK    2  A    between atoms: N_3  and  C_4
REMARK    3  A    between atoms: C_4  and  C_5
REMARK    4  A    between atoms: C_8  and  C_9
REMARK    5  A    between atoms: C_9  and  N_10
REMARK    6  A    between atoms: N_10  and  C_11
REMARK    7  A    between atoms: C_11  and  C_12
REMARK                            x       y       z     vdW  Elec       q    Type
REMARK                         _______ _______ _______ _____ _____    ______ ____
ROOT
ATOM      1  C   UNL     1      47.378   4.267  15.859  0.00  0.00    +0.000 A 
ATOM      2  C   UNL     1      47.989   5.510  15.784  0.00  0.00    +0.000 A 
ATOM      3  C   UNL     1      47.962   6.235  14.603  0.00  0.00    +0.000 A 
ATOM      4  C   UNL     1      47.322   5.778  13.447  0.00  0.00    +0.000 A 
ATOM      5  C   UNL     1      46.641   4.552  13.551  0.00  0.00    +0.000 A 
ATOM      6  C   UNL     1      46.676   3.800  14.742  0.00  0.00    +0.000 A 
ENDROOT
BRANCH   1   7
ATOM      7  C   UNL     1      47.494   3.511  17.151  0.00  0.00    +0.000 C 
BRANCH   7  10
ATOM      8  O   UNL     1      49.267   1.619  16.015  0.00  0.00    +0.000 OA
ATOM      9  C   UNL     1      49.682   2.393  16.874  0.00  0.00    +0.000 C 
ATOM     10  N   UNL     1      48.874   3.300  17.513  0.00  0.00    +0.000 N 
ATOM     11  H   UNL     1      49.300   4.049  18.043  0.00  0.00    +0.000 HD
BRANCH   9  12
ATOM     12  C   UNL     1      51.080   2.353  17.321  0.00  0.00    +0.000 A 
ATOM     13  C   UNL     1      51.724   1.129  17.463  0.00  0.00    +0.000 A 
ATOM     14  S   UNL     1      53.330   1.265  18.018  0.00  0.00    +0.000 S 
ATOM     15  C   UNL     1      53.239   2.966  18.029  0.00  0.00    +0.000 A 
ATOM     16  N   UNL     1      54.317   3.720  18.375  0.00  0.00    +0.000 NA
ATOM     17  C   UNL     1      54.122   4.993  18.298  0.00  0.00    +0.000 A 
ATOM     18  N   UNL     1      52.947   5.582  17.914  0.00  0.00    +0.000 N 
ATOM     19  C   UNL     1      51.818   4.865  17.622  0.00  0.00    +0.000 A 
ATOM     20  O   UNL     1      50.739   5.426  17.430  0.00  0.00    +0.000 OA
ATOM     21  C   UNL     1      51.991   3.422  17.648  0.00  0.00    +0.000 A 
ATOM     22  H   UNL     1      52.855   6.587  17.910  0.00  0.00    +0.000 HD
ENDBRANCH   9  12
ENDBRANCH   7  10
ENDBRANCH   1   7
BRANCH   4  23
ATOM     23  C   UNL     1      47.249   6.576  12.152  0.00  0.00    +0.000 C 
BRANCH  23  24
ATOM     24  N   UNL     1      45.937   6.643  11.471  0.00  0.00    +0.000 NA
ATOM     25  H   UNL     1      45.880   7.544  10.995  0.00  0.00    +0.000 HD
BRANCH  24  26
ATOM     26  C   UNL     1      45.763   5.598  10.463  0.00  0.00    +0.000 C 
BRANCH  26  27
ATOM     27  C   UNL     1      44.302   5.216  10.140  0.00  0.00    +0.000 C 
ATOM     28  C   UNL     1      43.421   4.836  11.347  0.00  0.00    +0.000 C 
ATOM     29  C   UNL     1      43.692   3.440  11.910  0.00  0.00    +0.000 C 
ATOM     30  N   UNL     1      43.661   2.403  10.877  0.00  0.00    +0.000 NA
ATOM     31  C   UNL     1      44.622   2.693   9.817  0.00  0.00    +0.000 C 
ATOM     32  C   UNL     1      44.320   4.035   9.141  0.00  0.00    +0.000 C 
ATOM     33  H   UNL     1      42.726   2.358  10.474  0.00  0.00    +0.000 HD
ENDBRANCH  26  27
ENDBRANCH  24  26
ENDBRANCH  23  24
ENDBRANCH   4  23
TORSDOF 7
ENDMDL
MODEL 6
REMARK VINA RESULT:    -6.644      2.816      5.329
REMARK INTER + INTRA:         -10.657
REMARK INTER:                 -10.128
REMARK INTRA:                  -0.529
REMARK UNBOUND:                -1.294
REMARK  Name = 
REMARK  7 active torsions:
REMARK  status: ('A' for Active; 'I' for Inactive)
REMARK    1  A    between atoms: C_2  and  C_20
REMARK    2  A    between atoms: N_3  and  C_4
REMARK    3  A    between atoms: C_4  and  C_5
REMARK    4  A    between atoms: C_8  and  C_9
REMARK    5  A    between atoms: C_9  and  N_10
REMARK    6  A    between atoms: N_10  and  C_11
REMARK    7  A    between atoms: C_11  and  C_12
REMARK                            x       y       z     vdW  Elec       q    Type
REMARK                         _______ _______ _______ _____ _____    ______ ____
ROOT
ATOM      1  C   UNL     1      45.147   2.898   8.974  0.00  0.00    +0.000 A 
ATOM      2  C   UNL     1      45.566   3.871   8.079  0.00  0.00    +0.000 A 
ATOM      3  C   UNL     1      46.401   3.541   7.023  0.00  0.00    +0.000 A 
ATOM      4  C   UNL     1      46.850   2.238   6.790  0.00  0.00    +0.000 A 
ATOM      5  C   UNL     1      46.362   1.244   7.656  0.00  0.00    +0.000 A 
ATOM      6  C   UNL     1      45.527   1.571   8.743  0.00  0.00    +0.000 A 
ENDROOT
BRANCH   1   7
ATOM      7  C   UNL     1      44.291   3.335  10.127  0.00  0.00    +0.000 C 
BRANCH   7  10
ATOM      8  O   UNL     1      45.038   3.976  12.781  0.00  0.00    +0.000 OA
ATOM      9  C   UNL     1      45.090   4.845  11.914  0.00  0.00    +0.000 C 
ATOM     10  N   UNL     1      44.693   4.630  10.618  0.00  0.00    +0.000 N 
ATOM     11  H   UNL     1      44.956   5.298   9.906  0.00  0.00    +0.000 HD
BRANCH   9  12
ATOM     12  C   UNL     1      45.533   6.209  12.230  0.00  0.00    +0.000 A 
ATOM     13  C   UNL     1      44.853   7.297  11.694  0.00  0.00    +0.000 A 
ATOM     14  S   UNL     1      45.517   8.802  12.138  0.00  0.00    +0.000 S 
ATOM     15  C   UNL     1      46.698   8.054  13.111  0.00  0.00    +0.000 A 
ATOM     16  N   UNL     1      47.587   8.797  13.824  0.00  0.00    +0.000 NA
ATOM     17  C   UNL     1      48.396   8.103  14.551  0.00  0.00    +0.000 A 
ATOM     18  N   UNL     1      48.404   6.736  14.625  0.00  0.00    +0.000 N 
ATOM     19  C   UNL     1      47.575   5.947  13.875  0.00  0.00    +0.000 A 
ATOM     20  O   UNL     1      47.711   4.724  13.849  0.00  0.00    +0.000 OA
ATOM     21  C   UNL     1      46.608   6.675  13.070  0.00  0.00    +0.000 A 
ATOM     22  H   UNL     1      49.091   6.258  15.189  0.00  0.00    +0.000 HD
ENDBRANCH   9  12
ENDBRANCH   7  10
ENDBRANCH   1   7
BRANCH   4  23
ATOM     23  C   UNL     1      47.735   1.849   5.614  0.00  0.00    +0.000 C 
BRANCH  23  24
ATOM     24  N   UNL     1      47.079   1.204   4.455  0.00  0.00    +0.000 NA
ATOM     25  H   UNL     1      47.524   1.560   3.609  0.00  0.00    +0.000 HD
BRANCH  24  26
ATOM     26  C   UNL     1      47.224  -0.251   4.454  0.00  0.00    +0.000 C 
BRANCH  26  27
ATOM     27  C   UNL     1      46.492  -0.996   3.316  0.00  0.00    +0.000 C 
ATOM     28  C   UNL     1      46.169  -2.480   3.580  0.00  0.00    +0.000 C 
ATOM     29  C   UNL     1      47.371  -3.417   3.456  0.00  0.00    +0.000 C 
ATOM     30  N   UNL     1      48.093  -3.241   2.194  0.00  0.00    +0.000 NA
ATOM     31  C   UNL     1      48.537  -1.859   2.036  0.00  0.00    +0.000 C 
ATOM     32  C   UNL     1      47.351  -0.889   2.035  0.00  0.00    +0.000 C 
ATOM     33  H   UNL     1      47.477  -3.484   1.419  0.00  0.00    +0.000 HD
ENDBRANCH  26  27
ENDBRANCH  24  26
ENDBRANCH  23  24
ENDBRANCH   4  23
TORSDOF 7
ENDMDL
MODEL 7
REMARK VINA RESULT:    -6.626      3.215      5.118
REMARK INTER + INTRA:         -10.632
REMARK INTER:                  -9.603
REMARK INTRA:                  -1.029
REMARK UNBOUND:                -1.294
REMARK  Name = 
REMARK  7 active torsions:
REMARK  status: ('A' for Active; 'I' for Inactive)
REMARK    1  A    between atoms: C_2  and  C_20
REMARK    2  A    between atoms: N_3  and  C_4
REMARK    3  A    between atoms: C_4  and  C_5
REMARK    4  A    between atoms: C_8  and  C_9
REMARK    5  A    between atoms: C_9  and  N_10
REMARK    6  A    between atoms: N_10  and  C_11
REMARK    7  A    between atoms: C_11  and  C_12
REMARK                            x       y       z     vdW  Elec       q    Type
REMARK                         _______ _______ _______ _____ _____    ______ ____
ROOT
ATOM      1  C   UNL     1      47.698   4.944  15.747  0.00  0.00    +0.000 A 
ATOM      2  C   UNL     1      48.378   6.087  15.353  0.00  0.00    +0.000 A 
ATOM      3  C   UNL     1      48.158   6.639  14.101  0.00  0.00    +0.000 A 
ATOM      4  C   UNL     1      47.248   6.101  13.186  0.00  0.00    +0.000 A 
ATOM      5  C   UNL     1      46.507   4.988  13.619  0.00  0.00    +0.000 A 
ATOM      6  C   UNL     1      46.736   4.409  14.883  0.00  0.00    +0.000 A 
ENDROOT
BRANCH   1   7
ATOM      7  C   UNL     1      48.028   4.366  17.093  0.00  0.00    +0.000 C 
BRANCH   7  10
ATOM      8  O   UNL     1      49.641   4.798  19.378  0.00  0.00    +0.000 OA
ATOM      9  C   UNL     1      50.137   4.282  18.380  0.00  0.00    +0.000 C 
ATOM     10  N   UNL     1      49.438   4.090  17.214  0.00  0.00    +0.000 N 
ATOM     11  H   UNL     1      49.819   3.474  16.509  0.00  0.00    +0.000 HD
BRANCH   9  12
ATOM     12  C   UNL     1      51.550   3.886  18.352  0.00  0.00    +0.000 A 
ATOM     13  C   UNL     1      52.522   4.761  18.825  0.00  0.00    +0.000 A 
ATOM     14  S   UNL     1      54.108   4.155  18.692  0.00  0.00    +0.000 S 
ATOM     15  C   UNL     1      53.548   2.678  18.054  0.00  0.00    +0.000 A 
ATOM     16  N   UNL     1      54.415   1.674  17.752  0.00  0.00    +0.000 NA
ATOM     17  C   UNL     1      53.852   0.597  17.320  0.00  0.00    +0.000 A 
ATOM     18  N   UNL     1      52.502   0.434  17.153  0.00  0.00    +0.000 N 
ATOM     19  C   UNL     1      51.600   1.437  17.379  0.00  0.00    +0.000 A 
ATOM     20  O   UNL     1      50.414   1.307  17.075  0.00  0.00    +0.000 OA
ATOM     21  C   UNL     1      52.173   2.661  17.913  0.00  0.00    +0.000 A 
ATOM     22  H   UNL     1      52.134  -0.427  16.776  0.00  0.00    +0.000 HD
ENDBRANCH   9  12
ENDBRANCH   7  10
ENDBRANCH   1   7
BRANCH   4  23
ATOM     23  C   UNL     1      46.963   6.715  11.822  0.00  0.00    +0.000 C 
BRANCH  23  24
ATOM     24  N   UNL     1      45.623   6.480  11.239  0.00  0.00    +0.000 NA
ATOM     25  H   UNL     1      45.308   7.356  10.822  0.00  0.00    +0.000 HD
BRANCH  24  26
ATOM     26  C   UNL     1      45.628   5.465  10.187  0.00  0.00    +0.000 C 
BRANCH  26  27
ATOM     27  C   UNL     1      44.244   4.908   9.786  0.00  0.00    +0.000 C 
ATOM     28  C   UNL     1      43.339   4.451  10.947  0.00  0.00    +0.000 C 
ATOM     29  C   UNL     1      43.733   3.106  11.560  0.00  0.00    +0.000 C 
ATOM     30  N   UNL     1      43.887   2.053  10.553  0.00  0.00    +0.000 NA
ATOM     31  C   UNL     1      44.873   2.436   9.546  0.00  0.00    +0.000 C 
ATOM     32  C   UNL     1      44.460   3.721   8.820  0.00  0.00    +0.000 C 
ATOM     33  H   UNL     1      42.990   1.893  10.096  0.00  0.00    +0.000 HD
ENDBRANCH  26  27
ENDBRANCH  24  26
ENDBRANCH  23  24
ENDBRANCH   4  23
TORSDOF 7
ENDMDL
MODEL 8
REMARK VINA RESULT:    -6.524      1.899      2.691
REMARK INTER + INTRA:         -10.488
REMARK INTER:                  -9.524
REMARK INTRA:                  -0.964
REMARK UNBOUND:                -1.294
REMARK  Name = 
REMARK  7 active torsions:
REMARK  status: ('A' for Active; 'I' for Inactive)
REMARK    1  A    between atoms: C_2  and  C_20
REMARK    2  A    between atoms: N_3  and  C_4
REMARK    3  A    between atoms: C_4  and  C_5
REMARK    4  A    between atoms: C_8  and  C_9
REMARK    5  A    between atoms: C_9  and  N_10
REMARK    6  A    between atoms: N_10  and  C_11
REMARK    7  A    between atoms: C_11  and  C_12
REMARK                            x       y       z     vdW  Elec       q    Type
REMARK                         _______ _______ _______ _____ _____    ______ ____
ROOT
ATOM      1  C   UNL     1      47.019   6.600  13.335  0.00  0.00    +0.000 A 
ATOM      2  C   UNL     1      47.055   5.308  13.836  0.00  0.00    +0.000 A 
ATOM      3  C   UNL     1      46.039   4.413  13.545  0.00  0.00    +0.000 A 
ATOM      4  C   UNL     1      44.947   4.743  12.737  0.00  0.00    +0.000 A 
ATOM      5  C   UNL     1      44.953   6.029  12.170  0.00  0.00    +0.000 A 
ATOM      6  C   UNL     1      45.973   6.952  12.473  0.00  0.00    +0.000 A 
ENDROOT
BRANCH   1   7
ATOM      7  C   UNL     1      48.123   7.535  13.736  0.00  0.00    +0.000 C 
BRANCH   7  10
ATOM      8  O   UNL     1      50.397   6.824  15.264  0.00  0.00    +0.000 OA
ATOM      9  C   UNL     1      49.412   7.292  15.831  0.00  0.00    +0.000 C 
ATOM     10  N   UNL     1      48.252   7.609  15.171  0.00  0.00    +0.000 N 
ATOM     11  H   UNL     1      47.563   8.185  15.637  0.00  0.00    +0.000 HD
BRANCH   9  12
ATOM     12  C   UNL     1      49.395   7.488  17.286  0.00  0.00    +0.000 A 
ATOM     13  C   UNL     1      50.144   8.515  17.852  0.00  0.00    +0.000 A 
ATOM     14  S   UNL     1      50.034   8.581  19.551  0.00  0.00    +0.000 S 
ATOM     15  C   UNL     1      48.935   7.281  19.584  0.00  0.00    +0.000 A 
ATOM     16  N   UNL     1      48.402   6.847  20.759  0.00  0.00    +0.000 NA
ATOM     17  C   UNL     1      47.552   5.885  20.633  0.00  0.00    +0.000 A 
ATOM     18  N   UNL     1      47.190   5.311  19.444  0.00  0.00    +0.000 N 
ATOM     19  C   UNL     1      47.750   5.668  18.248  0.00  0.00    +0.000 A 
ATOM     20  O   UNL     1      47.518   5.031  17.220  0.00  0.00    +0.000 OA
ATOM     21  C   UNL     1      48.682   6.781  18.320  0.00  0.00    +0.000 A 
ATOM     22  H   UNL     1      46.544   4.536  19.425  0.00  0.00    +0.000 HD
ENDBRANCH   9  12
ENDBRANCH   7  10
ENDBRANCH   1   7
BRANCH   4  23
ATOM     23  C   UNL     1      43.840   3.762  12.374  0.00  0.00    +0.000 C 
BRANCH  23  24
ATOM     24  N   UNL     1      44.189   2.652  11.459  0.00  0.00    +0.000 NA
ATOM     25  H   UNL     1      43.319   2.268  11.091  0.00  0.00    +0.000 HD
BRANCH  24  26
ATOM     26  C   UNL     1      44.999   3.084  10.321  0.00  0.00    +0.000 C 
BRANCH  26  27
ATOM     27  C   UNL     1      44.559   2.543   8.942  0.00  0.00    +0.000 C 
ATOM     28  C   UNL     1      45.212   1.221   8.497  0.00  0.00    +0.000 C 
ATOM     29  C   UNL     1      46.656   1.364   8.011  0.00  0.00    +0.000 C 
ATOM     30  N   UNL     1      46.805   2.405   6.992  0.00  0.00    +0.000 NA
ATOM     31  C   UNL     1      46.330   3.693   7.490  0.00  0.00    +0.000 C 
ATOM     32  C   UNL     1      44.850   3.629   7.881  0.00  0.00    +0.000 C 
ATOM     33  H   UNL     1      46.263   2.147   6.168  0.00  0.00    +0.000 HD
ENDBRANCH  26  27
ENDBRANCH  24  26
ENDBRANCH  23  24
ENDBRANCH   4  23
TORSDOF 7
ENDMDL
MODEL 9
REMARK VINA RESULT:    -6.357      3.507      8.918
REMARK INTER + INTRA:         -10.253
REMARK INTER:                  -9.188
REMARK INTRA:                  -1.065
REMARK UNBOUND:                -1.294
REMARK  Name = 
REMARK  7 active torsions:
REMARK  status: ('A' for Active; 'I' for Inactive)
REMARK    1  A    between atoms: C_2  and  C_20
REMARK    2  A    between atoms: N_3  and  C_4
REMARK    3  A    between atoms: C_4  and  C_5
REMARK    4  A    between atoms: C_8  and  C_9
REMARK    5  A    between atoms: C_9  and  N_10
REMARK    6  A    between atoms: N_10  and  C_11
REMARK    7  A    between atoms: C_11  and  C_12
REMARK                            x       y       z     vdW  Elec       q    Type
REMARK                         _______ _______ _______ _____ _____    ______ ____
ROOT
ATOM      1  C   UNL     1      48.986   7.754  13.426  0.00  0.00    +0.000 A 
ATOM      2  C   UNL     1      50.217   8.365  13.615  0.00  0.00    +0.000 A 
ATOM      3  C   UNL     1      50.983   8.071  14.731  0.00  0.00    +0.000 A 
ATOM      4  C   UNL     1      50.582   7.151  15.705  0.00  0.00    +0.000 A 
ATOM      5  C   UNL     1      49.369   6.480  15.471  0.00  0.00    +0.000 A 
ATOM      6  C   UNL     1      48.575   6.784  14.348  0.00  0.00    +0.000 A 
ENDROOT
BRANCH   1   7
ATOM      7  C   UNL     1      48.183   8.162  12.226  0.00  0.00    +0.000 C 
BRANCH   7  10
ATOM      8  O   UNL     1      45.388   7.926  11.844  0.00  0.00    +0.000 OA
ATOM      9  C   UNL     1      46.127   7.024  11.457  0.00  0.00    +0.000 C 
ATOM     10  N   UNL     1      47.485   7.037  11.654  0.00  0.00    +0.000 N 
ATOM     11  H   UNL     1      48.063   6.390  11.133  0.00  0.00    +0.000 HD
BRANCH   9  12
ATOM     12  C   UNL     1      45.586   5.828  10.800  0.00  0.00    +0.000 A 
ATOM     13  C   UNL     1      45.868   5.590   9.459  0.00  0.00    +0.000 A 
ATOM     14  S   UNL     1      45.138   4.176   8.849  0.00  0.00    +0.000 S 
ATOM     15  C   UNL     1      44.470   3.801  10.370  0.00  0.00    +0.000 A 
ATOM     16  N   UNL     1      43.743   2.665  10.552  0.00  0.00    +0.000 NA
ATOM     17  C   UNL     1      43.335   2.484  11.763  0.00  0.00    +0.000 A 
ATOM     18  N   UNL     1      43.580   3.336  12.807  0.00  0.00    +0.000 N 
ATOM     19  C   UNL     1      44.247   4.521  12.656  0.00  0.00    +0.000 A 
ATOM     20  O   UNL     1      44.317   5.334  13.577  0.00  0.00    +0.000 OA
ATOM     21  C   UNL     1      44.772   4.758  11.321  0.00  0.00    +0.000 A 
ATOM     22  H   UNL     1      43.198   3.147  13.721  0.00  0.00    +0.000 HD
ENDBRANCH   9  12
ENDBRANCH   7  10
ENDBRANCH   1   7
BRANCH   4  23
ATOM     23  C   UNL     1      51.427   6.786  16.918  0.00  0.00    +0.000 C 
BRANCH  23  24
ATOM     24  N   UNL     1      50.926   5.700  17.790  0.00  0.00    +0.000 NA
ATOM     25  H   UNL     1      51.727   5.133  18.071  0.00  0.00    +0.000 HD
BRANCH  24  26
ATOM     26  C   UNL     1      50.285   6.195  19.007  0.00  0.00    +0.000 C 
BRANCH  26  27
ATOM     27  C   UNL     1      49.321   5.210  19.705  0.00  0.00    +0.000 C 
ATOM     28  C   UNL     1      48.690   4.131  18.803  0.00  0.00    +0.000 C 
ATOM     29  C   UNL     1      47.562   4.642  17.905  0.00  0.00    +0.000 C 
ATOM     30  N   UNL     1      46.542   5.382  18.651  0.00  0.00    +0.000 NA
ATOM     31  C   UNL     1      47.135   6.505  19.372  0.00  0.00    +0.000 C 
ATOM     32  C   UNL     1      48.193   6.029  20.373  0.00  0.00    +0.000 C 
ATOM     33  H   UNL     1      46.095   4.756  19.320  0.00  0.00    +0.000 HD
ENDBRANCH  26  27
ENDBRANCH  24  26
ENDBRANCH  23  24
ENDBRANCH   4  23
TORSDOF 7
ENDMDL
