MODEL 1
REMARK VINA RESULT:    -8.058      0.000      0.000
REMARK INTER + INTRA:         -12.005
REMARK INTER:                 -10.884
REMARK INTRA:                  -1.121
REMARK UNBOUND:                -1.121
REMARK  Name = 
REMARK  7 active torsions:
REMARK  status: ('A' for Active; 'I' for Inactive)
REMARK    1  A    between atoms: C_1  and  C_2
REMARK    2  A    between atoms: C_6  and  C_7
REMARK    3  A    between atoms: N_9  and  C_10
REMARK    4  A    between atoms: C_10  and  C_11
REMARK    5  A    between atoms: C_14  and  C_15
REMARK    6  A    between atoms: C_15  and  N_16
REMARK    7  A    between atoms: C_17  and  C_19
REMARK                            x       y       z     vdW  Elec       q    Type
REMARK                         _______ _______ _______ _____ _____    ______ ____
ROOT
ATOM      1  C   UNL     1      44.966   6.127  10.979  0.00  0.00    +0.000 A 
ATOM      2  C   UNL     1      44.468   7.318  11.525  0.00  0.00    +0.000 A 
ATOM      3  C   UNL     1      45.229   8.066  12.435  0.00  0.00    +0.000 A 
ATOM      4  C   UNL     1      46.515   7.649  12.802  0.00  0.00    +0.000 A 
ATOM      5  C   UNL     1      47.007   6.451  12.266  0.00  0.00    +0.000 A 
ATOM      6  C   UNL     1      46.248   5.706  11.354  0.00  0.00    +0.000 A 
ENDROOT
BRANCH   1   7
ATOM      7  C   UNL     1      44.122   5.303  10.041  0.00  0.00    +0.000 C 
BRANCH   7  10
ATOM      8  C   UNL     1      44.783   3.081   9.241  0.00  0.00    +0.000 C 
ATOM      9  O   UNL     1      44.047   2.506  10.038  0.00  0.00    +0.000 OA
ATOM     10  N   UNL     1      44.890   4.457   9.164  0.00  0.00    +0.000 N 
ATOM     11  H   UNL     1      45.537   4.841   8.483  0.00  0.00    +0.000 HD
BRANCH   8  17
ATOM     12  C   UNL     1      47.431   2.846   4.991  0.00  0.00    +0.000 C 
ATOM     13  C   UNL     1      46.901   2.204   6.237  0.00  0.00    +0.000 A 
ATOM     14  C   UNL     1      47.178   0.871   6.545  0.00  0.00    +0.000 A 
ATOM     15  C   UNL     1      46.659   0.331   7.715  0.00  0.00    +0.000 A 
ATOM     16  N   UNL     1      45.889   1.011   8.588  0.00  0.00    +0.000 NA
ATOM     17  C   UNL     1      45.631   2.310   8.273  0.00  0.00    +0.000 A 
ATOM     18  C   UNL     1      46.106   2.937   7.123  0.00  0.00    +0.000 A 
ENDBRANCH   8  17
ENDBRANCH   7  10
ENDBRANCH   1   7
BRANCH   4  19
ATOM     19  C   UNL     1      47.359   8.455  13.759  0.00  0.00    +0.000 C 
BRANCH  19  20
ATOM     20  N   UNL     1      47.733   7.695  14.925  0.00  0.00    +0.000 N 
ATOM     21  C   UNL     1      48.992   7.162  15.054  0.00  0.00    +0.000 C 
ATOM     22  O   UNL     1      49.865   7.336  14.208  0.00  0.00    +0.000 OA
ATOM     23  H   UNL     1      46.977   7.317  15.486  0.00  0.00    +0.000 HD
BRANCH  21  24
ATOM     24  C   UNL     1      49.262   6.417  16.292  0.00  0.00    +0.000 A 
ATOM     25  C   UNL     1      50.241   6.865  17.171  0.00  0.00    +0.000 A 
ATOM     26  S   UNL     1      50.383   5.909  18.577  0.00  0.00    +0.000 S 
ATOM     27  C   UNL     1      49.180   4.835  18.035  0.00  0.00    +0.000 A 
ATOM     28  N   UNL     1      48.821   3.747  18.775  0.00  0.00    +0.000 NA
ATOM     29  C   UNL     1      47.915   3.008  18.226  0.00  0.00    +0.000 A 
ATOM     30  N   UNL     1      47.325   3.262  17.016  0.00  0.00    +0.000 N 
ATOM     31  C   UNL     1      47.633   4.362  16.254  0.00  0.00    +0.000 A 
ATOM     32  O   UNL     1      47.043   4.585  15.195  0.00  0.00    +0.000 OA
ATOM     33  C   UNL     1      48.659   5.217  16.814  0.00  0.00    +0.000 A 
ATOM     34  H   UNL     1      46.609   2.651  16.649  0.00  0.00    +0.000 HD
ENDBRANCH  21  24
ENDBRANCH  19  20
ENDBRANCH   4  19
TORSDOF 6
ENDMDL
MODEL 2
REMARK VINA RESULT:    -7.768      2.236      2.658
REMARK INTER + INTRA:         -11.614
REMARK INTER:                 -10.639
REMARK INTRA:                  -0.975
REMARK UNBOUND:                -1.121
REMARK  Name = 
REMARK  7 active torsions:
REMARK  status: ('A' for Active; 'I' for Inactive)
REMARK    1  A    between atoms: C_1  and  C_2
REMARK    2  A    between atoms: C_6  and  C_7
REMARK    3  A    between atoms: N_9  and  C_10
REMARK    4  A    between atoms: C_10  and  C_11
REMARK    5  A    between atoms: C_14  and  C_15
REMARK    6  A    between atoms: C_15  and  N_16
REMARK    7  A    between atoms: C_17  and  C_19
REMARK                            x       y       z     vdW  Elec       q    Type
REMARK                         _______ _______ _______ _____ _____    ______ ____
ROOT
ATOM      1  C   UNL     1      45.433   4.818  11.783  0.00  0.00    +0.000 A 
ATOM      2  C   UNL     1      45.868   6.101  11.426  0.00  0.00    +0.000 A 
ATOM      3  C   UNL     1      46.761   6.811  12.240  0.00  0.00    +0.000 A 
ATOM      4  C   UNL     1      47.257   6.242  13.421  0.00  0.00    +0.000 A 
ATOM      5  C   UNL     1      46.812   4.963  13.784  0.00  0.00    +0.000 A 
ATOM      6  C   UNL     1      45.921   4.253  12.968  0.00  0.00    +0.000 A 
ENDROOT
BRANCH   1   7
ATOM      7  C   UNL     1      44.433   4.082  10.927  0.00  0.00    +0.000 C 
BRANCH   7  10
ATOM      8  C   UNL     1      45.447   3.563   8.756  0.00  0.00    +0.000 C 
ATOM      9  O   UNL     1      45.336   4.719   8.357  0.00  0.00    +0.000 OA
ATOM     10  N   UNL     1      45.033   3.150  10.008  0.00  0.00    +0.000 N 
ATOM     11  H   UNL     1      45.152   2.169  10.243  0.00  0.00    +0.000 HD
BRANCH   8  17
ATOM     12  C   UNL     1      47.557   2.130   4.439  0.00  0.00    +0.000 C 
ATOM     13  C   UNL     1      47.071   1.819   5.823  0.00  0.00    +0.000 A 
ATOM     14  C   UNL     1      47.172   0.534   6.360  0.00  0.00    +0.000 A 
ATOM     15  C   UNL     1      46.705   0.307   7.648  0.00  0.00    +0.000 A 
ATOM     16  N   UNL     1      46.147   1.252   8.430  0.00  0.00    +0.000 NA
ATOM     17  C   UNL     1      46.059   2.500   7.892  0.00  0.00    +0.000 A 
ATOM     18  C   UNL     1      46.498   2.823   6.609  0.00  0.00    +0.000 A 
ENDBRANCH   8  17
ENDBRANCH   7  10
ENDBRANCH   1   7
BRANCH   4  19
ATOM     19  C   UNL     1      48.240   6.980  14.297  0.00  0.00    +0.000 C 
BRANCH  19  20
ATOM     20  N   UNL     1      48.079   6.649  15.690  0.00  0.00    +0.000 N 
ATOM     21  C   UNL     1      49.149   6.267  16.460  0.00  0.00    +0.000 C 
ATOM     22  O   UNL     1      50.292   6.222  16.014  0.00  0.00    +0.000 OA
ATOM     23  H   UNL     1      47.140   6.419  16.000  0.00  0.00    +0.000 HD
BRANCH  21  24
ATOM     24  C   UNL     1      48.865   5.968  17.871  0.00  0.00    +0.000 A 
ATOM     25  C   UNL     1      49.118   4.697  18.375  0.00  0.00    +0.000 A 
ATOM     26  S   UNL     1      48.778   4.545  20.040  0.00  0.00    +0.000 S 
ATOM     27  C   UNL     1      48.232   6.153  20.132  0.00  0.00    +0.000 A 
ATOM     28  N   UNL     1      47.764   6.673  21.303  0.00  0.00    +0.000 NA
ATOM     29  C   UNL     1      47.358   7.896  21.216  0.00  0.00    +0.000 A 
ATOM     30  N   UNL     1      47.391   8.652  20.074  0.00  0.00    +0.000 N 
ATOM     31  C   UNL     1      47.883   8.179  18.882  0.00  0.00    +0.000 A 
ATOM     32  O   UNL     1      47.945   8.907  17.889  0.00  0.00    +0.000 OA
ATOM     33  C   UNL     1      48.334   6.804  18.917  0.00  0.00    +0.000 A 
ATOM     34  H   UNL     1      47.073   9.611  20.077  0.00  0.00    +0.000 HD
ENDBRANCH  21  24
ENDBRANCH  19  20
ENDBRANCH   4  19
TORSDOF 6
ENDMDL
MODEL 3
REMARK VINA RESULT:    -7.359      4.241      7.457
REMARK INTER + INTRA:         -11.062
REMARK INTER:                 -10.087
REMARK INTRA:                  -0.975
REMARK UNBOUND:                -1.121
REMARK  Name = 
REMARK  7 active torsions:
REMARK  status: ('A' for Active; 'I' for Inactive)
REMARK    1  A    between atoms: C_1  and  C_2
REMARK    2  A    between atoms: C_6  and  C_7
REMARK    3  A    between atoms: N_9  and  C_10
REMARK    4  A    between atoms: C_10  and  C_11
REMARK    5  A    between atoms: C_14  and  C_15
REMARK    6  A    between atoms: C_15  and  N_16
REMARK    7  A    between atoms: C_17  and  C_19
REMARK                            x       y       z     vdW  Elec       q    Type
REMARK                         _______ _______ _______ _____ _____    ______ ____
ROOT
ATOM      1  C   UNL     1      44.856   9.164  11.861  0.00  0.00    +0.000 A 
ATOM      2  C   UNL     1      44.323   7.990  11.311  0.00  0.00    +0.000 A 
ATOM      3  C   UNL     1      44.822   6.732  11.678  0.00  0.00    +0.000 A 
ATOM      4  C   UNL     1      45.853   6.621  12.621  0.00  0.00    +0.000 A 
ATOM      5  C   UNL     1      46.394   7.796  13.161  0.00  0.00    +0.000 A 
ATOM      6  C   UNL     1      45.893   9.052  12.796  0.00  0.00    +0.000 A 
ENDROOT
BRANCH   1   7
ATOM      7  C   UNL     1      44.349  10.514  11.423  0.00  0.00    +0.000 C 
BRANCH   7  10
ATOM      8  C   UNL     1      41.920  10.846  11.347  0.00  0.00    +0.000 C 
ATOM      9  O   UNL     1      41.843  10.480  10.178  0.00  0.00    +0.000 OA
ATOM     10  N   UNL     1      43.110  10.898  12.049  0.00  0.00    +0.000 N 
ATOM     11  H   UNL     1      43.076  11.229  13.008  0.00  0.00    +0.000 HD
BRANCH   8  17
ATOM     12  C   UNL     1      36.947  10.816  11.979  0.00  0.00    +0.000 C 
ATOM     13  C   UNL     1      38.316  11.248  12.409  0.00  0.00    +0.000 A 
ATOM     14  C   UNL     1      38.507  12.054  13.533  0.00  0.00    +0.000 A 
ATOM     15  C   UNL     1      39.800  12.422  13.883  0.00  0.00    +0.000 A 
ATOM     16  N   UNL     1      40.904  12.056  13.201  0.00  0.00    +0.000 NA
ATOM     17  C   UNL     1      40.699  11.269  12.110  0.00  0.00    +0.000 A 
ATOM     18  C   UNL     1      39.441  10.850  11.681  0.00  0.00    +0.000 A 
ENDBRANCH   8  17
ENDBRANCH   7  10
ENDBRANCH   1   7
BRANCH   4  19
ATOM     19  C   UNL     1      46.384   5.274  13.049  0.00  0.00    +0.000 C 
BRANCH  19  20
ATOM     20  N   UNL     1      46.935   5.307  14.381  0.00  0.00    +0.000 N 
ATOM     21  C   UNL     1      47.388   4.165  14.992  0.00  0.00    +0.000 C 
ATOM     22  O   UNL     1      47.381   3.074  14.428  0.00  0.00    +0.000 OA
ATOM     23  H   UNL     1      46.704   6.115  14.951  0.00  0.00    +0.000 HD
BRANCH  21  24
ATOM     24  C   UNL     1      47.941   4.324  16.346  0.00  0.00    +0.000 A 
ATOM     25  C   UNL     1      47.545   3.462  17.361  0.00  0.00    +0.000 A 
ATOM     26  S   UNL     1      48.326   3.761  18.849  0.00  0.00    +0.000 S 
ATOM     27  C   UNL     1      49.176   5.083  18.202  0.00  0.00    +0.000 A 
ATOM     28  N   UNL     1      50.026   5.820  18.972  0.00  0.00    +0.000 NA
ATOM     29  C   UNL     1      50.581   6.809  18.353  0.00  0.00    +0.000 A 
ATOM     30  N   UNL     1      50.377   7.120  17.035  0.00  0.00    +0.000 N 
ATOM     31  C   UNL     1      49.555   6.387  16.215  0.00  0.00    +0.000 A 
ATOM     32  O   UNL     1      49.438   6.667  15.021  0.00  0.00    +0.000 OA
ATOM     33  C   UNL     1      48.891   5.275  16.863  0.00  0.00    +0.000 A 
ATOM     34  H   UNL     1      50.856   7.900  16.605  0.00  0.00    +0.000 HD
ENDBRANCH  21  24
ENDBRANCH  19  20
ENDBRANCH   4  19
TORSDOF 6
ENDMDL
MODEL 4
REMARK VINA RESULT:    -7.175      5.164     10.080
REMARK INTER + INTRA:         -10.813
REMARK INTER:                  -9.965
REMARK INTRA:                  -0.848
REMARK UNBOUND:                -1.121
REMARK  Name = 
REMARK  7 active torsions:
REMARK  status: ('A' for Active; 'I' for Inactive)
REMARK    1  A    between atoms: C_1  and  C_2
REMARK    2  A    between atoms: C_6  and  C_7
REMARK    3  A    between atoms: N_9  and  C_10
REMARK    4  A    between atoms: C_10  and  C_11
REMARK    5  A    between atoms: C_14  and  C_15
REMARK    6  A    between atoms: C_15  and  N_16
REMARK    7  A    between atoms: C_17  and  C_19
REMARK                            x       y       z     vdW  Elec       q    Type
REMARK                         _______ _______ _______ _____ _____    ______ ____
ROOT
ATOM      1  C   UNL     1      51.506   3.113  17.793  0.00  0.00    +0.000 A 
ATOM      2  C   UNL     1      50.849   4.338  17.972  0.00  0.00    +0.000 A 
ATOM      3  C   UNL     1      49.484   4.471  17.682  0.00  0.00    +0.000 A 
ATOM      4  C   UNL     1      48.740   3.375  17.226  0.00  0.00    +0.000 A 
ATOM      5  C   UNL     1      49.401   2.154  17.034  0.00  0.00    +0.000 A 
ATOM      6  C   UNL     1      50.764   2.019  17.327  0.00  0.00    +0.000 A 
ENDROOT
BRANCH   1   7
ATOM      7  C   UNL     1      52.985   2.990  18.058  0.00  0.00    +0.000 C 
BRANCH   7  10
ATOM      8  C   UNL     1      54.293   0.922  17.910  0.00  0.00    +0.000 C 
ATOM      9  O   UNL     1      54.823   1.258  16.856  0.00  0.00    +0.000 OA
ATOM     10  N   UNL     1      53.375   1.707  18.582  0.00  0.00    +0.000 N 
ATOM     11  H   UNL     1      52.978   1.337  19.440  0.00  0.00    +0.000 HD
BRANCH   8  17
ATOM     12  C   UNL     1      55.050  -4.025  17.600  0.00  0.00    +0.000 C 
ATOM     13  C   UNL     1      54.983  -2.761  18.403  0.00  0.00    +0.000 A 
ATOM     14  C   UNL     1      55.223  -2.758  19.778  0.00  0.00    +0.000 A 
ATOM     15  C   UNL     1      55.146  -1.555  20.469  0.00  0.00    +0.000 A 
ATOM     16  N   UNL     1      54.847  -0.371  19.900  0.00  0.00    +0.000 NA
ATOM     17  C   UNL     1      54.619  -0.392  18.558  0.00  0.00    +0.000 A 
ATOM     18  C   UNL     1      54.671  -1.548  17.782  0.00  0.00    +0.000 A 
ENDBRANCH   8  17
ENDBRANCH   7  10
ENDBRANCH   1   7
BRANCH   4  19
ATOM     19  C   UNL     1      47.264   3.493  16.935  0.00  0.00    +0.000 C 
BRANCH  19  20
ATOM     20  N   UNL     1      46.984   4.518  15.961  0.00  0.00    +0.000 N 
ATOM     21  C   UNL     1      47.067   4.263  14.615  0.00  0.00    +0.000 C 
ATOM     22  O   UNL     1      47.345   3.151  14.176  0.00  0.00    +0.000 OA
ATOM     23  H   UNL     1      47.022   5.479  16.286  0.00  0.00    +0.000 HD
BRANCH  21  24
ATOM     24  C   UNL     1      46.745   5.383  13.717  0.00  0.00    +0.000 A 
ATOM     25  C   UNL     1      47.687   6.378  13.485  0.00  0.00    +0.000 A 
ATOM     26  S   UNL     1      47.163   7.567  12.380  0.00  0.00    +0.000 S 
ATOM     27  C   UNL     1      45.642   6.823  12.215  0.00  0.00    +0.000 A 
ATOM     28  N   UNL     1      44.679   7.359  11.412  0.00  0.00    +0.000 NA
ATOM     29  C   UNL     1      43.567   6.701  11.407  0.00  0.00    +0.000 A 
ATOM     30  N   UNL     1      43.334   5.553  12.117  0.00  0.00    +0.000 N 
ATOM     31  C   UNL     1      44.285   4.963  12.913  0.00  0.00    +0.000 A 
ATOM     32  O   UNL     1      44.054   3.902  13.495  0.00  0.00    +0.000 OA
ATOM     33  C   UNL     1      45.547   5.670  12.971  0.00  0.00    +0.000 A 
ATOM     34  H   UNL     1      42.444   5.077  12.056  0.00  0.00    +0.000 HD
ENDBRANCH  21  24
ENDBRANCH  19  20
ENDBRANCH   4  19
TORSDOF 6
ENDMDL
MODEL 5
REMARK VINA RESULT:    -6.997      2.012      2.549
REMARK INTER + INTRA:         -10.573
REMARK INTER:                  -9.766
REMARK INTRA:                  -0.807
REMARK UNBOUND:                -1.121
REMARK  Name = 
REMARK  7 active torsions:
REMARK  status: ('A' for Active; 'I' for Inactive)
REMARK    1  A    between atoms: C_1  and  C_2
REMARK    2  A    between atoms: C_6  and  C_7
REMARK    3  A    between atoms: N_9  and  C_10
REMARK    4  A    between atoms: C_10  and  C_11
REMARK    5  A    between atoms: C_14  and  C_15
REMARK    6  A    between atoms: C_15  and  N_16
REMARK    7  A    between atoms: C_17  and  C_19
REMARK                            x       y       z     vdW  Elec       q    Type
REMARK                         _______ _______ _______ _____ _____    ______ ____
ROOT
ATOM      1  C   UNL     1      45.471   4.448  12.113  0.00  0.00    +0.000 A 
ATOM      2  C   UNL     1      45.813   5.721  11.636  0.00  0.00    +0.000 A 
ATOM      3  C   UNL     1      46.662   6.560  12.370  0.00  0.00    +0.000 A 
ATOM      4  C   UNL     1      47.205   6.136  13.590  0.00  0.00    +0.000 A 
ATOM      5  C   UNL     1      46.852   4.869  14.073  0.00  0.00    +0.000 A 
ATOM      6  C   UNL     1      46.007   4.028  13.338  0.00  0.00    +0.000 A 
ENDROOT
BRANCH   1   7
ATOM      7  C   UNL     1      44.518   3.571  11.342  0.00  0.00    +0.000 C 
BRANCH   7  10
ATOM      8  C   UNL     1      45.237   3.206   9.026  0.00  0.00    +0.000 C 
ATOM      9  O   UNL     1      44.782   4.282   8.649  0.00  0.00    +0.000 OA
ATOM     10  N   UNL     1      45.158   2.766  10.334  0.00  0.00    +0.000 N 
ATOM     11  H   UNL     1      45.551   1.855  10.549  0.00  0.00    +0.000 HD
BRANCH   8  17
ATOM     12  C   UNL     1      47.617   2.394   4.689  0.00  0.00    +0.000 C 
ATOM     13  C   UNL     1      47.072   1.897   5.993  0.00  0.00    +0.000 A 
ATOM     14  C   UNL     1      47.191   0.558   6.370  0.00  0.00    +0.000 A 
ATOM     15  C   UNL     1      46.667   0.155   7.591  0.00  0.00    +0.000 A 
ATOM     16  N   UNL     1      46.035   0.977   8.454  0.00  0.00    +0.000 NA
ATOM     17  C   UNL     1      45.930   2.279   8.071  0.00  0.00    +0.000 A 
ATOM     18  C   UNL     1      46.423   2.775   6.866  0.00  0.00    +0.000 A 
ENDBRANCH   8  17
ENDBRANCH   7  10
ENDBRANCH   1   7
BRANCH   4  19
ATOM     19  C   UNL     1      48.142   7.016  14.382  0.00  0.00    +0.000 C 
BRANCH  19  20
ATOM     20  N   UNL     1      48.262   6.585  15.752  0.00  0.00    +0.000 N 
ATOM     21  C   UNL     1      48.798   7.407  16.712  0.00  0.00    +0.000 C 
ATOM     22  O   UNL     1      49.167   8.551  16.462  0.00  0.00    +0.000 OA
ATOM     23  H   UNL     1      48.223   5.585  15.922  0.00  0.00    +0.000 HD
BRANCH  21  24
ATOM     24  C   UNL     1      48.856   6.864  18.078  0.00  0.00    +0.000 A 
ATOM     25  C   UNL     1      47.767   7.010  18.928  0.00  0.00    +0.000 A 
ATOM     26  S   UNL     1      47.990   6.276  20.452  0.00  0.00    +0.000 S 
ATOM     27  C   UNL     1      49.568   5.786  20.047  0.00  0.00    +0.000 A 
ATOM     28  N   UNL     1      50.348   5.112  20.940  0.00  0.00    +0.000 NA
ATOM     29  C   UNL     1      51.530   4.830  20.504  0.00  0.00    +0.000 A 
ATOM     30  N   UNL     1      52.000   5.144  19.256  0.00  0.00    +0.000 N 
ATOM     31  C   UNL     1      51.239   5.794  18.315  0.00  0.00    +0.000 A 
ATOM     32  O   UNL     1      51.679   6.013  17.185  0.00  0.00    +0.000 OA
ATOM     33  C   UNL     1      49.908   6.153  18.758  0.00  0.00    +0.000 A 
ATOM     34  H   UNL     1      52.932   4.880  18.970  0.00  0.00    +0.000 HD
ENDBRANCH  21  24
ENDBRANCH  19  20
ENDBRANCH   4  19
TORSDOF 6
ENDMDL
MODEL 6
REMARK VINA RESULT:    -6.965      2.169      3.719
REMARK INTER + INTRA:         -10.529
REMARK INTER:                  -9.425
REMARK INTRA:                  -1.105
REMARK UNBOUND:                -1.121
REMARK  Name = 
REMARK  7 active torsions:
REMARK  status: ('A' for Active; 'I' for Inactive)
REMARK    1  A    between atoms: C_1  and  C_2
REMARK    2  A    between atoms: C_6  and  C_7
REMARK    3  A    between atoms: N_9  and  C_10
REMARK    4  A    between atoms: C_10  and  C_11
REMARK    5  A    between atoms: C_14  and  C_15
REMARK    6  A    between atoms: C_15  and  N_16
REMARK    7  A    between atoms: C_17  and  C_19
REMARK                            x       y       z     vdW  Elec       q    Type
REMARK                         _______ _______ _______ _____ _____    ______ ____
ROOT
ATOM      1  C   UNL     1      44.949   4.650  11.002  0.00  0.00    +0.000 A 
ATOM      2  C   UNL     1      45.373   5.857  11.574  0.00  0.00    +0.000 A 
ATOM      3  C   UNL     1      45.924   5.889  12.862  0.00  0.00    +0.000 A 
ATOM      4  C   UNL     1      46.082   4.708  13.601  0.00  0.00    +0.000 A 
ATOM      5  C   UNL     1      45.646   3.503  13.034  0.00  0.00    +0.000 A 
ATOM      6  C   UNL     1      45.098   3.471  11.745  0.00  0.00    +0.000 A 
ENDROOT
BRANCH   1   7
ATOM      7  C   UNL     1      44.311   4.630   9.636  0.00  0.00    +0.000 C 
BRANCH   7  10
ATOM      8  C   UNL     1      45.971   3.897   7.986  0.00  0.00    +0.000 C 
ATOM      9  O   UNL     1      46.554   4.977   8.000  0.00  0.00    +0.000 OA
ATOM     10  N   UNL     1      44.856   3.628   8.758  0.00  0.00    +0.000 N 
ATOM     11  H   UNL     1      44.432   2.710   8.667  0.00  0.00    +0.000 HD
BRANCH   8  17
ATOM     12  C   UNL     1      46.990  -0.965   7.314  0.00  0.00    +0.000 C 
ATOM     13  C   UNL     1      46.927   0.440   6.797  0.00  0.00    +0.000 A 
ATOM     14  C   UNL     1      47.299   0.753   5.488  0.00  0.00    +0.000 A 
ATOM     15  C   UNL     1      47.219   2.074   5.066  0.00  0.00    +0.000 A 
ATOM     16  N   UNL     1      46.805   3.095   5.842  0.00  0.00    +0.000 NA
ATOM     17  C   UNL     1      46.443   2.771   7.114  0.00  0.00    +0.000 A 
ATOM     18  C   UNL     1      46.491   1.476   7.628  0.00  0.00    +0.000 A 
ENDBRANCH   8  17
ENDBRANCH   7  10
ENDBRANCH   1   7
BRANCH   4  19
ATOM     19  C   UNL     1      46.698   4.720  14.979  0.00  0.00    +0.000 C 
BRANCH  19  20
ATOM     20  N   UNL     1      47.569   5.852  15.174  0.00  0.00    +0.000 N 
ATOM     21  C   UNL     1      48.654   5.779  16.011  0.00  0.00    +0.000 C 
ATOM     22  O   UNL     1      48.956   4.746  16.603  0.00  0.00    +0.000 OA
ATOM     23  H   UNL     1      47.197   6.763  14.923  0.00  0.00    +0.000 HD
BRANCH  21  24
ATOM     24  C   UNL     1      49.477   6.993  16.120  0.00  0.00    +0.000 A 
ATOM     25  C   UNL     1      49.803   7.499  17.373  0.00  0.00    +0.000 A 
ATOM     26  S   UNL     1      50.805   8.879  17.310  0.00  0.00    +0.000 S 
ATOM     27  C   UNL     1      50.793   8.879  15.609  0.00  0.00    +0.000 A 
ATOM     28  N   UNL     1      51.455   9.836  14.899  0.00  0.00    +0.000 NA
ATOM     29  C   UNL     1      51.334   9.725  13.618  0.00  0.00    +0.000 A 
ATOM     30  N   UNL     1      50.628   8.739  12.981  0.00  0.00    +0.000 N 
ATOM     31  C   UNL     1      49.973   7.738  13.655  0.00  0.00    +0.000 A 
ATOM     32  O   UNL     1      49.391   6.839  13.045  0.00  0.00    +0.000 OA
ATOM     33  C   UNL     1      50.059   7.825  15.098  0.00  0.00    +0.000 A 
ATOM     34  H   UNL     1      50.586   8.700  11.972  0.00  0.00    +0.000 HD
ENDBRANCH  21  24
ENDBRANCH  19  20
ENDBRANCH   4  19
TORSDOF 6
ENDMDL
MODEL 7
REMARK VINA RESULT:    -6.921      5.120     10.081
REMARK INTER + INTRA:         -10.470
REMARK INTER:                  -9.349
REMARK INTRA:                  -1.121
REMARK UNBOUND:                -1.121
REMARK  Name = 
REMARK  7 active torsions:
REMARK  status: ('A' for Active; 'I' for Inactive)
REMARK    1  A    between atoms: C_1  and  C_2
REMARK    2  A    between atoms: C_6  and  C_7
REMARK    3  A    between atoms: N_9  and  C_10
REMARK    4  A    between atoms: C_10  and  C_11
REMARK    5  A    between atoms: C_14  and  C_15
REMARK    6  A    between atoms: C_15  and  N_16
REMARK    7  A    between atoms: C_17  and  C_19
REMARK                            x       y       z     vdW  Elec       q    Type
REMARK                         _______ _______ _______ _____ _____    ______ ____
ROOT
ATOM      1  C   UNL     1      51.409   3.027  17.812  0.00  0.00    +0.000 A 
ATOM      2  C   UNL     1      50.716   4.209  18.108  0.00  0.00    +0.000 A 
ATOM      3  C   UNL     1      49.363   4.354  17.772  0.00  0.00    +0.000 A 
ATOM      4  C   UNL     1      48.666   3.309  17.151  0.00  0.00    +0.000 A 
ATOM      5  C   UNL     1      49.362   2.132  16.844  0.00  0.00    +0.000 A 
ATOM      6  C   UNL     1      50.714   1.986  17.182  0.00  0.00    +0.000 A 
ENDROOT
BRANCH   1   7
ATOM      7  C   UNL     1      52.876   2.899  18.131  0.00  0.00    +0.000 C 
BRANCH   7  10
ATOM      8  C   UNL     1      54.240   0.862  18.059  0.00  0.00    +0.000 C 
ATOM      9  O   UNL     1      54.861   1.237  17.069  0.00  0.00    +0.000 OA
ATOM     10  N   UNL     1      53.243   1.610  18.658  0.00  0.00    +0.000 N 
ATOM     11  H   UNL     1      52.775   1.209  19.464  0.00  0.00    +0.000 HD
BRANCH   8  17
ATOM     12  C   UNL     1      54.804  -4.110  17.745  0.00  0.00    +0.000 C 
ATOM     13  C   UNL     1      54.804  -2.843  18.545  0.00  0.00    +0.000 A 
ATOM     14  C   UNL     1      55.077  -2.846  19.914  0.00  0.00    +0.000 A 
ATOM     15  C   UNL     1      55.063  -1.640  20.604  0.00  0.00    +0.000 A 
ATOM     16  N   UNL     1      54.794  -0.446  20.039  0.00  0.00    +0.000 NA
ATOM     17  C   UNL     1      54.532  -0.462  18.703  0.00  0.00    +0.000 A 
ATOM     18  C   UNL     1      54.522  -1.621  17.928  0.00  0.00    +0.000 A 
ENDBRANCH   8  17
ENDBRANCH   7  10
ENDBRANCH   1   7
BRANCH   4  19
ATOM     19  C   UNL     1      47.202   3.436  16.806  0.00  0.00    +0.000 C 
BRANCH  19  20
ATOM     20  N   UNL     1      46.963   4.470  15.831  0.00  0.00    +0.000 N 
ATOM     21  C   UNL     1      47.030   4.208  14.485  0.00  0.00    +0.000 C 
ATOM     22  O   UNL     1      47.259   3.084  14.048  0.00  0.00    +0.000 OA
ATOM     23  H   UNL     1      47.043   5.429  16.153  0.00  0.00    +0.000 HD
BRANCH  21  24
ATOM     24  C   UNL     1      46.753   5.339  13.586  0.00  0.00    +0.000 A 
ATOM     25  C   UNL     1      45.643   5.304  12.750  0.00  0.00    +0.000 A 
ATOM     26  S   UNL     1      45.451   6.719  11.816  0.00  0.00    +0.000 S 
ATOM     27  C   UNL     1      46.871   7.401  12.455  0.00  0.00    +0.000 A 
ATOM     28  N   UNL     1      47.308   8.628  12.049  0.00  0.00    +0.000 NA
ATOM     29  C   UNL     1      48.414   9.005  12.600  0.00  0.00    +0.000 A 
ATOM     30  N   UNL     1      49.114   8.280  13.528  0.00  0.00    +0.000 N 
ATOM     31  C   UNL     1      48.694   7.056  13.988  0.00  0.00    +0.000 A 
ATOM     32  O   UNL     1      49.323   6.458  14.862  0.00  0.00    +0.000 OA
ATOM     33  C   UNL     1      47.467   6.574  13.389  0.00  0.00    +0.000 A 
ATOM     34  H   UNL     1      49.966   8.641  13.934  0.00  0.00    +0.000 HD
ENDBRANCH  21  24
ENDBRANCH  19  20
ENDBRANCH   4  19
TORSDOF 6
ENDMDL
MODEL 8
REMARK VINA RESULT:    -6.689      2.994      4.402
REMARK INTER + INTRA:         -10.156
REMARK INTER:                  -9.168
REMARK INTRA:                  -0.988
REMARK UNBOUND:                -1.121
REMARK  Name = 
REMARK  7 active torsions:
REMARK  status: ('A' for Active; 'I' for Inactive)
REMARK    1  A    between atoms: C_1  and  C_2
REMARK    2  A    between atoms: C_6  and  C_7
REMARK    3  A    between atoms: N_9  and  C_10
REMARK    4  A    between atoms: C_10  and  C_11
REMARK    5  A    between atoms: C_14  and  C_15
REMARK    6  A    between atoms: C_15  and  N_16
REMARK    7  A    between atoms: C_17  and  C_19
REMARK                            x       y       z     vdW  Elec       q    Type
REMARK                         _______ _______ _______ _____ _____    ______ ____
ROOT
ATOM      1  C   UNL     1      45.335   5.085  11.497  0.00  0.00    +0.000 A 
ATOM      2  C   UNL     1      46.010   6.313  11.494  0.00  0.00    +0.000 A 
ATOM      3  C   UNL     1      46.821   6.692  12.573  0.00  0.00    +0.000 A 
ATOM      4  C   UNL     1      46.992   5.839  13.671  0.00  0.00    +0.000 A 
ATOM      5  C   UNL     1      46.306   4.616  13.679  0.00  0.00    +0.000 A 
ATOM      6  C   UNL     1      45.498   4.237  12.600  0.00  0.00    +0.000 A 
ENDROOT
BRANCH   1   7
ATOM      7  C   UNL     1      44.425   4.708  10.356  0.00  0.00    +0.000 C 
BRANCH   7  10
ATOM      8  C   UNL     1      45.777   3.907   8.473  0.00  0.00    +0.000 C 
ATOM      9  O   UNL     1      46.135   5.041   8.167  0.00  0.00    +0.000 OA
ATOM     10  N   UNL     1      44.936   3.639   9.537  0.00  0.00    +0.000 N 
ATOM     11  H   UNL     1      44.683   2.670   9.704  0.00  0.00    +0.000 HD
BRANCH   8  17
ATOM     12  C   UNL     1      47.437   1.843   4.216  0.00  0.00    +0.000 C 
ATOM     13  C   UNL     1      47.042   1.727   5.658  0.00  0.00    +0.000 A 
ATOM     14  C   UNL     1      47.095   0.506   6.332  0.00  0.00    +0.000 A 
ATOM     15  C   UNL     1      46.717   0.461   7.668  0.00  0.00    +0.000 A 
ATOM     16  N   UNL     1      46.288   1.527   8.372  0.00  0.00    +0.000 NA
ATOM     17  C   UNL     1      46.244   2.710   7.699  0.00  0.00    +0.000 A 
ATOM     18  C   UNL     1      46.602   2.853   6.359  0.00  0.00    +0.000 A 
ENDBRANCH   8  17
ENDBRANCH   7  10
ENDBRANCH   1   7
BRANCH   4  19
ATOM     19  C   UNL     1      47.882   6.217  14.829  0.00  0.00    +0.000 C 
BRANCH  19  20
ATOM     20  N   UNL     1      49.053   6.939  14.399  0.00  0.00    +0.000 N 
ATOM     21  C   UNL     1      49.163   8.294  14.588  0.00  0.00    +0.000 C 
ATOM     22  O   UNL     1      48.295   8.947  15.161  0.00  0.00    +0.000 OA
ATOM     23  H   UNL     1      49.639   6.488  13.703  0.00  0.00    +0.000 HD
BRANCH  21  24
ATOM     24  C   UNL     1      50.409   8.920  14.120  0.00  0.00    +0.000 A 
ATOM     25  C   UNL     1      51.110   9.780  14.958  0.00  0.00    +0.000 A 
ATOM     26  S   UNL     1      52.555  10.372  14.270  0.00  0.00    +0.000 S 
ATOM     27  C   UNL     1      52.267   9.543  12.813  0.00  0.00    +0.000 A 
ATOM     28  N   UNL     1      53.131   9.642  11.763  0.00  0.00    +0.000 NA
ATOM     29  C   UNL     1      52.769   8.981  10.714  0.00  0.00    +0.000 A 
ATOM     30  N   UNL     1      51.634   8.220  10.622  0.00  0.00    +0.000 N 
ATOM     31  C   UNL     1      50.752   8.068  11.664  0.00  0.00    +0.000 A 
ATOM     32  O   UNL     1      49.769   7.332  11.560  0.00  0.00    +0.000 OA
ATOM     33  C   UNL     1      51.100   8.804  12.861  0.00  0.00    +0.000 A 
ATOM     34  H   UNL     1      51.416   7.713   9.775  0.00  0.00    +0.000 HD
ENDBRANCH  21  24
ENDBRANCH  19  20
ENDBRANCH   4  19
TORSDOF 6
ENDMDL
MODEL 9
REMARK VINA RESULT:    -6.575      4.327      5.789
REMARK INTER + INTRA:         -10.002
REMARK INTER:                  -8.827
REMARK INTRA:                  -1.175
REMARK UNBOUND:                -1.121
REMARK  Name = 
REMARK  7 active torsions:
REMARK  status: ('A' for Active; 'I' for Inactive)
REMARK    1  A    between atoms: C_1  and  C_2
REMARK    2  A    between atoms: C_6  and  C_7
REMARK    3  A    between atoms: N_9  and  C_10
REMARK    4  A    between atoms: C_10  and  C_11
REMARK    5  A    between atoms: C_14  and  C_15
REMARK    6  A    between atoms: C_15  and  N_16
REMARK    7  A    between atoms: C_17  and  C_19
REMARK                            x       y       z     vdW  Elec       q    Type
REMARK                         _______ _______ _______ _____ _____    ______ ____
ROOT
ATOM      1  C   UNL     1      45.500   7.734  12.558  0.00  0.00    +0.000 A 
ATOM      2  C   UNL     1      45.158   8.892  11.847  0.00  0.00    +0.000 A 
ATOM      3  C   UNL     1      45.991  10.019  11.865  0.00  0.00    +0.000 A 
ATOM      4  C   UNL     1      47.197  10.005  12.578  0.00  0.00    +0.000 A 
ATOM      5  C   UNL     1      47.532   8.850  13.299  0.00  0.00    +0.000 A 
ATOM      6  C   UNL     1      46.701   7.723  13.279  0.00  0.00    +0.000 A 
ENDROOT
BRANCH   1   7
ATOM      7  C   UNL     1      44.575   6.543  12.575  0.00  0.00    +0.000 C 
BRANCH   7  10
ATOM      8  C   UNL     1      44.001   5.021  10.739  0.00  0.00    +0.000 C 
ATOM      9  O   UNL     1      42.839   5.413  10.693  0.00  0.00    +0.000 OA
ATOM     10  N   UNL     1      44.934   5.517  11.631  0.00  0.00    +0.000 N 
ATOM     11  H   UNL     1      45.868   5.120  11.604  0.00  0.00    +0.000 HD
BRANCH   8  17
ATOM     12  C   UNL     1      46.703   3.635   6.750  0.00  0.00    +0.000 C 
ATOM     13  C   UNL     1      45.797   3.298   7.895  0.00  0.00    +0.000 A 
ATOM     14  C   UNL     1      45.386   1.987   8.139  0.00  0.00    +0.000 A 
ATOM     15  C   UNL     1      44.547   1.736   9.216  0.00  0.00    +0.000 A 
ATOM     16  N   UNL     1      44.086   2.684  10.057  0.00  0.00    +0.000 NA
ATOM     17  C   UNL     1      44.499   3.957   9.806  0.00  0.00    +0.000 A 
ATOM     18  C   UNL     1      45.338   4.306   8.749  0.00  0.00    +0.000 A 
ENDBRANCH   8  17
ENDBRANCH   7  10
ENDBRANCH   1   7
BRANCH   4  19
ATOM     19  C   UNL     1      48.119  11.199  12.587  0.00  0.00    +0.000 C 
BRANCH  19  20
ATOM     20  N   UNL     1      49.441  10.866  12.119  0.00  0.00    +0.000 N 
ATOM     21  C   UNL     1      49.797  11.042  10.805  0.00  0.00    +0.000 C 
ATOM     22  O   UNL     1      49.026  11.522   9.978  0.00  0.00    +0.000 OA
ATOM     23  H   UNL     1      49.986  10.235  12.698  0.00  0.00    +0.000 HD
BRANCH  21  24
ATOM     24  C   UNL     1      51.176  10.680  10.447  0.00  0.00    +0.000 A 
ATOM     25  C   UNL     1      52.040  11.648   9.948  0.00  0.00    +0.000 A 
ATOM     26  S   UNL     1      53.612  11.063   9.637  0.00  0.00    +0.000 S 
ATOM     27  C   UNL     1      53.178   9.487  10.106  0.00  0.00    +0.000 A 
ATOM     28  N   UNL     1      54.077   8.463  10.054  0.00  0.00    +0.000 NA
ATOM     29  C   UNL     1      53.599   7.318  10.414  0.00  0.00    +0.000 A 
ATOM     30  N   UNL     1      52.313   7.104  10.834  0.00  0.00    +0.000 N 
ATOM     31  C   UNL     1      51.384   8.111  10.931  0.00  0.00    +0.000 A 
ATOM     32  O   UNL     1      50.251   7.889  11.363  0.00  0.00    +0.000 OA
ATOM     33  C   UNL     1      51.861   9.415  10.521  0.00  0.00    +0.000 A 
ATOM     34  H   UNL     1      52.005   6.185  11.118  0.00  0.00    +0.000 HD
ENDBRANCH  21  24
ENDBRANCH  19  20
ENDBRANCH   4  19
TORSDOF 6
ENDMDL
