MODEL 1
REMARK VINA RESULT:    -6.762      0.000      0.000
REMARK INTER + INTRA:          -9.201
REMARK INTER:                  -8.343
REMARK INTRA:                  -0.858
REMARK UNBOUND:                -0.858
REMARK  Name = 
REMARK  4 active torsions:
REMARK  status: ('A' for Active; 'I' for Inactive)
REMARK    1  A    between atoms: C_5  and  N_6
REMARK    2  A    between atoms: N_6  and  C_7
REMARK    3  A    between atoms: C_7  and  C_8
REMARK    4  A    between atoms: C_12  and  N_13
REMARK                            x       y       z     vdW  Elec       q    Type
REMARK                         _______ _______ _______ _____ _____    ______ ____
ROOT
ATOM      1  C   UNL     1      45.037   4.912  12.203  0.00  0.00    +0.000 A 
ATOM      2  C   UNL     1      45.422   3.741  12.874  0.00  0.00    +0.000 A 
ATOM      3  C   UNL     1      46.617   3.677  13.585  0.00  0.00    +0.000 A 
ATOM      4  C   UNL     1      47.462   4.784  13.617  0.00  0.00    +0.000 A 
ATOM      5  C   UNL     1      47.120   5.986  12.986  0.00  0.00    +0.000 A 
ATOM      6  C   UNL     1      45.882   6.035  12.327  0.00  0.00    +0.000 A 
ENDROOT
BRANCH   5   7
ATOM      7  N   UNL     1      47.980   7.058  12.985  0.00  0.00    +0.000 N 
ATOM      8  C   UNL     1      48.440   7.692  11.743  0.00  0.00    +0.000 C 
ATOM      9  C   UNL     1      49.973   7.755  11.750  0.00  0.00    +0.000 C 
ATOM     10  O   UNL     1      50.460   8.438  12.920  0.00  0.00    +0.000 OA
ATOM     11  C   UNL     1      50.023   7.765  14.116  0.00  0.00    +0.000 C 
ATOM     12  C   UNL     1      48.487   7.687  14.207  0.00  0.00    +0.000 C 
ENDBRANCH   5   7
BRANCH   1  13
ATOM     13  C   UNL     1      43.805   4.933  11.299  0.00  0.00    +0.000 C 
ATOM     14  C   UNL     1      42.474   5.343  11.927  0.00  0.00    +0.000 C 
ATOM     15  C   UNL     1      43.186   6.292  11.026  0.00  0.00    +0.000 C 
BRANCH  13  16
ATOM     16  N   UNL     1      43.709   3.812  10.347  0.00  0.00    +0.000 N 
ATOM     17  H   UNL     1      43.186   3.009  10.690  0.00  0.00    +0.000 HD
BRANCH  16  22
ATOM     18  C   UNL     1      46.239   3.829   7.592  0.00  0.00    +0.000 A 
ATOM     19  C   UNL     1      46.507   2.474   7.564  0.00  0.00    +0.000 A 
ATOM     20  N   UNL     1      45.919   1.582   8.380  0.00  0.00    +0.000 NA
ATOM     21  C   UNL     1      45.027   2.083   9.270  0.00  0.00    +0.000 A 
ATOM     22  C   UNL     1      44.702   3.436   9.422  0.00  0.00    +0.000 A 
ATOM     23  C   UNL     1      45.312   4.307   8.522  0.00  0.00    +0.000 A 
ENDBRANCH  16  22
ENDBRANCH  13  16
ENDBRANCH   1  13
TORSDOF 4
ENDMDL
MODEL 2
REMARK VINA RESULT:    -6.593      2.131      2.994
REMARK INTER + INTRA:          -8.993
REMARK INTER:                  -8.309
REMARK INTRA:                  -0.685
REMARK UNBOUND:                -0.858
REMARK  Name = 
REMARK  4 active torsions:
REMARK  status: ('A' for Active; 'I' for Inactive)
REMARK    1  A    between atoms: C_5  and  N_6
REMARK    2  A    between atoms: N_6  and  C_7
REMARK    3  A    between atoms: C_7  and  C_8
REMARK    4  A    between atoms: C_12  and  N_13
REMARK                            x       y       z     vdW  Elec       q    Type
REMARK                         _______ _______ _______ _____ _____    ______ ____
ROOT
ATOM      1  C   UNL     1      45.389   5.423  12.155  0.00  0.00    +0.000 A 
ATOM      2  C   UNL     1      46.002   6.512  11.516  0.00  0.00    +0.000 A 
ATOM      3  C   UNL     1      47.168   7.081  12.020  0.00  0.00    +0.000 A 
ATOM      4  C   UNL     1      47.731   6.579  13.191  0.00  0.00    +0.000 A 
ATOM      5  C   UNL     1      47.178   5.480  13.859  0.00  0.00    +0.000 A 
ATOM      6  C   UNL     1      46.036   4.894  13.292  0.00  0.00    +0.000 A 
ENDROOT
BRANCH   5   7
ATOM      7  N   UNL     1      47.714   5.019  15.037  0.00  0.00    +0.000 N 
ATOM      8  C   UNL     1      47.456   3.664  15.538  0.00  0.00    +0.000 C 
ATOM      9  C   UNL     1      46.943   3.752  16.981  0.00  0.00    +0.000 C 
ATOM     10  O   UNL     1      47.866   4.473  17.819  0.00  0.00    +0.000 OA
ATOM     11  C   UNL     1      48.062   5.810  17.320  0.00  0.00    +0.000 C 
ATOM     12  C   UNL     1      48.611   5.814  15.880  0.00  0.00    +0.000 C 
ENDBRANCH   5   7
BRANCH   1  13
ATOM     13  C   UNL     1      44.030   4.900  11.690  0.00  0.00    +0.000 C 
ATOM     14  C   UNL     1      42.855   5.023  12.658  0.00  0.00    +0.000 C 
ATOM     15  C   UNL     1      42.938   5.934  11.483  0.00  0.00    +0.000 C 
BRANCH  13  16
ATOM     16  N   UNL     1      44.073   3.631  10.942  0.00  0.00    +0.000 N 
ATOM     17  H   UNL     1      43.962   2.798  11.516  0.00  0.00    +0.000 HD
BRANCH  16  22
ATOM     18  C   UNL     1      45.929   3.989   7.714  0.00  0.00    +0.000 A 
ATOM     19  C   UNL     1      46.248   2.658   7.523  0.00  0.00    +0.000 A 
ATOM     20  N   UNL     1      45.897   1.679   8.375  0.00  0.00    +0.000 NA
ATOM     21  C   UNL     1      45.201   2.063   9.473  0.00  0.00    +0.000 A 
ATOM     22  C   UNL     1      44.854   3.379   9.798  0.00  0.00    +0.000 A 
ATOM     23  C   UNL     1      45.209   4.345   8.858  0.00  0.00    +0.000 A 
ENDBRANCH  16  22
ENDBRANCH  13  16
ENDBRANCH   1  13
TORSDOF 4
ENDMDL
MODEL 3
REMARK VINA RESULT:    -6.503      3.281      6.522
REMARK INTER + INTRA:          -8.882
REMARK INTER:                  -8.055
REMARK INTRA:                  -0.827
REMARK UNBOUND:                -0.858
REMARK  Name = 
REMARK  4 active torsions:
REMARK  status: ('A' for Active; 'I' for Inactive)
REMARK    1  A    between atoms: C_5  and  N_6
REMARK    2  A    between atoms: N_6  and  C_7
REMARK    3  A    between atoms: C_7  and  C_8
REMARK    4  A    between atoms: C_12  and  N_13
REMARK                            x       y       z     vdW  Elec       q    Type
REMARK                         _______ _______ _______ _____ _____    ______ ____
ROOT
ATOM      1  C   UNL     1      45.113   6.024  12.133  0.00  0.00    +0.000 A 
ATOM      2  C   UNL     1      44.012   5.629  12.907  0.00  0.00    +0.000 A 
ATOM      3  C   UNL     1      43.197   4.572  12.515  0.00  0.00    +0.000 A 
ATOM      4  C   UNL     1      43.459   3.903  11.321  0.00  0.00    +0.000 A 
ATOM      5  C   UNL     1      44.556   4.239  10.518  0.00  0.00    +0.000 A 
ATOM      6  C   UNL     1      45.391   5.270  10.973  0.00  0.00    +0.000 A 
ENDROOT
BRANCH   5   7
ATOM      7  N   UNL     1      44.781   3.604   9.320  0.00  0.00    +0.000 N 
ATOM      8  C   UNL     1      44.567   2.162   9.146  0.00  0.00    +0.000 C 
ATOM      9  C   UNL     1      45.838   1.534   8.561  0.00  0.00    +0.000 C 
ATOM     10  O   UNL     1      46.220   2.178   7.332  0.00  0.00    +0.000 OA
ATOM     11  C   UNL     1      46.462   3.580   7.551  0.00  0.00    +0.000 C 
ATOM     12  C   UNL     1      45.218   4.301   8.108  0.00  0.00    +0.000 C 
ENDBRANCH   5   7
BRANCH   1  13
ATOM     13  C   UNL     1      45.914   7.278  12.484  0.00  0.00    +0.000 C 
ATOM     14  C   UNL     1      47.131   7.109  13.393  0.00  0.00    +0.000 C 
ATOM     15  C   UNL     1      47.329   7.356  11.936  0.00  0.00    +0.000 C 
BRANCH  13  16
ATOM     16  N   UNL     1      45.105   8.477  12.767  0.00  0.00    +0.000 N 
ATOM     17  H   UNL     1      44.348   8.329  13.430  0.00  0.00    +0.000 HD
BRANCH  16  22
ATOM     18  C   UNL     1      43.628  10.457   9.958  0.00  0.00    +0.000 A 
ATOM     19  C   UNL     1      44.482  11.542  10.014  0.00  0.00    +0.000 A 
ATOM     20  N   UNL     1      45.487  11.654  10.900  0.00  0.00    +0.000 NA
ATOM     21  C   UNL     1      45.628  10.628  11.775  0.00  0.00    +0.000 A 
ATOM     22  C   UNL     1      44.805   9.498  11.846  0.00  0.00    +0.000 A 
ATOM     23  C   UNL     1      43.808   9.418  10.877  0.00  0.00    +0.000 A 
ENDBRANCH  16  22
ENDBRANCH  13  16
ENDBRANCH   1  13
TORSDOF 4
ENDMDL
MODEL 4
REMARK VINA RESULT:    -6.203      1.528      2.505
REMARK INTER + INTRA:          -8.511
REMARK INTER:                  -8.021
REMARK INTRA:                  -0.491
REMARK UNBOUND:                -0.858
REMARK  Name = 
REMARK  4 active torsions:
REMARK  status: ('A' for Active; 'I' for Inactive)
REMARK    1  A    between atoms: C_5  and  N_6
REMARK    2  A    between atoms: N_6  and  C_7
REMARK    3  A    between atoms: C_7  and  C_8
REMARK    4  A    between atoms: C_12  and  N_13
REMARK                            x       y       z     vdW  Elec       q    Type
REMARK                         _______ _______ _______ _____ _____    ______ ____
ROOT
ATOM      1  C   UNL     1      44.980   6.352  12.055  0.00  0.00    +0.000 A 
ATOM      2  C   UNL     1      44.627   7.678  11.761  0.00  0.00    +0.000 A 
ATOM      3  C   UNL     1      45.480   8.735  12.063  0.00  0.00    +0.000 A 
ATOM      4  C   UNL     1      46.698   8.483  12.688  0.00  0.00    +0.000 A 
ATOM      5  C   UNL     1      47.114   7.179  12.986  0.00  0.00    +0.000 A 
ATOM      6  C   UNL     1      46.256   6.133  12.615  0.00  0.00    +0.000 A 
ENDROOT
BRANCH   5   7
ATOM      7  N   UNL     1      48.298   6.943  13.643  0.00  0.00    +0.000 N 
ATOM      8  C   UNL     1      48.351   6.235  14.928  0.00  0.00    +0.000 C 
ATOM      9  C   UNL     1      49.131   7.086  15.938  0.00  0.00    +0.000 C 
ATOM     10  O   UNL     1      50.443   7.411  15.443  0.00  0.00    +0.000 OA
ATOM     11  C   UNL     1      50.349   8.140  14.204  0.00  0.00    +0.000 C 
ATOM     12  C   UNL     1      49.606   7.339  13.116  0.00  0.00    +0.000 C 
ENDBRANCH   5   7
BRANCH   1  13
ATOM     13  C   UNL     1      43.982   5.210  11.864  0.00  0.00    +0.000 C 
ATOM     14  C   UNL     1      42.889   5.041  12.919  0.00  0.00    +0.000 C 
ATOM     15  C   UNL     1      42.543   5.605  11.584  0.00  0.00    +0.000 C 
BRANCH  13  16
ATOM     16  N   UNL     1      44.566   3.945  11.384  0.00  0.00    +0.000 N 
ATOM     17  H   UNL     1      45.143   3.460  12.068  0.00  0.00    +0.000 HD
BRANCH  16  22
ATOM     18  C   UNL     1      45.611   2.242   8.222  0.00  0.00    +0.000 A 
ATOM     19  C   UNL     1      45.975   3.366   7.506  0.00  0.00    +0.000 A 
ATOM     20  N   UNL     1      45.896   4.617   7.993  0.00  0.00    +0.000 NA
ATOM     21  C   UNL     1      45.419   4.737   9.256  0.00  0.00    +0.000 A 
ATOM     22  C   UNL     1      44.981   3.683  10.065  0.00  0.00    +0.000 A 
ATOM     23  C   UNL     1      45.126   2.407   9.522  0.00  0.00    +0.000 A 
ENDBRANCH  16  22
ENDBRANCH  13  16
ENDBRANCH   1  13
TORSDOF 4
ENDMDL
MODEL 5
REMARK VINA RESULT:    -5.904      2.302      6.335
REMARK INTER + INTRA:          -8.143
REMARK INTER:                  -7.440
REMARK INTRA:                  -0.703
REMARK UNBOUND:                -0.858
REMARK  Name = 
REMARK  4 active torsions:
REMARK  status: ('A' for Active; 'I' for Inactive)
REMARK    1  A    between atoms: C_5  and  N_6
REMARK    2  A    between atoms: N_6  and  C_7
REMARK    3  A    between atoms: C_7  and  C_8
REMARK    4  A    between atoms: C_12  and  N_13
REMARK                            x       y       z     vdW  Elec       q    Type
REMARK                         _______ _______ _______ _____ _____    ______ ____
ROOT
ATOM      1  C   UNL     1      45.324   4.657  12.887  0.00  0.00    +0.000 A 
ATOM      2  C   UNL     1      44.026   5.077  13.214  0.00  0.00    +0.000 A 
ATOM      3  C   UNL     1      42.972   4.923  12.319  0.00  0.00    +0.000 A 
ATOM      4  C   UNL     1      43.205   4.361  11.066  0.00  0.00    +0.000 A 
ATOM      5  C   UNL     1      44.474   3.902  10.693  0.00  0.00    +0.000 A 
ATOM      6  C   UNL     1      45.502   4.020  11.640  0.00  0.00    +0.000 A 
ENDROOT
BRANCH   5   7
ATOM      7  N   UNL     1      44.705   3.391   9.438  0.00  0.00    +0.000 N 
ATOM      8  C   UNL     1      44.644   1.951   9.157  0.00  0.00    +0.000 C 
ATOM      9  C   UNL     1      45.945   1.520   8.468  0.00  0.00    +0.000 C 
ATOM     10  O   UNL     1      46.188   2.295   7.279  0.00  0.00    +0.000 OA
ATOM     11  C   UNL     1      46.282   3.696   7.601  0.00  0.00    +0.000 C 
ATOM     12  C   UNL     1      44.997   4.224   8.269  0.00  0.00    +0.000 C 
ENDBRANCH   5   7
BRANCH   1  13
ATOM     13  C   UNL     1      46.507   4.965  13.805  0.00  0.00    +0.000 C 
ATOM     14  C   UNL     1      46.579   4.223  15.139  0.00  0.00    +0.000 C 
ATOM     15  C   UNL     1      47.501   3.840  14.033  0.00  0.00    +0.000 C 
BRANCH  13  16
ATOM     16  N   UNL     1      46.887   6.386  13.877  0.00  0.00    +0.000 N 
ATOM     17  H   UNL     1      46.105   7.036  13.830  0.00  0.00    +0.000 HD
BRANCH  16  22
ATOM     18  C   UNL     1      50.282   7.916  13.515  0.00  0.00    +0.000 A 
ATOM     19  C   UNL     1      50.228   8.194  12.162  0.00  0.00    +0.000 A 
ATOM     20  N   UNL     1      49.166   7.912  11.386  0.00  0.00    +0.000 NA
ATOM     21  C   UNL     1      48.117   7.315  12.003  0.00  0.00    +0.000 A 
ATOM     22  C   UNL     1      48.068   6.946  13.352  0.00  0.00    +0.000 A 
ATOM     23  C   UNL     1      49.179   7.301  14.114  0.00  0.00    +0.000 A 
ENDBRANCH  16  22
ENDBRANCH  13  16
ENDBRANCH   1  13
TORSDOF 4
ENDMDL
MODEL 6
REMARK VINA RESULT:    -5.789      3.091      6.983
REMARK INTER + INTRA:          -8.001
REMARK INTER:                  -7.360
REMARK INTRA:                  -0.642
REMARK UNBOUND:                -0.858
REMARK  Name = 
REMARK  4 active torsions:
REMARK  status: ('A' for Active; 'I' for Inactive)
REMARK    1  A    between atoms: C_5  and  N_6
REMARK    2  A    between atoms: N_6  and  C_7
REMARK    3  A    between atoms: C_7  and  C_8
REMARK    4  A    between atoms: C_12  and  N_13
REMARK                            x       y       z     vdW  Elec       q    Type
REMARK                         _______ _______ _______ _____ _____    ______ ____
ROOT
ATOM      1  C   UNL     1      46.715   7.245  12.891  0.00  0.00    +0.000 A 
ATOM      2  C   UNL     1      46.259   8.521  12.527  0.00  0.00    +0.000 A 
ATOM      3  C   UNL     1      45.070   8.689  11.824  0.00  0.00    +0.000 A 
ATOM      4  C   UNL     1      44.324   7.573  11.452  0.00  0.00    +0.000 A 
ATOM      5  C   UNL     1      44.717   6.277  11.807  0.00  0.00    +0.000 A 
ATOM      6  C   UNL     1      45.889   6.148  12.566  0.00  0.00    +0.000 A 
ENDROOT
BRANCH   5   7
ATOM      7  N   UNL     1      43.998   5.179  11.398  0.00  0.00    +0.000 N 
ATOM      8  C   UNL     1      43.123   4.432  12.309  0.00  0.00    +0.000 C 
ATOM      9  C   UNL     1      43.496   2.945  12.257  0.00  0.00    +0.000 C 
ATOM     10  O   UNL     1      43.436   2.440  10.911  0.00  0.00    +0.000 OA
ATOM     11  C   UNL     1      44.337   3.169  10.056  0.00  0.00    +0.000 C 
ATOM     12  C   UNL     1      44.010   4.675  10.022  0.00  0.00    +0.000 C 
ENDBRANCH   5   7
BRANCH   1  13
ATOM     13  C   UNL     1      48.091   7.051  13.526  0.00  0.00    +0.000 C 
ATOM     14  C   UNL     1      49.301   7.613  12.780  0.00  0.00    +0.000 C 
ATOM     15  C   UNL     1      48.803   8.306  14.001  0.00  0.00    +0.000 C 
BRANCH  13  16
ATOM     16  N   UNL     1      48.315   5.731  14.142  0.00  0.00    +0.000 N 
ATOM     17  H   UNL     1      48.220   4.945  13.503  0.00  0.00    +0.000 HD
BRANCH  16  22
ATOM     18  C   UNL     1      48.193   5.501  17.874  0.00  0.00    +0.000 A 
ATOM     19  C   UNL     1      47.332   4.425  17.975  0.00  0.00    +0.000 A 
ATOM     20  N   UNL     1      46.804   3.791  16.913  0.00  0.00    +0.000 NA
ATOM     21  C   UNL     1      47.155   4.272  15.695  0.00  0.00    +0.000 A 
ATOM     22  C   UNL     1      47.982   5.377  15.463  0.00  0.00    +0.000 A 
ATOM     23  C   UNL     1      48.532   5.966  16.600  0.00  0.00    +0.000 A 
ENDBRANCH  16  22
ENDBRANCH  13  16
ENDBRANCH   1  13
TORSDOF 4
ENDMDL
MODEL 7
REMARK VINA RESULT:    -5.658      2.854      7.308
REMARK INTER + INTRA:          -7.839
REMARK INTER:                  -6.999
REMARK INTRA:                  -0.840
REMARK UNBOUND:                -0.858
REMARK  Name = 
REMARK  4 active torsions:
REMARK  status: ('A' for Active; 'I' for Inactive)
REMARK    1  A    between atoms: C_5  and  N_6
REMARK    2  A    between atoms: N_6  and  C_7
REMARK    3  A    between atoms: C_7  and  C_8
REMARK    4  A    between atoms: C_12  and  N_13
REMARK                            x       y       z     vdW  Elec       q    Type
REMARK                         _______ _______ _______ _____ _____    ______ ____
ROOT
ATOM      1  C   UNL     1      47.814   7.678  12.744  0.00  0.00    +0.000 A 
ATOM      2  C   UNL     1      46.933   8.760  12.893  0.00  0.00    +0.000 A 
ATOM      3  C   UNL     1      45.569   8.617  12.655  0.00  0.00    +0.000 A 
ATOM      4  C   UNL     1      45.065   7.387  12.242  0.00  0.00    +0.000 A 
ATOM      5  C   UNL     1      45.892   6.266  12.098  0.00  0.00    +0.000 A 
ATOM      6  C   UNL     1      47.252   6.430  12.401  0.00  0.00    +0.000 A 
ENDROOT
BRANCH   5   7
ATOM      7  N   UNL     1      45.394   5.067  11.646  0.00  0.00    +0.000 N 
ATOM      8  C   UNL     1      45.157   4.806  10.221  0.00  0.00    +0.000 C 
ATOM      9  C   UNL     1      43.714   4.320  10.034  0.00  0.00    +0.000 C 
ATOM     10  O   UNL     1      43.443   3.166  10.850  0.00  0.00    +0.000 OA
ATOM     11  C   UNL     1      43.646   3.472  12.242  0.00  0.00    +0.000 C 
ATOM     12  C   UNL     1      45.088   3.937  12.527  0.00  0.00    +0.000 C 
ENDBRANCH   5   7
BRANCH   1  13
ATOM     13  C   UNL     1      49.326   7.872  12.855  0.00  0.00    +0.000 C 
ATOM     14  C   UNL     1      50.155   7.717  11.581  0.00  0.00    +0.000 C 
ATOM     15  C   UNL     1      49.911   9.077  12.138  0.00  0.00    +0.000 C 
BRANCH  13  16
ATOM     16  N   UNL     1      49.944   7.288  14.058  0.00  0.00    +0.000 N 
ATOM     17  H   UNL     1      50.489   6.446  13.887  0.00  0.00    +0.000 HD
BRANCH  16  22
ATOM     18  C   UNL     1      48.766   8.345  17.448  0.00  0.00    +0.000 A 
ATOM     19  C   UNL     1      48.432   7.096  17.937  0.00  0.00    +0.000 A 
ATOM     20  N   UNL     1      48.569   5.960  17.232  0.00  0.00    +0.000 NA
ATOM     21  C   UNL     1      49.056   6.092  15.973  0.00  0.00    +0.000 A 
ATOM     22  C   UNL     1      49.389   7.301  15.353  0.00  0.00    +0.000 A 
ATOM     23  C   UNL     1      49.266   8.440  16.146  0.00  0.00    +0.000 A 
ENDBRANCH  16  22
ENDBRANCH  13  16
ENDBRANCH   1  13
TORSDOF 4
ENDMDL
MODEL 8
REMARK VINA RESULT:    -5.639      4.296      7.676
REMARK INTER + INTRA:          -7.815
REMARK INTER:                  -7.564
REMARK INTRA:                  -0.251
REMARK UNBOUND:                -0.858
REMARK  Name = 
REMARK  4 active torsions:
REMARK  status: ('A' for Active; 'I' for Inactive)
REMARK    1  A    between atoms: C_5  and  N_6
REMARK    2  A    between atoms: N_6  and  C_7
REMARK    3  A    between atoms: C_7  and  C_8
REMARK    4  A    between atoms: C_12  and  N_13
REMARK                            x       y       z     vdW  Elec       q    Type
REMARK                         _______ _______ _______ _____ _____    ______ ____
ROOT
ATOM      1  C   UNL     1      47.792   5.242  15.478  0.00  0.00    +0.000 A 
ATOM      2  C   UNL     1      48.488   6.385  15.057  0.00  0.00    +0.000 A 
ATOM      3  C   UNL     1      48.285   6.929  13.793  0.00  0.00    +0.000 A 
ATOM      4  C   UNL     1      47.391   6.320  12.915  0.00  0.00    +0.000 A 
ATOM      5  C   UNL     1      46.651   5.191  13.287  0.00  0.00    +0.000 A 
ATOM      6  C   UNL     1      46.838   4.704  14.589  0.00  0.00    +0.000 A 
ENDROOT
BRANCH   5   7
ATOM      7  N   UNL     1      45.805   4.571  12.400  0.00  0.00    +0.000 N 
ATOM      8  C   UNL     1      45.318   5.238  11.186  0.00  0.00    +0.000 C 
ATOM      9  C   UNL     1      43.787   5.150  11.146  0.00  0.00    +0.000 C 
ATOM     10  O   UNL     1      43.341   3.784  11.230  0.00  0.00    +0.000 OA
ATOM     11  C   UNL     1      43.803   3.176  12.452  0.00  0.00    +0.000 C 
ATOM     12  C   UNL     1      45.341   3.190  12.559  0.00  0.00    +0.000 C 
ENDBRANCH   5   7
BRANCH   1  13
ATOM     13  C   UNL     1      48.128   4.559  16.804  0.00  0.00    +0.000 C 
ATOM     14  C   UNL     1      47.080   4.615  17.914  0.00  0.00    +0.000 C 
ATOM     15  C   UNL     1      47.296   3.342  17.170  0.00  0.00    +0.000 C 
BRANCH  13  16
ATOM     16  N   UNL     1      49.515   4.740  17.266  0.00  0.00    +0.000 N 
ATOM     17  H   UNL     1      49.938   5.626  16.998  0.00  0.00    +0.000 HD
BRANCH  16  22
ATOM     18  C   UNL     1      51.240   1.421  17.319  0.00  0.00    +0.000 A 
ATOM     19  C   UNL     1      52.432   1.830  17.887  0.00  0.00    +0.000 A 
ATOM     20  N   UNL     1      52.691   3.101  18.241  0.00  0.00    +0.000 NA
ATOM     21  C   UNL     1      51.705   4.000  18.002  0.00  0.00    +0.000 A 
ATOM     22  C   UNL     1      50.475   3.719  17.398  0.00  0.00    +0.000 A 
ATOM     23  C   UNL     1      50.248   2.379  17.091  0.00  0.00    +0.000 A 
ENDBRANCH  16  22
ENDBRANCH  13  16
ENDBRANCH   1  13
TORSDOF 4
ENDMDL
MODEL 9
REMARK VINA RESULT:    -5.438      3.187      6.636
REMARK INTER + INTRA:          -7.568
REMARK INTER:                  -6.918
REMARK INTRA:                  -0.650
REMARK UNBOUND:                -0.858
REMARK  Name = 
REMARK  4 active torsions:
REMARK  status: ('A' for Active; 'I' for Inactive)
REMARK    1  A    between atoms: C_5  and  N_6
REMARK    2  A    between atoms: N_6  and  C_7
REMARK    3  A    between atoms: C_7  and  C_8
REMARK    4  A    between atoms: C_12  and  N_13
REMARK                            x       y       z     vdW  Elec       q    Type
REMARK                         _______ _______ _______ _____ _____    ______ ____
ROOT
ATOM      1  C   UNL     1      47.979   6.925  13.149  0.00  0.00    +0.000 A 
ATOM      2  C   UNL     1      48.185   6.406  14.436  0.00  0.00    +0.000 A 
ATOM      3  C   UNL     1      47.478   5.295  14.887  0.00  0.00    +0.000 A 
ATOM      4  C   UNL     1      46.532   4.695  14.059  0.00  0.00    +0.000 A 
ATOM      5  C   UNL     1      46.301   5.155  12.756  0.00  0.00    +0.000 A 
ATOM      6  C   UNL     1      47.072   6.240  12.313  0.00  0.00    +0.000 A 
ENDROOT
BRANCH   5   7
ATOM      7  N   UNL     1      45.334   4.585  11.962  0.00  0.00    +0.000 N 
ATOM      8  C   UNL     1      44.479   5.384  11.076  0.00  0.00    +0.000 C 
ATOM      9  C   UNL     1      43.010   5.048  11.361  0.00  0.00    +0.000 C 
ATOM     10  O   UNL     1      42.762   3.636  11.226  0.00  0.00    +0.000 OA
ATOM     11  C   UNL     1      43.588   2.889  12.139  0.00  0.00    +0.000 C 
ATOM     12  C   UNL     1      45.090   3.142  11.899  0.00  0.00    +0.000 C 
ENDBRANCH   5   7
BRANCH   1  13
ATOM     13  C   UNL     1      48.641   8.232  12.711  0.00  0.00    +0.000 C 
ATOM     14  C   UNL     1      50.151   8.359  12.902  0.00  0.00    +0.000 C 
ATOM     15  C   UNL     1      49.598   8.149  11.535  0.00  0.00    +0.000 C 
BRANCH  13  16
ATOM     16  N   UNL     1      47.882   9.454  13.031  0.00  0.00    +0.000 N 
ATOM     17  H   UNL     1      47.583   9.524  14.002  0.00  0.00    +0.000 HD
BRANCH  16  22
ATOM     18  C   UNL     1      46.395  11.843  10.566  0.00  0.00    +0.000 A 
ATOM     19  C   UNL     1      45.083  11.415  10.647  0.00  0.00    +0.000 A 
ATOM     20  N   UNL     1      44.675  10.412  11.444  0.00  0.00    +0.000 NA
ATOM     21  C   UNL     1      45.636   9.808  12.185  0.00  0.00    +0.000 A 
ATOM     22  C   UNL     1      47.000  10.122  12.161  0.00  0.00    +0.000 A 
ATOM     23  C   UNL     1      47.356  11.196  11.348  0.00  0.00    +0.000 A 
ENDBRANCH  16  22
ENDBRANCH  13  16
ENDBRANCH   1  13
TORSDOF 4
ENDMDL
