MODEL 1
REMARK VINA RESULT:    -8.472      0.000      0.000
REMARK INTER + INTRA:         -11.490
REMARK INTER:                 -10.948
REMARK INTRA:                  -0.542
REMARK UNBOUND:                -0.542
REMARK  Name = 
REMARK  5 active torsions:
REMARK  status: ('A' for Active; 'I' for Inactive)
REMARK    1  A    between atoms: C_2  and  C_4
REMARK    2  A    between atoms: C_7  and  O_8
REMARK    3  A    between atoms: O_8  and  C_9
REMARK    4  A    between atoms: C_9  and  C_10
REMARK    5  A    between atoms: C_15  and  C_16
REMARK                            x       y       z     vdW  Elec       q    Type
REMARK                         _______ _______ _______ _____ _____    ______ ____
ROOT
ATOM      1  C   UNL     1      44.883   4.435  12.007  0.00  0.00    +0.000 A 
ATOM      2  C   UNL     1      45.589   3.598  12.878  0.00  0.00    +0.000 A 
ATOM      3  C   UNL     1      46.704   4.076  13.543  0.00  0.00    +0.000 A 
ATOM      4  F   UNL     1      47.369   3.268  14.379  0.00  0.00    +0.000 F 
ATOM      5  C   UNL     1      47.158   5.372  13.338  0.00  0.00    +0.000 A 
ATOM      6  C   UNL     1      46.514   6.221  12.428  0.00  0.00    +0.000 A 
ATOM      7  C   UNL     1      45.341   5.746  11.804  0.00  0.00    +0.000 A 
ENDROOT
BRANCH   6   8
ATOM      8  C   UNL     1      47.030   7.618  12.080  0.00  0.00    +0.000 C 
ATOM      9  C   UNL     1      48.523   7.602  11.686  0.00  0.00    +0.000 C 
ATOM     10  C   UNL     1      49.435   7.456  12.904  0.00  0.00    +0.000 C 
ATOM     11  N   UNL     1      49.215   8.520  13.881  0.00  0.00    +0.000 NA
ATOM     12  C   UNL     1      47.824   8.570  14.324  0.00  0.00    +0.000 C 
ATOM     13  C   UNL     1      46.838   8.705  13.157  0.00  0.00    +0.000 C 
ATOM     14  H   UNL     1      49.468   9.417  13.466  0.00  0.00    +0.000 HD
ENDBRANCH   6   8
BRANCH   1  15
ATOM     15  C   UNL     1      43.683   3.854  11.299  0.00  0.00    +0.000 C 
BRANCH  15  16
ATOM     16  O   UNL     1      43.645   4.137   9.901  0.00  0.00    +0.000 OA
BRANCH  16  20
ATOM     17  C   UNL     1      46.537   2.345   7.487  0.00  0.00    +0.000 A 
ATOM     18  C   UNL     1      45.834   1.544   8.391  0.00  0.00    +0.000 A 
ATOM     19  C   UNL     1      44.863   2.113   9.215  0.00  0.00    +0.000 A 
ATOM     20  C   UNL     1      44.588   3.483   9.150  0.00  0.00    +0.000 A 
ATOM     21  C   UNL     1      45.312   4.285   8.262  0.00  0.00    +0.000 A 
ATOM     22  C   UNL     1      46.290   3.719   7.438  0.00  0.00    +0.000 A 
BRANCH  17  24
ATOM     23  N   UNL     1      48.723   2.458   6.430  0.00  0.00    +0.000 N 
ATOM     24  C   UNL     1      47.558   1.758   6.582  0.00  0.00    +0.000 C 
ATOM     25  O   UNL     1      47.385   0.681   6.026  0.00  0.00    +0.000 OA
ATOM     26  H   UNL     1      49.454   1.997   5.905  0.00  0.00    +0.000 HD
ATOM     27  H   UNL     1      48.998   3.193   7.068  0.00  0.00    +0.000 HD
ENDBRANCH  17  24
ENDBRANCH  16  20
ENDBRANCH  15  16
ENDBRANCH   1  15
TORSDOF 5
ENDMDL
MODEL 2
REMARK VINA RESULT:    -7.958      1.835      2.622
REMARK INTER + INTRA:         -10.827
REMARK INTER:                 -10.149
REMARK INTRA:                  -0.677
REMARK UNBOUND:                -0.542
REMARK  Name = 
REMARK  5 active torsions:
REMARK  status: ('A' for Active; 'I' for Inactive)
REMARK    1  A    between atoms: C_2  and  C_4
REMARK    2  A    between atoms: C_7  and  O_8
REMARK    3  A    between atoms: O_8  and  C_9
REMARK    4  A    between atoms: C_9  and  C_10
REMARK    5  A    between atoms: C_15  and  C_16
REMARK                            x       y       z     vdW  Elec       q    Type
REMARK                         _______ _______ _______ _____ _____    ______ ____
ROOT
ATOM      1  C   UNL     1      44.590   4.854  11.573  0.00  0.00    +0.000 A 
ATOM      2  C   UNL     1      43.619   5.782  11.178  0.00  0.00    +0.000 A 
ATOM      3  C   UNL     1      43.825   7.132  11.396  0.00  0.00    +0.000 A 
ATOM      4  F   UNL     1      42.893   8.012  11.008  0.00  0.00    +0.000 F 
ATOM      5  C   UNL     1      44.973   7.587  12.032  0.00  0.00    +0.000 A 
ATOM      6  C   UNL     1      45.940   6.685  12.497  0.00  0.00    +0.000 A 
ATOM      7  C   UNL     1      45.751   5.316  12.212  0.00  0.00    +0.000 A 
ENDROOT
BRANCH   6   8
ATOM      8  C   UNL     1      47.168   7.117  13.299  0.00  0.00    +0.000 C 
ATOM      9  C   UNL     1      47.171   8.634  13.583  0.00  0.00    +0.000 C 
ATOM     10  C   UNL     1      47.562   9.448  12.349  0.00  0.00    +0.000 C 
ATOM     11  N   UNL     1      48.874   9.061  11.834  0.00  0.00    +0.000 NA
ATOM     12  C   UNL     1      48.932   7.638  11.512  0.00  0.00    +0.000 C 
ATOM     13  C   UNL     1      48.541   6.748  12.697  0.00  0.00    +0.000 C 
ATOM     14  H   UNL     1      49.587   9.277  12.531  0.00  0.00    +0.000 HD
ENDBRANCH   6   8
BRANCH   1  15
ATOM     15  C   UNL     1      44.303   3.394  11.322  0.00  0.00    +0.000 C 
BRANCH  15  16
ATOM     16  O   UNL     1      43.788   3.124  10.019  0.00  0.00    +0.000 OA
BRANCH  16  20
ATOM     17  C   UNL     1      46.721   2.299   7.169  0.00  0.00    +0.000 A 
ATOM     18  C   UNL     1      46.168   3.582   7.205  0.00  0.00    +0.000 A 
ATOM     19  C   UNL     1      45.183   3.889   8.143  0.00  0.00    +0.000 A 
ATOM     20  C   UNL     1      44.736   2.921   9.049  0.00  0.00    +0.000 A 
ATOM     21  C   UNL     1      45.273   1.632   8.993  0.00  0.00    +0.000 A 
ATOM     22  C   UNL     1      46.257   1.318   8.050  0.00  0.00    +0.000 A 
BRANCH  17  24
ATOM     23  N   UNL     1      48.922   2.718   6.229  0.00  0.00    +0.000 N 
ATOM     24  C   UNL     1      47.788   1.955   6.196  0.00  0.00    +0.000 C 
ATOM     25  O   UNL     1      47.678   1.012   5.423  0.00  0.00    +0.000 OA
ATOM     26  H   UNL     1      49.686   2.407   5.644  0.00  0.00    +0.000 HD
ATOM     27  H   UNL     1      49.149   3.314   7.014  0.00  0.00    +0.000 HD
ENDBRANCH  17  24
ENDBRANCH  16  20
ENDBRANCH  15  16
ENDBRANCH   1  15
TORSDOF 5
ENDMDL
MODEL 3
REMARK VINA RESULT:    -7.616      1.945      2.528
REMARK INTER + INTRA:         -10.384
REMARK INTER:                  -9.648
REMARK INTRA:                  -0.735
REMARK UNBOUND:                -0.542
REMARK  Name = 
REMARK  5 active torsions:
REMARK  status: ('A' for Active; 'I' for Inactive)
REMARK    1  A    between atoms: C_2  and  C_4
REMARK    2  A    between atoms: C_7  and  O_8
REMARK    3  A    between atoms: O_8  and  C_9
REMARK    4  A    between atoms: C_9  and  C_10
REMARK    5  A    between atoms: C_15  and  C_16
REMARK                            x       y       z     vdW  Elec       q    Type
REMARK                         _______ _______ _______ _____ _____    ______ ____
ROOT
ATOM      1  C   UNL     1      45.220   6.211  11.583  0.00  0.00    +0.000 A 
ATOM      2  C   UNL     1      44.327   7.275  11.407  0.00  0.00    +0.000 A 
ATOM      3  C   UNL     1      44.761   8.576  11.579  0.00  0.00    +0.000 A 
ATOM      4  F   UNL     1      43.901   9.587  11.401  0.00  0.00    +0.000 F 
ATOM      5  C   UNL     1      46.070   8.851  11.954  0.00  0.00    +0.000 A 
ATOM      6  C   UNL     1      46.978   7.811  12.200  0.00  0.00    +0.000 A 
ATOM      7  C   UNL     1      46.543   6.490  11.959  0.00  0.00    +0.000 A 
ENDROOT
BRANCH   6   8
ATOM      8  C   UNL     1      48.396   8.046  12.720  0.00  0.00    +0.000 C 
ATOM      9  C   UNL     1      48.964   6.801  13.435  0.00  0.00    +0.000 C 
ATOM     10  C   UNL     1      48.370   6.621  14.832  0.00  0.00    +0.000 C 
ATOM     11  N   UNL     1      48.594   7.794  15.676  0.00  0.00    +0.000 NA
ATOM     12  C   UNL     1      48.049   9.007  15.072  0.00  0.00    +0.000 C 
ATOM     13  C   UNL     1      48.587   9.256  13.659  0.00  0.00    +0.000 C 
ATOM     14  H   UNL     1      49.596   7.914  15.826  0.00  0.00    +0.000 HD
ENDBRANCH   6   8
BRANCH   1  15
ATOM     15  C   UNL     1      44.686   4.813  11.396  0.00  0.00    +0.000 C 
BRANCH  15  16
ATOM     16  O   UNL     1      44.148   4.570  10.097  0.00  0.00    +0.000 OA
BRANCH  16  20
ATOM     17  C   UNL     1      46.592   2.438   7.473  0.00  0.00    +0.000 A 
ATOM     18  C   UNL     1      45.820   1.724   8.393  0.00  0.00    +0.000 A 
ATOM     19  C   UNL     1      44.995   2.407   9.287  0.00  0.00    +0.000 A 
ATOM     20  C   UNL     1      44.936   3.805   9.276  0.00  0.00    +0.000 A 
ATOM     21  C   UNL     1      45.729   4.516   8.370  0.00  0.00    +0.000 A 
ATOM     22  C   UNL     1      46.562   3.835   7.476  0.00  0.00    +0.000 A 
BRANCH  17  24
ATOM     23  N   UNL     1      48.481   2.456   5.943  0.00  0.00    +0.000 N 
ATOM     24  C   UNL     1      47.459   1.733   6.496  0.00  0.00    +0.000 C 
ATOM     25  O   UNL     1      47.296   0.551   6.222  0.00  0.00    +0.000 OA
ATOM     26  H   UNL     1      49.132   1.939   5.368  0.00  0.00    +0.000 HD
ATOM     27  H   UNL     1      48.799   3.330   6.340  0.00  0.00    +0.000 HD
ENDBRANCH  17  24
ENDBRANCH  16  20
ENDBRANCH  15  16
ENDBRANCH   1  15
TORSDOF 5
ENDMDL
MODEL 4
REMARK VINA RESULT:    -7.195      4.946      7.832
REMARK INTER + INTRA:          -9.840
REMARK INTER:                  -9.511
REMARK INTRA:                  -0.329
REMARK UNBOUND:                -0.542
REMARK  Name = 
REMARK  5 active torsions:
REMARK  status: ('A' for Active; 'I' for Inactive)
REMARK    1  A    between atoms: C_2  and  C_4
REMARK    2  A    between atoms: C_7  and  O_8
REMARK    3  A    between atoms: O_8  and  C_9
REMARK    4  A    between atoms: C_9  and  C_10
REMARK    5  A    between atoms: C_15  and  C_16
REMARK                            x       y       z     vdW  Elec       q    Type
REMARK                         _______ _______ _______ _____ _____    ______ ____
ROOT
ATOM      1  C   UNL     1      46.685   5.008  14.053  0.00  0.00    +0.000 A 
ATOM      2  C   UNL     1      47.733   5.854  13.672  0.00  0.00    +0.000 A 
ATOM      3  C   UNL     1      47.659   6.549  12.478  0.00  0.00    +0.000 A 
ATOM      4  F   UNL     1      48.664   7.361  12.126  0.00  0.00    +0.000 F 
ATOM      5  C   UNL     1      46.570   6.401  11.630  0.00  0.00    +0.000 A 
ATOM      6  C   UNL     1      45.530   5.517  11.947  0.00  0.00    +0.000 A 
ATOM      7  C   UNL     1      45.584   4.862  13.196  0.00  0.00    +0.000 A 
ENDROOT
BRANCH   6   8
ATOM      8  C   UNL     1      44.361   5.229  11.004  0.00  0.00    +0.000 C 
ATOM      9  C   UNL     1      43.180   4.554  11.735  0.00  0.00    +0.000 C 
ATOM     10  C   UNL     1      43.450   3.076  12.018  0.00  0.00    +0.000 C 
ATOM     11  N   UNL     1      43.738   2.330  10.795  0.00  0.00    +0.000 NA
ATOM     12  C   UNL     1      44.871   2.897  10.068  0.00  0.00    +0.000 C 
ATOM     13  C   UNL     1      44.685   4.386   9.753  0.00  0.00    +0.000 C 
ATOM     14  H   UNL     1      42.915   2.339  10.193  0.00  0.00    +0.000 HD
ENDBRANCH   6   8
BRANCH   1  15
ATOM     15  C   UNL     1      46.828   4.265  15.359  0.00  0.00    +0.000 C 
BRANCH  15  16
ATOM     16  O   UNL     1      47.716   4.891  16.284  0.00  0.00    +0.000 OA
BRANCH  16  20
ATOM     17  C   UNL     1      50.882   2.395  17.358  0.00  0.00    +0.000 A 
ATOM     18  C   UNL     1      50.983   3.760  17.641  0.00  0.00    +0.000 A 
ATOM     19  C   UNL     1      49.944   4.622  17.292  0.00  0.00    +0.000 A 
ATOM     20  C   UNL     1      48.798   4.135  16.654  0.00  0.00    +0.000 A 
ATOM     21  C   UNL     1      48.712   2.772  16.350  0.00  0.00    +0.000 A 
ATOM     22  C   UNL     1      49.755   1.905  16.693  0.00  0.00    +0.000 A 
BRANCH  17  24
ATOM     23  N   UNL     1      51.580   0.216  18.177  0.00  0.00    +0.000 N 
ATOM     24  C   UNL     1      51.964   1.455  17.742  0.00  0.00    +0.000 C 
ATOM     25  O   UNL     1      53.147   1.755  17.641  0.00  0.00    +0.000 OA
ATOM     26  H   UNL     1      52.322  -0.453  18.327  0.00  0.00    +0.000 HD
ATOM     27  H   UNL     1      50.649  -0.146  18.019  0.00  0.00    +0.000 HD
ENDBRANCH  17  24
ENDBRANCH  16  20
ENDBRANCH  15  16
ENDBRANCH   1  15
TORSDOF 5
ENDMDL
MODEL 5
REMARK VINA RESULT:    -7.110      4.971      8.780
REMARK INTER + INTRA:          -9.730
REMARK INTER:                  -9.529
REMARK INTRA:                  -0.200
REMARK UNBOUND:                -0.542
REMARK  Name = 
REMARK  5 active torsions:
REMARK  status: ('A' for Active; 'I' for Inactive)
REMARK    1  A    between atoms: C_2  and  C_4
REMARK    2  A    between atoms: C_7  and  O_8
REMARK    3  A    between atoms: O_8  and  C_9
REMARK    4  A    between atoms: C_9  and  C_10
REMARK    5  A    between atoms: C_15  and  C_16
REMARK                            x       y       z     vdW  Elec       q    Type
REMARK                         _______ _______ _______ _____ _____    ______ ____
ROOT
ATOM      1  C   UNL     1      46.699   5.264  13.602  0.00  0.00    +0.000 A 
ATOM      2  C   UNL     1      47.626   6.134  13.016  0.00  0.00    +0.000 A 
ATOM      3  C   UNL     1      47.345   6.724  11.797  0.00  0.00    +0.000 A 
ATOM      4  F   UNL     1      48.236   7.560  11.250  0.00  0.00    +0.000 F 
ATOM      5  C   UNL     1      46.164   6.445  11.122  0.00  0.00    +0.000 A 
ATOM      6  C   UNL     1      45.238   5.532  11.646  0.00  0.00    +0.000 A 
ATOM      7  C   UNL     1      45.504   4.986  12.920  0.00  0.00    +0.000 A 
ENDROOT
BRANCH   6   8
ATOM      8  C   UNL     1      43.975   5.102  10.899  0.00  0.00    +0.000 C 
ATOM      9  C   UNL     1      43.009   4.308  11.804  0.00  0.00    +0.000 C 
ATOM     10  C   UNL     1      43.487   2.874  12.034  0.00  0.00    +0.000 C 
ATOM     11  N   UNL     1      43.660   2.148  10.776  0.00  0.00    +0.000 NA
ATOM     12  C   UNL     1      44.592   2.831   9.882  0.00  0.00    +0.000 C 
ATOM     13  C   UNL     1      44.190   4.285   9.608  0.00  0.00    +0.000 C 
ATOM     14  H   UNL     1      42.756   2.057  10.313  0.00  0.00    +0.000 HD
ENDBRANCH   6   8
BRANCH   1  15
ATOM     15  C   UNL     1      47.066   4.639  14.925  0.00  0.00    +0.000 C 
BRANCH  15  16
ATOM     16  O   UNL     1      48.289   5.130  15.475  0.00  0.00    +0.000 OA
BRANCH  16  20
ATOM     17  C   UNL     1      48.826   4.745  19.593  0.00  0.00    +0.000 A 
ATOM     18  C   UNL     1      48.569   3.593  18.844  0.00  0.00    +0.000 A 
ATOM     19  C   UNL     1      48.381   3.689  17.466  0.00  0.00    +0.000 A 
ATOM     20  C   UNL     1      48.442   4.929  16.822  0.00  0.00    +0.000 A 
ATOM     21  C   UNL     1      48.674   6.082  17.580  0.00  0.00    +0.000 A 
ATOM     22  C   UNL     1      48.858   5.992  18.963  0.00  0.00    +0.000 A 
BRANCH  17  24
ATOM     23  N   UNL     1      50.355   4.659  21.481  0.00  0.00    +0.000 N 
ATOM     24  C   UNL     1      49.054   4.666  21.059  0.00  0.00    +0.000 C 
ATOM     25  O   UNL     1      48.126   4.645  21.856  0.00  0.00    +0.000 OA
ATOM     26  H   UNL     1      50.499   4.720  22.480  0.00  0.00    +0.000 HD
ATOM     27  H   UNL     1      51.119   4.940  20.881  0.00  0.00    +0.000 HD
ENDBRANCH  17  24
ENDBRANCH  16  20
ENDBRANCH  15  16
ENDBRANCH   1  15
TORSDOF 5
ENDMDL
MODEL 6
REMARK VINA RESULT:    -6.625      4.339      6.507
REMARK INTER + INTRA:          -9.103
REMARK INTER:                  -8.634
REMARK INTRA:                  -0.470
REMARK UNBOUND:                -0.542
REMARK  Name = 
REMARK  5 active torsions:
REMARK  status: ('A' for Active; 'I' for Inactive)
REMARK    1  A    between atoms: C_2  and  C_4
REMARK    2  A    between atoms: C_7  and  O_8
REMARK    3  A    between atoms: O_8  and  C_9
REMARK    4  A    between atoms: C_9  and  C_10
REMARK    5  A    between atoms: C_15  and  C_16
REMARK                            x       y       z     vdW  Elec       q    Type
REMARK                         _______ _______ _______ _____ _____    ______ ____
ROOT
ATOM      1  C   UNL     1      48.722   7.022  15.542  0.00  0.00    +0.000 A 
ATOM      2  C   UNL     1      48.844   8.164  16.344  0.00  0.00    +0.000 A 
ATOM      3  C   UNL     1      48.856   8.042  17.721  0.00  0.00    +0.000 A 
ATOM      4  F   UNL     1      48.980   9.139  18.479  0.00  0.00    +0.000 F 
ATOM      5  C   UNL     1      48.718   6.801  18.331  0.00  0.00    +0.000 A 
ATOM      6  C   UNL     1      48.532   5.643  17.565  0.00  0.00    +0.000 A 
ATOM      7  C   UNL     1      48.587   5.770  16.160  0.00  0.00    +0.000 A 
ENDROOT
BRANCH   6   8
ATOM      8  C   UNL     1      48.266   4.268  18.179  0.00  0.00    +0.000 C 
ATOM      9  C   UNL     1      49.574   3.521  18.517  0.00  0.00    +0.000 C 
ATOM     10  C   UNL     1      50.245   2.948  17.269  0.00  0.00    +0.000 C 
ATOM     11  N   UNL     1      49.358   2.043  16.540  0.00  0.00    +0.000 NA
ATOM     12  C   UNL     1      48.110   2.698  16.158  0.00  0.00    +0.000 C 
ATOM     13  C   UNL     1      47.377   3.313  17.356  0.00  0.00    +0.000 C 
ATOM     14  H   UNL     1      49.148   1.233  17.124  0.00  0.00    +0.000 HD
ENDBRANCH   6   8
BRANCH   1  15
ATOM     15  C   UNL     1      48.702   7.219  14.047  0.00  0.00    +0.000 C 
BRANCH  15  16
ATOM     16  O   UNL     1      48.452   6.022  13.311  0.00  0.00    +0.000 OA
BRANCH  16  20
ATOM     17  C   UNL     1      44.520   5.380  12.072  0.00  0.00    +0.000 A 
ATOM     18  C   UNL     1      45.274   6.358  11.418  0.00  0.00    +0.000 A 
ATOM     19  C   UNL     1      46.590   6.600  11.810  0.00  0.00    +0.000 A 
ATOM     20  C   UNL     1      47.166   5.875  12.860  0.00  0.00    +0.000 A 
ATOM     21  C   UNL     1      46.400   4.915  13.528  0.00  0.00    +0.000 A 
ATOM     22  C   UNL     1      45.077   4.673  13.142  0.00  0.00    +0.000 A 
BRANCH  17  24
ATOM     23  N   UNL     1      42.211   6.092  11.818  0.00  0.00    +0.000 N 
ATOM     24  C   UNL     1      43.125   5.087  11.657  0.00  0.00    +0.000 C 
ATOM     25  O   UNL     1      42.811   4.014  11.160  0.00  0.00    +0.000 OA
ATOM     26  H   UNL     1      41.292   5.924  11.429  0.00  0.00    +0.000 HD
ATOM     27  H   UNL     1      42.485   7.053  11.969  0.00  0.00    +0.000 HD
ENDBRANCH  17  24
ENDBRANCH  16  20
ENDBRANCH  15  16
ENDBRANCH   1  15
TORSDOF 5
ENDMDL
MODEL 7
REMARK VINA RESULT:    -6.505      4.665      8.357
REMARK INTER + INTRA:          -8.949
REMARK INTER:                  -8.393
REMARK INTRA:                  -0.555
REMARK UNBOUND:                -0.542
REMARK  Name = 
REMARK  5 active torsions:
REMARK  status: ('A' for Active; 'I' for Inactive)
REMARK    1  A    between atoms: C_2  and  C_4
REMARK    2  A    between atoms: C_7  and  O_8
REMARK    3  A    between atoms: O_8  and  C_9
REMARK    4  A    between atoms: C_9  and  C_10
REMARK    5  A    between atoms: C_15  and  C_16
REMARK                            x       y       z     vdW  Elec       q    Type
REMARK                         _______ _______ _______ _____ _____    ______ ____
ROOT
ATOM      1  C   UNL     1      47.037   7.459  13.073  0.00  0.00    +0.000 A 
ATOM      2  C   UNL     1      46.635   8.789  12.898  0.00  0.00    +0.000 A 
ATOM      3  C   UNL     1      45.482   9.074  12.189  0.00  0.00    +0.000 A 
ATOM      4  F   UNL     1      45.103  10.349  12.033  0.00  0.00    +0.000 F 
ATOM      5  C   UNL     1      44.724   8.060  11.618  0.00  0.00    +0.000 A 
ATOM      6  C   UNL     1      45.126   6.721  11.719  0.00  0.00    +0.000 A 
ATOM      7  C   UNL     1      46.267   6.436  12.498  0.00  0.00    +0.000 A 
ENDROOT
BRANCH   6   8
ATOM      8  C   UNL     1      44.395   5.575  11.019  0.00  0.00    +0.000 C 
ATOM      9  C   UNL     1      42.971   5.370  11.578  0.00  0.00    +0.000 C 
ATOM     10  C   UNL     1      42.983   4.671  12.937  0.00  0.00    +0.000 C 
ATOM     11  N   UNL     1      43.658   3.376  12.879  0.00  0.00    +0.000 NA
ATOM     12  C   UNL     1      45.028   3.501  12.388  0.00  0.00    +0.000 C 
ATOM     13  C   UNL     1      45.106   4.205  11.029  0.00  0.00    +0.000 C 
ATOM     14  H   UNL     1      43.137   2.751  12.263  0.00  0.00    +0.000 HD
ENDBRANCH   6   8
BRANCH   1  15
ATOM     15  C   UNL     1      48.310   7.211  13.844  0.00  0.00    +0.000 C 
BRANCH  15  16
ATOM     16  O   UNL     1      48.437   5.876  14.332  0.00  0.00    +0.000 OA
BRANCH  16  20
ATOM     17  C   UNL     1      48.266   5.343  18.466  0.00  0.00    +0.000 A 
ATOM     18  C   UNL     1      49.019   6.407  17.962  0.00  0.00    +0.000 A 
ATOM     19  C   UNL     1      49.099   6.610  16.585  0.00  0.00    +0.000 A 
ATOM     20  C   UNL     1      48.437   5.754  15.698  0.00  0.00    +0.000 A 
ATOM     21  C   UNL     1      47.705   4.676  16.206  0.00  0.00    +0.000 A 
ATOM     22  C   UNL     1      47.627   4.465  17.587  0.00  0.00    +0.000 A 
BRANCH  17  24
ATOM     23  N   UNL     1      48.574   3.912  20.407  0.00  0.00    +0.000 N 
ATOM     24  C   UNL     1      48.145   5.120  19.929  0.00  0.00    +0.000 C 
ATOM     25  O   UNL     1      47.718   5.986  20.682  0.00  0.00    +0.000 OA
ATOM     26  H   UNL     1      48.594   3.812  21.413  0.00  0.00    +0.000 HD
ATOM     27  H   UNL     1      49.165   3.296  19.864  0.00  0.00    +0.000 HD
ENDBRANCH  17  24
ENDBRANCH  16  20
ENDBRANCH  15  16
ENDBRANCH   1  15
TORSDOF 5
ENDMDL
MODEL 8
REMARK VINA RESULT:    -6.198      4.323      6.511
REMARK INTER + INTRA:          -8.552
REMARK INTER:                  -7.762
REMARK INTRA:                  -0.791
REMARK UNBOUND:                -0.542
REMARK  Name = 
REMARK  5 active torsions:
REMARK  status: ('A' for Active; 'I' for Inactive)
REMARK    1  A    between atoms: C_2  and  C_4
REMARK    2  A    between atoms: C_7  and  O_8
REMARK    3  A    between atoms: O_8  and  C_9
REMARK    4  A    between atoms: C_9  and  C_10
REMARK    5  A    between atoms: C_15  and  C_16
REMARK                            x       y       z     vdW  Elec       q    Type
REMARK                         _______ _______ _______ _____ _____    ______ ____
ROOT
ATOM      1  C   UNL     1      49.112   7.594  14.883  0.00  0.00    +0.000 A 
ATOM      2  C   UNL     1      48.304   8.599  15.427  0.00  0.00    +0.000 A 
ATOM      3  C   UNL     1      48.371   8.882  16.779  0.00  0.00    +0.000 A 
ATOM      4  F   UNL     1      47.600   9.851  17.289  0.00  0.00    +0.000 F 
ATOM      5  C   UNL     1      49.210   8.163  17.620  0.00  0.00    +0.000 A 
ATOM      6  C   UNL     1      49.989   7.108  17.124  0.00  0.00    +0.000 A 
ATOM      7  C   UNL     1      49.961   6.870  15.734  0.00  0.00    +0.000 A 
ENDROOT
BRANCH   6   8
ATOM      8  C   UNL     1      50.846   6.211  18.017  0.00  0.00    +0.000 C 
ATOM      9  C   UNL     1      50.962   4.777  17.457  0.00  0.00    +0.000 C 
ATOM     10  C   UNL     1      49.687   3.966  17.689  0.00  0.00    +0.000 C 
ATOM     11  N   UNL     1      49.338   3.892  19.107  0.00  0.00    +0.000 NA
ATOM     12  C   UNL     1      49.179   5.220  19.695  0.00  0.00    +0.000 C 
ATOM     13  C   UNL     1      50.415   6.105  19.495  0.00  0.00    +0.000 C 
ATOM     14  H   UNL     1      50.069   3.388  19.609  0.00  0.00    +0.000 HD
ENDBRANCH   6   8
BRANCH   1  15
ATOM     15  C   UNL     1      48.984   7.320  13.405  0.00  0.00    +0.000 C 
BRANCH  15  16
ATOM     16  O   UNL     1      48.547   5.997  13.098  0.00  0.00    +0.000 OA
BRANCH  16  20
ATOM     17  C   UNL     1      44.562   5.491  11.973  0.00  0.00    +0.000 A 
ATOM     18  C   UNL     1      45.313   6.484  11.338  0.00  0.00    +0.000 A 
ATOM     19  C   UNL     1      46.647   6.681  11.694  0.00  0.00    +0.000 A 
ATOM     20  C   UNL     1      47.243   5.896  12.687  0.00  0.00    +0.000 A 
ATOM     21  C   UNL     1      46.480   4.921  13.338  0.00  0.00    +0.000 A 
ATOM     22  C   UNL     1      45.140   4.724  12.988  0.00  0.00    +0.000 A 
BRANCH  17  24
ATOM     23  N   UNL     1      42.299   6.317  11.654  0.00  0.00    +0.000 N 
ATOM     24  C   UNL     1      43.147   5.246  11.595  0.00  0.00    +0.000 C 
ATOM     25  O   UNL     1      42.761   4.150  11.212  0.00  0.00    +0.000 OA
ATOM     26  H   UNL     1      41.368   6.169  11.288  0.00  0.00    +0.000 HD
ATOM     27  H   UNL     1      42.634   7.270  11.705  0.00  0.00    +0.000 HD
ENDBRANCH  17  24
ENDBRANCH  16  20
ENDBRANCH  15  16
ENDBRANCH   1  15
TORSDOF 5
ENDMDL
MODEL 9
REMARK VINA RESULT:    -6.155      4.647      6.662
REMARK INTER + INTRA:          -8.496
REMARK INTER:                  -7.935
REMARK INTRA:                  -0.561
REMARK UNBOUND:                -0.542
REMARK  Name = 
REMARK  5 active torsions:
REMARK  status: ('A' for Active; 'I' for Inactive)
REMARK    1  A    between atoms: C_2  and  C_4
REMARK    2  A    between atoms: C_7  and  O_8
REMARK    3  A    between atoms: O_8  and  C_9
REMARK    4  A    between atoms: C_9  and  C_10
REMARK    5  A    between atoms: C_15  and  C_16
REMARK                            x       y       z     vdW  Elec       q    Type
REMARK                         _______ _______ _______ _____ _____    ______ ____
ROOT
ATOM      1  C   UNL     1      48.294   5.694  16.272  0.00  0.00    +0.000 A 
ATOM      2  C   UNL     1      47.770   4.396  16.275  0.00  0.00    +0.000 A 
ATOM      3  C   UNL     1      47.681   3.690  17.461  0.00  0.00    +0.000 A 
ATOM      4  F   UNL     1      47.172   2.452  17.454  0.00  0.00    +0.000 F 
ATOM      5  C   UNL     1      48.131   4.238  18.656  0.00  0.00    +0.000 A 
ATOM      6  C   UNL     1      48.718   5.510  18.684  0.00  0.00    +0.000 A 
ATOM      7  C   UNL     1      48.746   6.246  17.481  0.00  0.00    +0.000 A 
ENDROOT
BRANCH   6   8
ATOM      8  C   UNL     1      49.331   6.119  19.945  0.00  0.00    +0.000 C 
ATOM      9  C   UNL     1      48.701   5.544  21.232  0.00  0.00    +0.000 C 
ATOM     10  C   UNL     1      47.313   6.125  21.500  0.00  0.00    +0.000 C 
ATOM     11  N   UNL     1      47.342   7.583  21.600  0.00  0.00    +0.000 NA
ATOM     12  C   UNL     1      47.898   8.197  20.397  0.00  0.00    +0.000 C 
ATOM     13  C   UNL     1      49.291   7.658  20.049  0.00  0.00    +0.000 C 
ATOM     14  H   UNL     1      47.905   7.855  22.406  0.00  0.00    +0.000 HD
ENDBRANCH   6   8
BRANCH   1  15
ATOM     15  C   UNL     1      48.380   6.409  14.947  0.00  0.00    +0.000 C 
BRANCH  15  16
ATOM     16  O   UNL     1      48.218   5.551  13.817  0.00  0.00    +0.000 OA
BRANCH  16  20
ATOM     17  C   UNL     1      44.464   5.904  12.032  0.00  0.00    +0.000 A 
ATOM     18  C   UNL     1      44.863   4.650  12.504  0.00  0.00    +0.000 A 
ATOM     19  C   UNL     1      46.113   4.498  13.102  0.00  0.00    +0.000 A 
ATOM     20  C   UNL     1      46.979   5.590  13.232  0.00  0.00    +0.000 A 
ATOM     21  C   UNL     1      46.586   6.837  12.735  0.00  0.00    +0.000 A 
ATOM     22  C   UNL     1      45.335   6.993  12.129  0.00  0.00    +0.000 A 
BRANCH  17  24
ATOM     23  N   UNL     1      42.771   7.380  11.104  0.00  0.00    +0.000 N 
ATOM     24  C   UNL     1      43.129   6.096  11.413  0.00  0.00    +0.000 C 
ATOM     25  O   UNL     1      42.394   5.152  11.155  0.00  0.00    +0.000 OA
ATOM     26  H   UNL     1      41.912   7.489  10.582  0.00  0.00    +0.000 HD
ATOM     27  H   UNL     1      43.445   8.132  11.058  0.00  0.00    +0.000 HD
ENDBRANCH  17  24
ENDBRANCH  16  20
ENDBRANCH  15  16
ENDBRANCH   1  15
TORSDOF 5
ENDMDL
