MODEL 1
REMARK VINA RESULT:    -8.088      0.000      0.000
REMARK INTER + INTRA:         -14.106
REMARK INTER:                 -12.344
REMARK INTRA:                  -1.762
REMARK UNBOUND:                -1.762
REMARK  Name = 
REMARK  12 active torsions:
REMARK  status: ('A' for Active; 'I' for Inactive)
REMARK    1  A    between atoms: C_1  and  C_2
REMARK    2  A    between atoms: C_2  and  N_3
REMARK    3  A    between atoms: C_2  and  C_20
REMARK    4  A    between atoms: N_3  and  C_4
REMARK    5  A    between atoms: C_4  and  C_5
REMARK    6  A    between atoms: C_8  and  C_9
REMARK    7  A    between atoms: C_9  and  N_10
REMARK    8  A    between atoms: N_10  and  C_11
REMARK    9  A    between atoms: C_11  and  C_12
REMARK   10  A    between atoms: C_23  and  C_24
REMARK   11  A    between atoms: N_26  and  C_27
REMARK   12  A    between atoms: N_26  and  C_28
REMARK                            x       y       z     vdW  Elec       q    Type
REMARK                         _______ _______ _______ _____ _____    ______ ____
ROOT
ATOM      1  C   UNL     1      48.927   7.541  12.390  0.00  0.00    +0.000 C 
ATOM      2  C   UNL     1      48.434   8.073  13.747  0.00  0.00    +0.000 C 
ENDROOT
BRANCH   2   3
ATOM      3  C   UNL     1      49.147   7.269  14.839  0.00  0.00    +0.000 A 
ATOM      4  C   UNL     1      50.442   7.636  15.275  0.00  0.00    +0.000 A 
ATOM      5  C   UNL     1      51.123   6.885  16.246  0.00  0.00    +0.000 A 
ATOM      6  C   UNL     1      50.433   5.902  16.940  0.00  0.00    +0.000 A 
ATOM      7  C   UNL     1      49.062   5.861  16.756  0.00  0.00    +0.000 A 
ATOM      8  C   UNL     1      48.163   5.026  17.553  0.00  0.00    +0.000 A 
ATOM      9  O   UNL     1      47.689   5.410  18.594  0.00  0.00    +0.000 OA
ATOM     10  N   UNL     1      47.806   3.947  16.823  0.00  0.00    +0.000 N 
ATOM     11  C   UNL     1      47.437   4.165  15.530  0.00  0.00    +0.000 A 
ATOM     12  N   UNL     1      47.599   5.320  14.918  0.00  0.00    +0.000 NA
ATOM     13  C   UNL     1      48.507   6.234  15.538  0.00  0.00    +0.000 A 
ATOM     14  H   UNL     1      47.847   3.042  17.279  0.00  0.00    +0.000 HD
BRANCH   6  15
ATOM     15  C   UNL     1      51.068   4.725  17.621  0.00  0.00    +0.000 C 
ATOM     16  O   UNL     1      50.986   3.640  17.050  0.00  0.00    +0.000 OA
ATOM     17  N   UNL     1      51.873   4.897  18.752  0.00  0.00    +0.000 N 
ATOM     18  C   UNL     1      52.071   6.117  19.517  0.00  0.00    +0.000 C 
ATOM     19  C   UNL     1      52.508   3.712  19.321  0.00  0.00    +0.000 C 
ENDBRANCH   6  15
ENDBRANCH   2   3
BRANCH   2  20
ATOM     20  N   UNL     1      46.962   7.944  13.844  0.00  0.00    +0.000 NA
ATOM     21  H   UNL     1      46.623   8.668  14.474  0.00  0.00    +0.000 HD
BRANCH  20  22
ATOM     22  C   UNL     1      46.280   8.097  12.553  0.00  0.00    +0.000 C 
BRANCH  22  23
ATOM     23  C   UNL     1      45.650   6.802  12.087  0.00  0.00    +0.000 A 
ATOM     24  C   UNL     1      45.935   6.277  10.820  0.00  0.00    +0.000 A 
ATOM     25  C   UNL     1      45.326   5.096  10.387  0.00  0.00    +0.000 A 
ATOM     26  C   UNL     1      44.439   4.398  11.219  0.00  0.00    +0.000 A 
ATOM     27  C   UNL     1      44.186   4.897  12.501  0.00  0.00    +0.000 A 
ATOM     28  C   UNL     1      44.785   6.085  12.930  0.00  0.00    +0.000 A 
BRANCH  26  29
ATOM     29  C   UNL     1      43.741   3.155  10.720  0.00  0.00    +0.000 C 
BRANCH  29  30
ATOM     30  N   UNL     1      44.041   2.916   9.312  0.00  0.00    +0.000 NA
ATOM     31  H   UNL     1      44.488   3.747   8.926  0.00  0.00    +0.000 HD
BRANCH  30  32
ATOM     32  C   UNL     1      44.924   1.766   9.144  0.00  0.00    +0.000 C 
BRANCH  32  33
ATOM     33  C   UNL     1      45.930   2.021   8.055  0.00  0.00    +0.000 A 
ATOM     34  C   UNL     1      45.975   3.239   7.369  0.00  0.00    +0.000 A 
ATOM     35  C   UNL     1      46.930   3.442   6.379  0.00  0.00    +0.000 A 
ATOM     36  C   UNL     1      47.809   2.410   6.099  0.00  0.00    +0.000 A 
ATOM     37  N   UNL     1      47.791   1.214   6.726  0.00  0.00    +0.000 NA
ATOM     38  C   UNL     1      46.854   1.048   7.687  0.00  0.00    +0.000 A 
ENDBRANCH  32  33
ENDBRANCH  30  32
ENDBRANCH  29  30
ENDBRANCH  26  29
ENDBRANCH  22  23
ENDBRANCH  20  22
ENDBRANCH   2  20
TORSDOF 9
ENDMDL
MODEL 2
REMARK VINA RESULT:    -8.073      1.918      2.992
REMARK INTER + INTRA:         -14.084
REMARK INTER:                 -12.021
REMARK INTRA:                  -2.063
REMARK UNBOUND:                -1.762
REMARK  Name = 
REMARK  12 active torsions:
REMARK  status: ('A' for Active; 'I' for Inactive)
REMARK    1  A    between atoms: C_1  and  C_2
REMARK    2  A    between atoms: C_2  and  N_3
REMARK    3  A    between atoms: C_2  and  C_20
REMARK    4  A    between atoms: N_3  and  C_4
REMARK    5  A    between atoms: C_4  and  C_5
REMARK    6  A    between atoms: C_8  and  C_9
REMARK    7  A    between atoms: C_9  and  N_10
REMARK    8  A    between atoms: N_10  and  C_11
REMARK    9  A    between atoms: C_11  and  C_12
REMARK   10  A    between atoms: C_23  and  C_24
REMARK   11  A    between atoms: N_26  and  C_27
REMARK   12  A    between atoms: N_26  and  C_28
REMARK                            x       y       z     vdW  Elec       q    Type
REMARK                         _______ _______ _______ _____ _____    ______ ____
ROOT
ATOM      1  C   UNL     1      51.190   8.128  15.079  0.00  0.00    +0.000 C 
ATOM      2  C   UNL     1      49.679   7.880  14.924  0.00  0.00    +0.000 C 
ENDROOT
BRANCH   2   3
ATOM      3  C   UNL     1      49.128   7.538  16.312  0.00  0.00    +0.000 A 
ATOM      4  C   UNL     1      48.566   8.544  17.133  0.00  0.00    +0.000 A 
ATOM      5  C   UNL     1      48.094   8.250  18.422  0.00  0.00    +0.000 A 
ATOM      6  C   UNL     1      47.978   6.924  18.809  0.00  0.00    +0.000 A 
ATOM      7  C   UNL     1      48.161   5.972  17.821  0.00  0.00    +0.000 A 
ATOM      8  C   UNL     1      47.883   4.548  18.008  0.00  0.00    +0.000 A 
ATOM      9  O   UNL     1      46.789   4.078  17.811  0.00  0.00    +0.000 OA
ATOM     10  N   UNL     1      49.051   3.893  18.178  0.00  0.00    +0.000 N 
ATOM     11  C   UNL     1      50.068   4.202  17.324  0.00  0.00    +0.000 A 
ATOM     12  N   UNL     1      50.027   5.222  16.492  0.00  0.00    +0.000 NA
ATOM     13  C   UNL     1      49.034   6.214  16.768  0.00  0.00    +0.000 A 
ATOM     14  H   UNL     1      49.104   3.223  18.937  0.00  0.00    +0.000 HD
BRANCH   6  15
ATOM     15  C   UNL     1      47.969   6.442  20.230  0.00  0.00    +0.000 C 
ATOM     16  O   UNL     1      46.877   6.154  20.715  0.00  0.00    +0.000 OA
ATOM     17  N   UNL     1      49.164   6.157  20.899  0.00  0.00    +0.000 N 
ATOM     18  C   UNL     1      50.518   6.430  20.446  0.00  0.00    +0.000 C 
ATOM     19  C   UNL     1      49.073   5.630  22.259  0.00  0.00    +0.000 C 
ENDBRANCH   6  15
ENDBRANCH   2   3
BRANCH   2  20
ATOM     20  N   UNL     1      49.435   6.790  13.952  0.00  0.00    +0.000 NA
ATOM     21  H   UNL     1      48.988   6.021  14.446  0.00  0.00    +0.000 HD
BRANCH  20  22
ATOM     22  C   UNL     1      48.569   7.190  12.837  0.00  0.00    +0.000 C 
BRANCH  22  23
ATOM     23  C   UNL     1      47.215   6.517  12.899  0.00  0.00    +0.000 A 
ATOM     24  C   UNL     1      47.038   5.318  13.603  0.00  0.00    +0.000 A 
ATOM     25  C   UNL     1      45.792   4.687  13.630  0.00  0.00    +0.000 A 
ATOM     26  C   UNL     1      44.686   5.253  12.979  0.00  0.00    +0.000 A 
ATOM     27  C   UNL     1      44.849   6.473  12.313  0.00  0.00    +0.000 A 
ATOM     28  C   UNL     1      46.099   7.096  12.273  0.00  0.00    +0.000 A 
BRANCH  26  29
ATOM     29  C   UNL     1      43.357   4.536  12.966  0.00  0.00    +0.000 C 
BRANCH  29  30
ATOM     30  N   UNL     1      42.985   4.147  11.609  0.00  0.00    +0.000 NA
ATOM     31  H   UNL     1      43.266   4.887  10.967  0.00  0.00    +0.000 HD
BRANCH  30  32
ATOM     32  C   UNL     1      43.630   2.896  11.220  0.00  0.00    +0.000 C 
BRANCH  32  33
ATOM     33  C   UNL     1      44.464   3.089   9.983  0.00  0.00    +0.000 A 
ATOM     34  C   UNL     1      45.029   2.005   9.303  0.00  0.00    +0.000 A 
ATOM     35  C   UNL     1      45.780   2.224   8.154  0.00  0.00    +0.000 A 
ATOM     36  C   UNL     1      45.951   3.529   7.724  0.00  0.00    +0.000 A 
ATOM     37  N   UNL     1      45.437   4.604   8.358  0.00  0.00    +0.000 NA
ATOM     38  C   UNL     1      44.706   4.359   9.470  0.00  0.00    +0.000 A 
ENDBRANCH  32  33
ENDBRANCH  30  32
ENDBRANCH  29  30
ENDBRANCH  26  29
ENDBRANCH  22  23
ENDBRANCH  20  22
ENDBRANCH   2  20
TORSDOF 9
ENDMDL
MODEL 3
REMARK VINA RESULT:    -7.584      2.360      3.812
REMARK INTER + INTRA:         -13.336
REMARK INTER:                 -11.805
REMARK INTRA:                  -1.531
REMARK UNBOUND:                -1.762
REMARK  Name = 
REMARK  12 active torsions:
REMARK  status: ('A' for Active; 'I' for Inactive)
REMARK    1  A    between atoms: C_1  and  C_2
REMARK    2  A    between atoms: C_2  and  N_3
REMARK    3  A    between atoms: C_2  and  C_20
REMARK    4  A    between atoms: N_3  and  C_4
REMARK    5  A    between atoms: C_4  and  C_5
REMARK    6  A    between atoms: C_8  and  C_9
REMARK    7  A    between atoms: C_9  and  N_10
REMARK    8  A    between atoms: N_10  and  C_11
REMARK    9  A    between atoms: C_11  and  C_12
REMARK   10  A    between atoms: C_23  and  C_24
REMARK   11  A    between atoms: N_26  and  C_27
REMARK   12  A    between atoms: N_26  and  C_28
REMARK                            x       y       z     vdW  Elec       q    Type
REMARK                         _______ _______ _______ _____ _____    ______ ____
ROOT
ATOM      1  C   UNL     1      47.438   2.637  17.817  0.00  0.00    +0.000 C 
ATOM      2  C   UNL     1      47.901   3.738  16.845  0.00  0.00    +0.000 C 
ENDROOT
BRANCH   2   3
ATOM      3  C   UNL     1      48.196   4.989  17.679  0.00  0.00    +0.000 A 
ATOM      4  C   UNL     1      47.204   5.545  18.520  0.00  0.00    +0.000 A 
ATOM      5  C   UNL     1      47.449   6.714  19.258  0.00  0.00    +0.000 A 
ATOM      6  C   UNL     1      48.744   7.203  19.332  0.00  0.00    +0.000 A 
ATOM      7  C   UNL     1      49.742   6.391  18.822  0.00  0.00    +0.000 A 
ATOM      8  C   UNL     1      51.170   6.659  18.994  0.00  0.00    +0.000 A 
ATOM      9  O   UNL     1      51.784   6.265  19.956  0.00  0.00    +0.000 OA
ATOM     10  N   UNL     1      51.663   7.163  17.842  0.00  0.00    +0.000 N 
ATOM     11  C   UNL     1      51.302   6.540  16.685  0.00  0.00    +0.000 A 
ATOM     12  N   UNL     1      50.363   5.617  16.625  0.00  0.00    +0.000 NA
ATOM     13  C   UNL     1      49.481   5.549  17.748  0.00  0.00    +0.000 A 
ATOM     14  H   UNL     1      52.258   7.981  17.908  0.00  0.00    +0.000 HD
BRANCH   6  15
ATOM     15  C   UNL     1      49.109   8.626  19.636  0.00  0.00    +0.000 C 
ATOM     16  O   UNL     1      49.009   9.437  18.717  0.00  0.00    +0.000 OA
ATOM     17  N   UNL     1      49.367   9.037  20.948  0.00  0.00    +0.000 N 
ATOM     18  C   UNL     1      49.501   8.197  22.127  0.00  0.00    +0.000 C 
ATOM     19  C   UNL     1      49.652  10.451  21.174  0.00  0.00    +0.000 C 
ENDBRANCH   6  15
ENDBRANCH   2   3
BRANCH   2  20
ATOM     20  N   UNL     1      46.860   3.991  15.824  0.00  0.00    +0.000 NA
ATOM     21  H   UNL     1      46.073   4.446  16.282  0.00  0.00    +0.000 HD
BRANCH  20  22
ATOM     22  C   UNL     1      47.319   4.853  14.728  0.00  0.00    +0.000 C 
BRANCH  22  23
ATOM     23  C   UNL     1      46.389   4.799  13.535  0.00  0.00    +0.000 A 
ATOM     24  C   UNL     1      45.986   5.972  12.883  0.00  0.00    +0.000 A 
ATOM     25  C   UNL     1      45.104   5.915  11.801  0.00  0.00    +0.000 A 
ATOM     26  C   UNL     1      44.625   4.684  11.327  0.00  0.00    +0.000 A 
ATOM     27  C   UNL     1      45.062   3.509  11.949  0.00  0.00    +0.000 A 
ATOM     28  C   UNL     1      45.933   3.567  13.040  0.00  0.00    +0.000 A 
BRANCH  26  29
ATOM     29  C   UNL     1      43.628   4.636  10.194  0.00  0.00    +0.000 C 
BRANCH  29  30
ATOM     30  N   UNL     1      44.025   3.654   9.189  0.00  0.00    +0.000 NA
ATOM     31  H   UNL     1      43.218   3.441   8.603  0.00  0.00    +0.000 HD
BRANCH  30  32
ATOM     32  C   UNL     1      45.112   4.158   8.355  0.00  0.00    +0.000 C 
BRANCH  32  33
ATOM     33  C   UNL     1      45.928   3.022   7.801  0.00  0.00    +0.000 A 
ATOM     34  C   UNL     1      46.750   3.187   6.682  0.00  0.00    +0.000 A 
ATOM     35  C   UNL     1      47.501   2.117   6.209  0.00  0.00    +0.000 A 
ATOM     36  C   UNL     1      47.399   0.905   6.871  0.00  0.00    +0.000 A 
ATOM     37  N   UNL     1      46.607   0.698   7.945  0.00  0.00    +0.000 NA
ATOM     38  C   UNL     1      45.892   1.760   8.384  0.00  0.00    +0.000 A 
ENDBRANCH  32  33
ENDBRANCH  30  32
ENDBRANCH  29  30
ENDBRANCH  26  29
ENDBRANCH  22  23
ENDBRANCH  20  22
ENDBRANCH   2  20
TORSDOF 9
ENDMDL
MODEL 4
REMARK VINA RESULT:    -7.547      1.583      2.395
REMARK INTER + INTRA:         -13.280
REMARK INTER:                 -11.608
REMARK INTRA:                  -1.672
REMARK UNBOUND:                -1.762
REMARK  Name = 
REMARK  12 active torsions:
REMARK  status: ('A' for Active; 'I' for Inactive)
REMARK    1  A    between atoms: C_1  and  C_2
REMARK    2  A    between atoms: C_2  and  N_3
REMARK    3  A    between atoms: C_2  and  C_20
REMARK    4  A    between atoms: N_3  and  C_4
REMARK    5  A    between atoms: C_4  and  C_5
REMARK    6  A    between atoms: C_8  and  C_9
REMARK    7  A    between atoms: C_9  and  N_10
REMARK    8  A    between atoms: N_10  and  C_11
REMARK    9  A    between atoms: C_11  and  C_12
REMARK   10  A    between atoms: C_23  and  C_24
REMARK   11  A    between atoms: N_26  and  C_27
REMARK   12  A    between atoms: N_26  and  C_28
REMARK                            x       y       z     vdW  Elec       q    Type
REMARK                         _______ _______ _______ _____ _____    ______ ____
ROOT
ATOM      1  C   UNL     1      48.286   8.808  16.367  0.00  0.00    +0.000 C 
ATOM      2  C   UNL     1      48.441   7.562  15.476  0.00  0.00    +0.000 C 
ENDROOT
BRANCH   2   3
ATOM      3  C   UNL     1      49.393   6.602  16.196  0.00  0.00    +0.000 A 
ATOM      4  C   UNL     1      50.792   6.799  16.143  0.00  0.00    +0.000 A 
ATOM      5  C   UNL     1      51.677   5.903  16.765  0.00  0.00    +0.000 A 
ATOM      6  C   UNL     1      51.165   4.940  17.621  0.00  0.00    +0.000 A 
ATOM      7  C   UNL     1      49.826   5.052  17.950  0.00  0.00    +0.000 A 
ATOM      8  C   UNL     1      49.176   4.248  18.985  0.00  0.00    +0.000 A 
ATOM      9  O   UNL     1      49.158   4.588  20.142  0.00  0.00    +0.000 OA
ATOM     10  N   UNL     1      48.449   3.276  18.391  0.00  0.00    +0.000 N 
ATOM     11  C   UNL     1      47.672   3.638  17.332  0.00  0.00    +0.000 A 
ATOM     12  N   UNL     1      47.745   4.818  16.753  0.00  0.00    +0.000 NA
ATOM     13  C   UNL     1      48.922   5.581  17.036  0.00  0.00    +0.000 A 
ATOM     14  H   UNL     1      48.538   2.336  18.761  0.00  0.00    +0.000 HD
BRANCH   6  15
ATOM     15  C   UNL     1      51.850   3.652  17.972  0.00  0.00    +0.000 C 
ATOM     16  O   UNL     1      51.456   2.637  17.401  0.00  0.00    +0.000 OA
ATOM     17  N   UNL     1      53.001   3.643  18.767  0.00  0.00    +0.000 N 
ATOM     18  C   UNL     1      53.584   4.762  19.489  0.00  0.00    +0.000 C 
ATOM     19  C   UNL     1      53.648   2.357  19.013  0.00  0.00    +0.000 C 
ENDBRANCH   6  15
ENDBRANCH   2   3
BRANCH   2  20
ATOM     20  N   UNL     1      48.955   7.947  14.142  0.00  0.00    +0.000 NA
ATOM     21  H   UNL     1      49.943   8.173  14.237  0.00  0.00    +0.000 HD
BRANCH  20  22
ATOM     22  C   UNL     1      48.817   6.885  13.138  0.00  0.00    +0.000 C 
BRANCH  22  23
ATOM     23  C   UNL     1      47.394   6.379  13.038  0.00  0.00    +0.000 A 
ATOM     24  C   UNL     1      46.376   7.191  12.520  0.00  0.00    +0.000 A 
ATOM     25  C   UNL     1      45.060   6.726  12.458  0.00  0.00    +0.000 A 
ATOM     26  C   UNL     1      44.734   5.431  12.886  0.00  0.00    +0.000 A 
ATOM     27  C   UNL     1      45.756   4.603  13.362  0.00  0.00    +0.000 A 
ATOM     28  C   UNL     1      47.070   5.072  13.437  0.00  0.00    +0.000 A 
BRANCH  26  29
ATOM     29  C   UNL     1      43.299   4.958  12.869  0.00  0.00    +0.000 C 
BRANCH  29  30
ATOM     30  N   UNL     1      42.919   4.488  11.540  0.00  0.00    +0.000 NA
ATOM     31  H   UNL     1      43.238   5.167  10.849  0.00  0.00    +0.000 HD
BRANCH  30  32
ATOM     32  C   UNL     1      43.508   3.184  11.249  0.00  0.00    +0.000 C 
BRANCH  32  33
ATOM     33  C   UNL     1      44.383   3.255  10.028  0.00  0.00    +0.000 A 
ATOM     34  C   UNL     1      44.897   2.102   9.427  0.00  0.00    +0.000 A 
ATOM     35  C   UNL     1      45.690   2.209   8.289  0.00  0.00    +0.000 A 
ATOM     36  C   UNL     1      45.950   3.474   7.791  0.00  0.00    +0.000 A 
ATOM     37  N   UNL     1      45.486   4.613   8.348  0.00  0.00    +0.000 NA
ATOM     38  C   UNL     1      44.715   4.477   9.451  0.00  0.00    +0.000 A 
ENDBRANCH  32  33
ENDBRANCH  30  32
ENDBRANCH  29  30
ENDBRANCH  26  29
ENDBRANCH  22  23
ENDBRANCH  20  22
ENDBRANCH   2  20
TORSDOF 9
ENDMDL
MODEL 5
REMARK VINA RESULT:    -7.492      2.024      3.245
REMARK INTER + INTRA:         -13.196
REMARK INTER:                 -11.525
REMARK INTRA:                  -1.670
REMARK UNBOUND:                -1.762
REMARK  Name = 
REMARK  12 active torsions:
REMARK  status: ('A' for Active; 'I' for Inactive)
REMARK    1  A    between atoms: C_1  and  C_2
REMARK    2  A    between atoms: C_2  and  N_3
REMARK    3  A    between atoms: C_2  and  C_20
REMARK    4  A    between atoms: N_3  and  C_4
REMARK    5  A    between atoms: C_4  and  C_5
REMARK    6  A    between atoms: C_8  and  C_9
REMARK    7  A    between atoms: C_9  and  N_10
REMARK    8  A    between atoms: N_10  and  C_11
REMARK    9  A    between atoms: C_11  and  C_12
REMARK   10  A    between atoms: C_23  and  C_24
REMARK   11  A    between atoms: N_26  and  C_27
REMARK   12  A    between atoms: N_26  and  C_28
REMARK                            x       y       z     vdW  Elec       q    Type
REMARK                         _______ _______ _______ _____ _____    ______ ____
ROOT
ATOM      1  C   UNL     1      47.231   2.900  17.529  0.00  0.00    +0.000 C 
ATOM      2  C   UNL     1      48.069   3.765  16.571  0.00  0.00    +0.000 C 
ENDROOT
BRANCH   2   3
ATOM      3  C   UNL     1      49.218   4.367  17.386  0.00  0.00    +0.000 A 
ATOM      4  C   UNL     1      50.450   3.683  17.511  0.00  0.00    +0.000 A 
ATOM      5  C   UNL     1      51.496   4.205  18.287  0.00  0.00    +0.000 A 
ATOM      6  C   UNL     1      51.399   5.506  18.758  0.00  0.00    +0.000 A 
ATOM      7  C   UNL     1      50.352   6.265  18.266  0.00  0.00    +0.000 A 
ATOM      8  C   UNL     1      50.215   7.703  18.500  0.00  0.00    +0.000 A 
ATOM      9  O   UNL     1      50.727   8.521  17.776  0.00  0.00    +0.000 OA
ATOM     10  N   UNL     1      49.276   7.904  19.450  0.00  0.00    +0.000 N 
ATOM     11  C   UNL     1      48.115   7.199  19.336  0.00  0.00    +0.000 A 
ATOM     12  N   UNL     1      47.951   6.212  18.480  0.00  0.00    +0.000 NA
ATOM     13  C   UNL     1      49.148   5.662  17.923  0.00  0.00    +0.000 A 
ATOM     14  H   UNL     1      49.498   8.556  20.194  0.00  0.00    +0.000 HD
BRANCH   6  15
ATOM     15  C   UNL     1      52.135   6.046  19.948  0.00  0.00    +0.000 C 
ATOM     16  O   UNL     1      51.584   5.939  21.042  0.00  0.00    +0.000 OA
ATOM     17  N   UNL     1      53.462   6.475  19.838  0.00  0.00    +0.000 N 
ATOM     18  C   UNL     1      54.239   6.639  18.621  0.00  0.00    +0.000 C 
ATOM     19  C   UNL     1      54.133   6.928  21.054  0.00  0.00    +0.000 C 
ENDBRANCH   6  15
ENDBRANCH   2   3
BRANCH   2  20
ATOM     20  N   UNL     1      47.225   4.813  15.954  0.00  0.00    +0.000 NA
ATOM     21  H   UNL     1      47.263   5.639  16.547  0.00  0.00    +0.000 HD
BRANCH  20  22
ATOM     22  C   UNL     1      47.662   5.191  14.605  0.00  0.00    +0.000 C 
BRANCH  22  23
ATOM     23  C   UNL     1      46.560   5.022  13.582  0.00  0.00    +0.000 A 
ATOM     24  C   UNL     1      46.124   3.747  13.197  0.00  0.00    +0.000 A 
ATOM     25  C   UNL     1      45.126   3.599  12.230  0.00  0.00    +0.000 A 
ATOM     26  C   UNL     1      44.521   4.721  11.645  0.00  0.00    +0.000 A 
ATOM     27  C   UNL     1      44.923   5.995  12.060  0.00  0.00    +0.000 A 
ATOM     28  C   UNL     1      45.931   6.143  13.017  0.00  0.00    +0.000 A 
BRANCH  26  29
ATOM     29  C   UNL     1      43.485   4.551  10.560  0.00  0.00    +0.000 C 
BRANCH  29  30
ATOM     30  N   UNL     1      43.914   3.561   9.576  0.00  0.00    +0.000 NA
ATOM     31  H   UNL     1      43.089   3.182   9.111  0.00  0.00    +0.000 HD
BRANCH  30  32
ATOM     32  C   UNL     1      44.804   4.153   8.581  0.00  0.00    +0.000 C 
BRANCH  32  33
ATOM     33  C   UNL     1      45.744   3.118   8.026  0.00  0.00    +0.000 A 
ATOM     34  C   UNL     1      46.669   3.430   7.025  0.00  0.00    +0.000 A 
ATOM     35  C   UNL     1      47.532   2.449   6.548  0.00  0.00    +0.000 A 
ATOM     36  C   UNL     1      47.436   1.178   7.087  0.00  0.00    +0.000 A 
ATOM     37  N   UNL     1      46.548   0.830   8.043  0.00  0.00    +0.000 NA
ATOM     38  C   UNL     1      45.725   1.807   8.490  0.00  0.00    +0.000 A 
ENDBRANCH  32  33
ENDBRANCH  30  32
ENDBRANCH  29  30
ENDBRANCH  26  29
ENDBRANCH  22  23
ENDBRANCH  20  22
ENDBRANCH   2  20
TORSDOF 9
ENDMDL
MODEL 6
REMARK VINA RESULT:    -6.733      2.890      8.127
REMARK INTER + INTRA:         -12.038
REMARK INTER:                  -9.083
REMARK INTRA:                  -2.955
REMARK UNBOUND:                -1.762
REMARK  Name = 
REMARK  12 active torsions:
REMARK  status: ('A' for Active; 'I' for Inactive)
REMARK    1  A    between atoms: C_1  and  C_2
REMARK    2  A    between atoms: C_2  and  N_3
REMARK    3  A    between atoms: C_2  and  C_20
REMARK    4  A    between atoms: N_3  and  C_4
REMARK    5  A    between atoms: C_4  and  C_5
REMARK    6  A    between atoms: C_8  and  C_9
REMARK    7  A    between atoms: C_9  and  N_10
REMARK    8  A    between atoms: N_10  and  C_11
REMARK    9  A    between atoms: C_11  and  C_12
REMARK   10  A    between atoms: C_23  and  C_24
REMARK   11  A    between atoms: N_26  and  C_27
REMARK   12  A    between atoms: N_26  and  C_28
REMARK                            x       y       z     vdW  Elec       q    Type
REMARK                         _______ _______ _______ _____ _____    ______ ____
ROOT
ATOM      1  C   UNL     1      50.734   8.257  11.725  0.00  0.00    +0.000 C 
ATOM      2  C   UNL     1      50.130   7.909  13.097  0.00  0.00    +0.000 C 
ENDROOT
BRANCH   2   3
ATOM      3  C   UNL     1      48.787   7.217  12.844  0.00  0.00    +0.000 A 
ATOM      4  C   UNL     1      48.057   7.473  11.660  0.00  0.00    +0.000 A 
ATOM      5  C   UNL     1      46.806   6.876  11.434  0.00  0.00    +0.000 A 
ATOM      6  C   UNL     1      46.385   5.860  12.278  0.00  0.00    +0.000 A 
ATOM      7  C   UNL     1      47.318   5.374  13.177  0.00  0.00    +0.000 A 
ATOM      8  C   UNL     1      47.108   4.181  13.997  0.00  0.00    +0.000 A 
ATOM      9  O   UNL     1      47.387   3.076  13.602  0.00  0.00    +0.000 OA
ATOM     10  N   UNL     1      46.810   4.564  15.258  0.00  0.00    +0.000 N 
ATOM     11  C   UNL     1      47.578   5.546  15.808  0.00  0.00    +0.000 A 
ATOM     12  N   UNL     1      48.446   6.257  15.117  0.00  0.00    +0.000 NA
ATOM     13  C   UNL     1      48.295   6.215  13.695  0.00  0.00    +0.000 A 
ATOM     14  H   UNL     1      46.026   4.108  15.711  0.00  0.00    +0.000 HD
BRANCH   6  15
ATOM     15  C   UNL     1      44.955   5.461  12.495  0.00  0.00    +0.000 C 
ATOM     16  O   UNL     1      44.310   6.116  13.311  0.00  0.00    +0.000 OA
ATOM     17  N   UNL     1      44.340   4.513  11.670  0.00  0.00    +0.000 N 
ATOM     18  C   UNL     1      44.971   3.678  10.662  0.00  0.00    +0.000 C 
ATOM     19  C   UNL     1      42.927   4.224  11.902  0.00  0.00    +0.000 C 
ENDBRANCH   6  15
ENDBRANCH   2   3
BRANCH   2  20
ATOM     20  N   UNL     1      49.972   9.134  13.913  0.00  0.00    +0.000 NA
ATOM     21  H   UNL     1      49.032   9.135  14.303  0.00  0.00    +0.000 HD
BRANCH  20  22
ATOM     22  C   UNL     1      50.931   9.221  15.021  0.00  0.00    +0.000 C 
BRANCH  22  23
ATOM     23  C   UNL     1      50.333   8.754  16.330  0.00  0.00    +0.000 A 
ATOM     24  C   UNL     1      51.078   7.978  17.228  0.00  0.00    +0.000 A 
ATOM     25  C   UNL     1      50.508   7.527  18.420  0.00  0.00    +0.000 A 
ATOM     26  C   UNL     1      49.188   7.861  18.757  0.00  0.00    +0.000 A 
ATOM     27  C   UNL     1      48.456   8.673  17.884  0.00  0.00    +0.000 A 
ATOM     28  C   UNL     1      49.022   9.113  16.684  0.00  0.00    +0.000 A 
BRANCH  26  29
ATOM     29  C   UNL     1      48.561   7.321  20.021  0.00  0.00    +0.000 C 
BRANCH  29  30
ATOM     30  N   UNL     1      47.795   6.108  19.748  0.00  0.00    +0.000 NA
ATOM     31  H   UNL     1      47.616   6.052  18.746  0.00  0.00    +0.000 HD
BRANCH  30  32
ATOM     32  C   UNL     1      48.518   4.916  20.180  0.00  0.00    +0.000 C 
BRANCH  32  33
ATOM     33  C   UNL     1      48.886   4.059  19.000  0.00  0.00    +0.000 A 
ATOM     34  C   UNL     1      50.184   4.044  18.481  0.00  0.00    +0.000 A 
ATOM     35  C   UNL     1      50.488   3.226  17.399  0.00  0.00    +0.000 A 
ATOM     36  C   UNL     1      49.475   2.450  16.862  0.00  0.00    +0.000 A 
ATOM     37  N   UNL     1      48.206   2.445  17.322  0.00  0.00    +0.000 NA
ATOM     38  C   UNL     1      47.942   3.247  18.379  0.00  0.00    +0.000 A 
ENDBRANCH  32  33
ENDBRANCH  30  32
ENDBRANCH  29  30
ENDBRANCH  26  29
ENDBRANCH  22  23
ENDBRANCH  20  22
ENDBRANCH   2  20
TORSDOF 9
ENDMDL
MODEL 7
REMARK VINA RESULT:    -6.565      2.165      2.693
REMARK INTER + INTRA:         -11.781
REMARK INTER:                 -10.077
REMARK INTRA:                  -1.704
REMARK UNBOUND:                -1.762
REMARK  Name = 
REMARK  12 active torsions:
REMARK  status: ('A' for Active; 'I' for Inactive)
REMARK    1  A    between atoms: C_1  and  C_2
REMARK    2  A    between atoms: C_2  and  N_3
REMARK    3  A    between atoms: C_2  and  C_20
REMARK    4  A    between atoms: N_3  and  C_4
REMARK    5  A    between atoms: C_4  and  C_5
REMARK    6  A    between atoms: C_8  and  C_9
REMARK    7  A    between atoms: C_9  and  N_10
REMARK    8  A    between atoms: N_10  and  C_11
REMARK    9  A    between atoms: C_11  and  C_12
REMARK   10  A    between atoms: C_23  and  C_24
REMARK   11  A    between atoms: N_26  and  C_27
REMARK   12  A    between atoms: N_26  and  C_28
REMARK                            x       y       z     vdW  Elec       q    Type
REMARK                         _______ _______ _______ _____ _____    ______ ____
ROOT
ATOM      1  C   UNL     1      49.144  10.619  13.607  0.00  0.00    +0.000 C 
ATOM      2  C   UNL     1      48.090   9.595  14.065  0.00  0.00    +0.000 C 
ENDROOT
BRANCH   2   3
ATOM      3  C   UNL     1      48.757   8.683  15.099  0.00  0.00    +0.000 A 
ATOM      4  C   UNL     1      49.453   7.521  14.693  0.00  0.00    +0.000 A 
ATOM      5  C   UNL     1      50.035   6.656  15.633  0.00  0.00    +0.000 A 
ATOM      6  C   UNL     1      50.115   7.059  16.957  0.00  0.00    +0.000 A 
ATOM      7  C   UNL     1      49.782   8.376  17.224  0.00  0.00    +0.000 A 
ATOM      8  C   UNL     1      49.998   9.018  18.521  0.00  0.00    +0.000 A 
ATOM      9  O   UNL     1      51.039   9.560  18.801  0.00  0.00    +0.000 OA
ATOM     10  N   UNL     1      48.818   9.095  19.173  0.00  0.00    +0.000 N 
ATOM     11  C   UNL     1      47.740   9.526  18.459  0.00  0.00    +0.000 A 
ATOM     12  N   UNL     1      47.753   9.676  17.151  0.00  0.00    +0.000 NA
ATOM     13  C   UNL     1      48.822   9.025  16.458  0.00  0.00    +0.000 A 
ATOM     14  H   UNL     1      48.804   8.816  20.147  0.00  0.00    +0.000 HD
BRANCH   6  15
ATOM     15  C   UNL     1      50.239   6.133  18.131  0.00  0.00    +0.000 C 
ATOM     16  O   UNL     1      51.354   6.017  18.635  0.00  0.00    +0.000 OA
ATOM     17  N   UNL     1      49.104   5.581  18.734  0.00  0.00    +0.000 N 
ATOM     18  C   UNL     1      47.731   5.647  18.259  0.00  0.00    +0.000 C 
ATOM     19  C   UNL     1      49.300   4.740  19.912  0.00  0.00    +0.000 C 
ENDBRANCH   6  15
ENDBRANCH   2   3
BRANCH   2  20
ATOM     20  N   UNL     1      47.581   8.830  12.904  0.00  0.00    +0.000 NA
ATOM     21  H   UNL     1      48.030   7.916  12.907  0.00  0.00    +0.000 HD
BRANCH  20  22
ATOM     22  C   UNL     1      46.127   8.631  12.931  0.00  0.00    +0.000 C 
BRANCH  22  23
ATOM     23  C   UNL     1      45.738   7.226  12.528  0.00  0.00    +0.000 A 
ATOM     24  C   UNL     1      46.309   6.111  13.156  0.00  0.00    +0.000 A 
ATOM     25  C   UNL     1      45.966   4.817  12.757  0.00  0.00    +0.000 A 
ATOM     26  C   UNL     1      45.024   4.605  11.739  0.00  0.00    +0.000 A 
ATOM     27  C   UNL     1      44.419   5.715  11.140  0.00  0.00    +0.000 A 
ATOM     28  C   UNL     1      44.773   7.010  11.530  0.00  0.00    +0.000 A 
BRANCH  26  29
ATOM     29  C   UNL     1      44.702   3.204  11.275  0.00  0.00    +0.000 C 
BRANCH  29  30
ATOM     30  N   UNL     1      44.327   3.193   9.864  0.00  0.00    +0.000 NA
ATOM     31  H   UNL     1      44.795   3.968   9.394  0.00  0.00    +0.000 HD
BRANCH  30  32
ATOM     32  C   UNL     1      44.705   1.937   9.224  0.00  0.00    +0.000 C 
BRANCH  32  33
ATOM     33  C   UNL     1      45.803   2.160   8.220  0.00  0.00    +0.000 A 
ATOM     34  C   UNL     1      45.985   3.398   7.596  0.00  0.00    +0.000 A 
ATOM     35  C   UNL     1      47.022   3.569   6.685  0.00  0.00    +0.000 A 
ATOM     36  C   UNL     1      47.843   2.486   6.419  0.00  0.00    +0.000 A 
ATOM     37  N   UNL     1      47.693   1.270   6.987  0.00  0.00    +0.000 NA
ATOM     38  C   UNL     1      46.679   1.136   7.873  0.00  0.00    +0.000 A 
ENDBRANCH  32  33
ENDBRANCH  30  32
ENDBRANCH  29  30
ENDBRANCH  26  29
ENDBRANCH  22  23
ENDBRANCH  20  22
ENDBRANCH   2  20
TORSDOF 9
ENDMDL
MODEL 8
REMARK VINA RESULT:    -6.561      2.870      8.446
REMARK INTER + INTRA:         -11.776
REMARK INTER:                  -9.243
REMARK INTRA:                  -2.533
REMARK UNBOUND:                -1.762
REMARK  Name = 
REMARK  12 active torsions:
REMARK  status: ('A' for Active; 'I' for Inactive)
REMARK    1  A    between atoms: C_1  and  C_2
REMARK    2  A    between atoms: C_2  and  N_3
REMARK    3  A    between atoms: C_2  and  C_20
REMARK    4  A    between atoms: N_3  and  C_4
REMARK    5  A    between atoms: C_4  and  C_5
REMARK    6  A    between atoms: C_8  and  C_9
REMARK    7  A    between atoms: C_9  and  N_10
REMARK    8  A    between atoms: N_10  and  C_11
REMARK    9  A    between atoms: C_11  and  C_12
REMARK   10  A    between atoms: C_23  and  C_24
REMARK   11  A    between atoms: N_26  and  C_27
REMARK   12  A    between atoms: N_26  and  C_28
REMARK                            x       y       z     vdW  Elec       q    Type
REMARK                         _______ _______ _______ _____ _____    ______ ____
ROOT
ATOM      1  C   UNL     1      50.724   8.247  11.369  0.00  0.00    +0.000 C 
ATOM      2  C   UNL     1      50.304   7.734  12.758  0.00  0.00    +0.000 C 
ENDROOT
BRANCH   2   3
ATOM      3  C   UNL     1      48.909   7.116  12.614  0.00  0.00    +0.000 A 
ATOM      4  C   UNL     1      48.150   7.317  11.438  0.00  0.00    +0.000 A 
ATOM      5  C   UNL     1      46.855   6.790  11.309  0.00  0.00    +0.000 A 
ATOM      6  C   UNL     1      46.403   5.882  12.255  0.00  0.00    +0.000 A 
ATOM      7  C   UNL     1      47.338   5.415  13.161  0.00  0.00    +0.000 A 
ATOM      8  C   UNL     1      47.083   4.315  14.093  0.00  0.00    +0.000 A 
ATOM      9  O   UNL     1      47.274   3.163  13.789  0.00  0.00    +0.000 OA
ATOM     10  N   UNL     1      46.862   4.827  15.323  0.00  0.00    +0.000 N 
ATOM     11  C   UNL     1      47.714   5.798  15.756  0.00  0.00    +0.000 A 
ATOM     12  N   UNL     1      48.597   6.385  14.974  0.00  0.00    +0.000 NA
ATOM     13  C   UNL     1      48.388   6.229  13.568  0.00  0.00    +0.000 A 
ATOM     14  H   UNL     1      46.069   4.466  15.841  0.00  0.00    +0.000 HD
BRANCH   6  15
ATOM     15  C   UNL     1      44.959   5.603  12.556  0.00  0.00    +0.000 C 
ATOM     16  O   UNL     1      44.385   6.384  13.311  0.00  0.00    +0.000 OA
ATOM     17  N   UNL     1      44.259   4.612  11.860  0.00  0.00    +0.000 N 
ATOM     18  C   UNL     1      44.802   3.632  10.934  0.00  0.00    +0.000 C 
ATOM     19  C   UNL     1      42.841   4.442  12.163  0.00  0.00    +0.000 C 
ENDBRANCH   6  15
ENDBRANCH   2   3
BRANCH   2  20
ATOM     20  N   UNL     1      50.315   8.842  13.739  0.00  0.00    +0.000 NA
ATOM     21  H   UNL     1      49.800   8.540  14.563  0.00  0.00    +0.000 HD
BRANCH  20  22
ATOM     22  C   UNL     1      51.667   9.235  14.156  0.00  0.00    +0.000 C 
BRANCH  22  23
ATOM     23  C   UNL     1      52.343   8.159  14.976  0.00  0.00    +0.000 A 
ATOM     24  C   UNL     1      53.593   7.647  14.603  0.00  0.00    +0.000 A 
ATOM     25  C   UNL     1      54.197   6.633  15.350  0.00  0.00    +0.000 A 
ATOM     26  C   UNL     1      53.580   6.124  16.503  0.00  0.00    +0.000 A 
ATOM     27  C   UNL     1      52.353   6.664  16.903  0.00  0.00    +0.000 A 
ATOM     28  C   UNL     1      51.743   7.669  16.148  0.00  0.00    +0.000 A 
BRANCH  26  29
ATOM     29  C   UNL     1      54.214   4.989  17.271  0.00  0.00    +0.000 C 
BRANCH  29  30
ATOM     30  N   UNL     1      53.270   4.412  18.224  0.00  0.00    +0.000 NA
ATOM     31  H   UNL     1      52.492   5.059  18.349  0.00  0.00    +0.000 HD
BRANCH  30  32
ATOM     32  C   UNL     1      52.762   3.125  17.756  0.00  0.00    +0.000 C 
BRANCH  32  33
ATOM     33  C   UNL     1      51.259   3.106  17.779  0.00  0.00    +0.000 A 
ATOM     34  C   UNL     1      50.525   2.195  17.013  0.00  0.00    +0.000 A 
ATOM     35  C   UNL     1      49.136   2.199  17.074  0.00  0.00    +0.000 A 
ATOM     36  C   UNL     1      48.521   3.125  17.899  0.00  0.00    +0.000 A 
ATOM     37  N   UNL     1      49.189   4.031  18.644  0.00  0.00    +0.000 NA
ATOM     38  C   UNL     1      50.540   4.000  18.567  0.00  0.00    +0.000 A 
ENDBRANCH  32  33
ENDBRANCH  30  32
ENDBRANCH  29  30
ENDBRANCH  26  29
ENDBRANCH  22  23
ENDBRANCH  20  22
ENDBRANCH   2  20
TORSDOF 9
ENDMDL
MODEL 9
REMARK VINA RESULT:    -6.544      2.268      2.730
REMARK INTER + INTRA:         -11.749
REMARK INTER:                 -10.096
REMARK INTRA:                  -1.653
REMARK UNBOUND:                -1.762
REMARK  Name = 
REMARK  12 active torsions:
REMARK  status: ('A' for Active; 'I' for Inactive)
REMARK    1  A    between atoms: C_1  and  C_2
REMARK    2  A    between atoms: C_2  and  N_3
REMARK    3  A    between atoms: C_2  and  C_20
REMARK    4  A    between atoms: N_3  and  C_4
REMARK    5  A    between atoms: C_4  and  C_5
REMARK    6  A    between atoms: C_8  and  C_9
REMARK    7  A    between atoms: C_9  and  N_10
REMARK    8  A    between atoms: N_10  and  C_11
REMARK    9  A    between atoms: C_11  and  C_12
REMARK   10  A    between atoms: C_23  and  C_24
REMARK   11  A    between atoms: N_26  and  C_27
REMARK   12  A    between atoms: N_26  and  C_28
REMARK                            x       y       z     vdW  Elec       q    Type
REMARK                         _______ _______ _______ _____ _____    ______ ____
ROOT
ATOM      1  C   UNL     1      48.854   8.217  12.443  0.00  0.00    +0.000 C 
ATOM      2  C   UNL     1      48.259   8.760  13.754  0.00  0.00    +0.000 C 
ENDROOT
BRANCH   2   3
ATOM      3  C   UNL     1      49.252   8.439  14.875  0.00  0.00    +0.000 A 
ATOM      4  C   UNL     1      50.402   7.657  14.617  0.00  0.00    +0.000 A 
ATOM      5  C   UNL     1      51.299   7.322  15.643  0.00  0.00    +0.000 A 
ATOM      6  C   UNL     1      51.173   7.945  16.875  0.00  0.00    +0.000 A 
ATOM      7  C   UNL     1      50.280   9.000  16.947  0.00  0.00    +0.000 A 
ATOM      8  C   UNL     1      50.168   9.888  18.104  0.00  0.00    +0.000 A 
ATOM      9  O   UNL     1      50.850  10.877  18.220  0.00  0.00    +0.000 OA
ATOM     10  N   UNL     1      49.071   9.546  18.814  0.00  0.00    +0.000 N 
ATOM     11  C   UNL     1      47.923   9.318  18.115  0.00  0.00    +0.000 A 
ATOM     12  N   UNL     1      47.884   9.226  16.802  0.00  0.00    +0.000 NA
ATOM     13  C   UNL     1      49.140   9.008  16.153  0.00  0.00    +0.000 A 
ATOM     14  H   UNL     1      49.173   9.466  19.819  0.00  0.00    +0.000 HD
BRANCH   6  15
ATOM     15  C   UNL     1      51.686   7.394  18.173  0.00  0.00    +0.000 C 
ATOM     16  O   UNL     1      51.006   6.529  18.720  0.00  0.00    +0.000 OA
ATOM     17  N   UNL     1      52.967   7.716  18.634  0.00  0.00    +0.000 N 
ATOM     18  C   UNL     1      53.882   8.703  18.084  0.00  0.00    +0.000 C 
ATOM     19  C   UNL     1      53.421   7.091  19.873  0.00  0.00    +0.000 C 
ENDBRANCH   6  15
ENDBRANCH   2   3
BRANCH   2  20
ATOM     20  N   UNL     1      46.932   8.153  14.005  0.00  0.00    +0.000 NA
ATOM     21  H   UNL     1      46.518   8.620  14.810  0.00  0.00    +0.000 HD
BRANCH  20  22
ATOM     22  C   UNL     1      46.010   8.283  12.870  0.00  0.00    +0.000 C 
BRANCH  22  23
ATOM     23  C   UNL     1      45.403   6.954  12.477  0.00  0.00    +0.000 A 
ATOM     24  C   UNL     1      44.228   6.895  11.716  0.00  0.00    +0.000 A 
ATOM     25  C   UNL     1      43.658   5.664  11.382  0.00  0.00    +0.000 A 
ATOM     26  C   UNL     1      44.263   4.462  11.778  0.00  0.00    +0.000 A 
ATOM     27  C   UNL     1      45.459   4.516  12.501  0.00  0.00    +0.000 A 
ATOM     28  C   UNL     1      46.022   5.748  12.846  0.00  0.00    +0.000 A 
BRANCH  26  29
ATOM     29  C   UNL     1      43.609   3.137  11.462  0.00  0.00    +0.000 C 
BRANCH  29  30
ATOM     30  N   UNL     1      44.391   2.388  10.484  0.00  0.00    +0.000 NA
ATOM     31  H   UNL     1      43.956   1.476  10.345  0.00  0.00    +0.000 HD
BRANCH  30  32
ATOM     32  C   UNL     1      44.461   3.093   9.207  0.00  0.00    +0.000 C 
BRANCH  32  33
ATOM     33  C   UNL     1      45.583   2.554   8.362  0.00  0.00    +0.000 A 
ATOM     34  C   UNL     1      46.292   3.372   7.477  0.00  0.00    +0.000 A 
ATOM     35  C   UNL     1      47.333   2.840   6.724  0.00  0.00    +0.000 A 
ATOM     36  C   UNL     1      47.628   1.496   6.876  0.00  0.00    +0.000 A 
ATOM     37  N   UNL     1      46.960   0.667   7.707  0.00  0.00    +0.000 NA
ATOM     38  C   UNL     1      45.955   1.215   8.429  0.00  0.00    +0.000 A 
ENDBRANCH  32  33
ENDBRANCH  30  32
ENDBRANCH  29  30
ENDBRANCH  26  29
ENDBRANCH  22  23
ENDBRANCH  20  22
ENDBRANCH   2  20
TORSDOF 9
ENDMDL
