MODEL 1
REMARK VINA RESULT:    -7.721      0.000      0.000
REMARK INTER + INTRA:         -13.132
REMARK INTER:                 -11.784
REMARK INTRA:                  -1.348
REMARK UNBOUND:                -1.348
REMARK  Name = 
REMARK  11 active torsions:
REMARK  status: ('A' for Active; 'I' for Inactive)
REMARK    1  A    between atoms: C_1  and  C_2
REMARK    2  A    between atoms: C_2  and  C_3
REMARK    3  A    between atoms: C_2  and  O_4
REMARK    4  A    between atoms: O_4  and  C_5
REMARK    5  A    between atoms: C_7  and  C_8
REMARK    6  A    between atoms: C_8  and  C_9
REMARK    7  A    between atoms: C_9  and  O_10
REMARK    8  A    between atoms: O_10  and  C_11
REMARK    9  A    between atoms: C_14  and  C_15
REMARK   10  A    between atoms: C_23  and  N_24
REMARK   11  A    between atoms: N_24  and  C_25
REMARK                            x       y       z     vdW  Elec       q    Type
REMARK                         _______ _______ _______ _____ _____    ______ ____
ROOT
ATOM      1  C   UNL     1      47.058   5.080  13.959  0.00  0.00    +0.000 A 
ATOM      2  C   UNL     1      45.757   4.620  13.682  0.00  0.00    +0.000 A 
ATOM      3  C   UNL     1      44.983   5.165  12.648  0.00  0.00    +0.000 A 
ATOM      4  C   UNL     1      45.524   6.230  11.921  0.00  0.00    +0.000 A 
ATOM      5  C   UNL     1      46.807   6.696  12.185  0.00  0.00    +0.000 A 
ATOM      6  F   UNL     1      47.251   7.729  11.451  0.00  0.00    +0.000 F 
ATOM      7  C   UNL     1      47.607   6.139  13.192  0.00  0.00    +0.000 A 
ENDROOT
BRANCH   7   8
ATOM      8  N   UNL     1      48.962   6.523  13.344  0.00  0.00    +0.000 N 
ATOM      9  H   UNL     1      49.612   5.740  13.333  0.00  0.00    +0.000 HD
BRANCH   8  10
ATOM     10  C   UNL     1      49.454   7.797  13.796  0.00  0.00    +0.000 C 
ATOM     11  C   UNL     1      50.535   7.669  14.886  0.00  0.00    +0.000 C 
ATOM     12  N   UNL     1      49.813   8.643  15.723  0.00  0.00    +0.000 NA
ATOM     13  C   UNL     1      48.612   8.502  14.873  0.00  0.00    +0.000 C 
ATOM     14  H   UNL     1      50.221   9.578  15.699  0.00  0.00    +0.000 HD
ENDBRANCH   8  10
ENDBRANCH   7   8
BRANCH   1  15
ATOM     15  O   UNL     1      47.871   4.527  14.927  0.00  0.00    +0.000 OA
BRANCH  15  17
ATOM     16  C   UNL     1      47.380   3.281  16.922  0.00  0.00    +0.000 C 
ATOM     17  C   UNL     1      47.506   4.673  16.310  0.00  0.00    +0.000 C 
ATOM     18  C   UNL     1      48.575   5.478  17.047  0.00  0.00    +0.000 C 
ENDBRANCH  15  17
ENDBRANCH   1  15
BRANCH   3  19
ATOM     19  C   UNL     1      43.623   4.553  12.355  0.00  0.00    +0.000 C 
BRANCH  19  20
ATOM     20  C   UNL     1      43.645   3.592  11.174  0.00  0.00    +0.000 C 
BRANCH  20  21
ATOM     21  O   UNL     1      43.699   4.252   9.906  0.00  0.00    +0.000 OA
BRANCH  21  22
ATOM     22  C   UNL     1      44.669   3.647   9.120  0.00  0.00    +0.000 A 
ATOM     23  C   UNL     1      44.886   2.291   9.274  0.00  0.00    +0.000 A 
ATOM     24  C   UNL     1      45.843   1.683   8.455  0.00  0.00    +0.000 A 
ATOM     25  C   UNL     1      46.547   2.445   7.508  0.00  0.00    +0.000 A 
ATOM     26  C   UNL     1      46.264   3.796   7.450  0.00  0.00    +0.000 A 
ATOM     27  N   UNL     1      45.346   4.408   8.231  0.00  0.00    +0.000 NA
BRANCH  25  28
ATOM     28  C   UNL     1      47.550   1.795   6.633  0.00  0.00    +0.000 C 
ATOM     29  N   UNL     1      48.725   2.446   6.372  0.00  0.00    +0.000 N 
ATOM     30  O   UNL     1      47.345   0.687   6.151  0.00  0.00    +0.000 OA
ATOM     31  H   UNL     1      49.002   3.353   6.709  0.00  0.00    +0.000 HD
ATOM     32  H   UNL     1      49.375   1.970   5.759  0.00  0.00    +0.000 HD
ENDBRANCH  25  28
ENDBRANCH  21  22
ENDBRANCH  20  21
ENDBRANCH  19  20
ENDBRANCH   3  19
TORSDOF 9
ENDMDL
MODEL 2
REMARK VINA RESULT:    -7.137      1.728      2.937
REMARK INTER + INTRA:         -12.241
REMARK INTER:                 -10.922
REMARK INTRA:                  -1.319
REMARK UNBOUND:                -1.348
REMARK  Name = 
REMARK  11 active torsions:
REMARK  status: ('A' for Active; 'I' for Inactive)
REMARK    1  A    between atoms: C_1  and  C_2
REMARK    2  A    between atoms: C_2  and  C_3
REMARK    3  A    between atoms: C_2  and  O_4
REMARK    4  A    between atoms: O_4  and  C_5
REMARK    5  A    between atoms: C_7  and  C_8
REMARK    6  A    between atoms: C_8  and  C_9
REMARK    7  A    between atoms: C_9  and  O_10
REMARK    8  A    between atoms: O_10  and  C_11
REMARK    9  A    between atoms: C_14  and  C_15
REMARK   10  A    between atoms: C_23  and  N_24
REMARK   11  A    between atoms: N_24  and  C_25
REMARK                            x       y       z     vdW  Elec       q    Type
REMARK                         _______ _______ _______ _____ _____    ______ ____
ROOT
ATOM      1  C   UNL     1      46.684   6.945  12.581  0.00  0.00    +0.000 A 
ATOM      2  C   UNL     1      45.387   6.578  12.176  0.00  0.00    +0.000 A 
ATOM      3  C   UNL     1      44.752   5.432  12.673  0.00  0.00    +0.000 A 
ATOM      4  C   UNL     1      45.470   4.620  13.556  0.00  0.00    +0.000 A 
ATOM      5  C   UNL     1      46.754   4.968  13.962  0.00  0.00    +0.000 A 
ATOM      6  F   UNL     1      47.382   4.131  14.803  0.00  0.00    +0.000 F 
ATOM      7  C   UNL     1      47.390   6.129  13.502  0.00  0.00    +0.000 A 
ENDROOT
BRANCH   7   8
ATOM      8  N   UNL     1      48.631   6.546  14.043  0.00  0.00    +0.000 N 
ATOM      9  H   UNL     1      49.433   6.066  13.641  0.00  0.00    +0.000 HD
BRANCH   8  10
ATOM     10  C   UNL     1      48.837   7.306  15.247  0.00  0.00    +0.000 C 
ATOM     11  C   UNL     1      50.276   7.839  15.379  0.00  0.00    +0.000 C 
ATOM     12  N   UNL     1      50.351   7.308  16.752  0.00  0.00    +0.000 NA
ATOM     13  C   UNL     1      49.142   6.491  16.515  0.00  0.00    +0.000 C 
ATOM     14  H   UNL     1      50.226   8.023  17.469  0.00  0.00    +0.000 HD
ENDBRANCH   8  10
ENDBRANCH   7   8
BRANCH   1  15
ATOM     15  O   UNL     1      47.316   8.096  12.160  0.00  0.00    +0.000 OA
BRANCH  15  17
ATOM     16  C   UNL     1      48.169  10.209  12.926  0.00  0.00    +0.000 C 
ATOM     17  C   UNL     1      46.919   9.357  12.725  0.00  0.00    +0.000 C 
ATOM     18  C   UNL     1      45.944  10.064  11.785  0.00  0.00    +0.000 C 
ENDBRANCH  15  17
ENDBRANCH   1  15
BRANCH   3  19
ATOM     19  C   UNL     1      43.317   5.154  12.255  0.00  0.00    +0.000 C 
BRANCH  19  20
ATOM     20  C   UNL     1      43.218   4.227  11.050  0.00  0.00    +0.000 C 
BRANCH  20  21
ATOM     21  O   UNL     1      43.597   4.852   9.821  0.00  0.00    +0.000 OA
BRANCH  21  22
ATOM     22  C   UNL     1      44.543   4.062   9.183  0.00  0.00    +0.000 A 
ATOM     23  C   UNL     1      44.559   2.708   9.458  0.00  0.00    +0.000 A 
ATOM     24  C   UNL     1      45.493   1.914   8.784  0.00  0.00    +0.000 A 
ATOM     25  C   UNL     1      46.376   2.495   7.859  0.00  0.00    +0.000 A 
ATOM     26  C   UNL     1      46.285   3.861   7.674  0.00  0.00    +0.000 A 
ATOM     27  N   UNL     1      45.393   4.650   8.312  0.00  0.00    +0.000 NA
BRANCH  25  28
ATOM     28  C   UNL     1      47.355   1.648   7.139  0.00  0.00    +0.000 C 
ATOM     29  N   UNL     1      48.421   2.244   6.522  0.00  0.00    +0.000 N 
ATOM     30  O   UNL     1      47.227   0.430   7.097  0.00  0.00    +0.000 OA
ATOM     31  H   UNL     1      48.628   3.229   6.489  0.00  0.00    +0.000 HD
ATOM     32  H   UNL     1      49.057   1.628   6.031  0.00  0.00    +0.000 HD
ENDBRANCH  25  28
ENDBRANCH  21  22
ENDBRANCH  20  21
ENDBRANCH  19  20
ENDBRANCH   3  19
TORSDOF 9
ENDMDL
MODEL 3
REMARK VINA RESULT:    -6.956      2.318      3.598
REMARK INTER + INTRA:         -11.964
REMARK INTER:                 -10.639
REMARK INTRA:                  -1.325
REMARK UNBOUND:                -1.348
REMARK  Name = 
REMARK  11 active torsions:
REMARK  status: ('A' for Active; 'I' for Inactive)
REMARK    1  A    between atoms: C_1  and  C_2
REMARK    2  A    between atoms: C_2  and  C_3
REMARK    3  A    between atoms: C_2  and  O_4
REMARK    4  A    between atoms: O_4  and  C_5
REMARK    5  A    between atoms: C_7  and  C_8
REMARK    6  A    between atoms: C_8  and  C_9
REMARK    7  A    between atoms: C_9  and  O_10
REMARK    8  A    between atoms: O_10  and  C_11
REMARK    9  A    between atoms: C_14  and  C_15
REMARK   10  A    between atoms: C_23  and  N_24
REMARK   11  A    between atoms: N_24  and  C_25
REMARK                            x       y       z     vdW  Elec       q    Type
REMARK                         _______ _______ _______ _____ _____    ______ ____
ROOT
ATOM      1  C   UNL     1      45.509   7.448  11.861  0.00  0.00    +0.000 A 
ATOM      2  C   UNL     1      44.536   6.432  11.904  0.00  0.00    +0.000 A 
ATOM      3  C   UNL     1      44.707   5.277  12.680  0.00  0.00    +0.000 A 
ATOM      4  C   UNL     1      45.909   5.132  13.379  0.00  0.00    +0.000 A 
ATOM      5  C   UNL     1      46.880   6.127  13.342  0.00  0.00    +0.000 A 
ATOM      6  F   UNL     1      48.012   5.910  14.032  0.00  0.00    +0.000 F 
ATOM      7  C   UNL     1      46.711   7.304  12.600  0.00  0.00    +0.000 A 
ENDROOT
BRANCH   7   8
ATOM      8  N   UNL     1      47.639   8.369  12.698  0.00  0.00    +0.000 N 
ATOM      9  H   UNL     1      47.368   9.088  13.364  0.00  0.00    +0.000 HD
BRANCH   8  10
ATOM     10  C   UNL     1      48.706   8.672  11.780  0.00  0.00    +0.000 C 
ATOM     11  C   UNL     1      49.854   7.648  11.839  0.00  0.00    +0.000 C 
ATOM     12  N   UNL     1      50.832   8.744  11.959  0.00  0.00    +0.000 NA
ATOM     13  C   UNL     1      49.744   9.696  12.269  0.00  0.00    +0.000 C 
ATOM     14  H   UNL     1      51.317   8.950  11.085  0.00  0.00    +0.000 HD
ENDBRANCH   8  10
ENDBRANCH   7   8
BRANCH   1  15
ATOM     15  O   UNL     1      45.350   8.625  11.158  0.00  0.00    +0.000 OA
BRANCH  15  17
ATOM     16  C   UNL     1      45.221  10.947  11.764  0.00  0.00    +0.000 C 
ATOM     17  C   UNL     1      44.458   9.628  11.671  0.00  0.00    +0.000 C 
ATOM     18  C   UNL     1      43.255   9.780  10.741  0.00  0.00    +0.000 C 
ENDBRANCH  15  17
ENDBRANCH   1  15
BRANCH   3  19
ATOM     19  C   UNL     1      43.572   4.268  12.744  0.00  0.00    +0.000 C 
BRANCH  19  20
ATOM     20  C   UNL     1      43.704   3.157  11.710  0.00  0.00    +0.000 C 
BRANCH  20  21
ATOM     21  O   UNL     1      43.307   3.556  10.396  0.00  0.00    +0.000 OA
BRANCH  21  22
ATOM     22  C   UNL     1      44.338   3.286   9.507  0.00  0.00    +0.000 A 
ATOM     23  C   UNL     1      44.757   1.976   9.369  0.00  0.00    +0.000 A 
ATOM     24  C   UNL     1      45.775   1.708   8.447  0.00  0.00    +0.000 A 
ATOM     25  C   UNL     1      46.336   2.752   7.693  0.00  0.00    +0.000 A 
ATOM     26  C   UNL     1      45.855   4.026   7.924  0.00  0.00    +0.000 A 
ATOM     27  N   UNL     1      44.874   4.312   8.809  0.00  0.00    +0.000 NA
BRANCH  25  28
ATOM     28  C   UNL     1      47.404   2.461   6.709  0.00  0.00    +0.000 C 
ATOM     29  N   UNL     1      47.411   3.135   5.518  0.00  0.00    +0.000 N 
ATOM     30  O   UNL     1      48.279   1.638   6.951  0.00  0.00    +0.000 OA
ATOM     31  H   UNL     1      46.748   3.828   5.211  0.00  0.00    +0.000 HD
ATOM     32  H   UNL     1      48.152   2.895   4.871  0.00  0.00    +0.000 HD
ENDBRANCH  25  28
ENDBRANCH  21  22
ENDBRANCH  20  21
ENDBRANCH  19  20
ENDBRANCH   3  19
TORSDOF 9
ENDMDL
MODEL 4
REMARK VINA RESULT:    -6.510      2.970      4.342
REMARK INTER + INTRA:         -11.284
REMARK INTER:                 -10.197
REMARK INTRA:                  -1.087
REMARK UNBOUND:                -1.348
REMARK  Name = 
REMARK  11 active torsions:
REMARK  status: ('A' for Active; 'I' for Inactive)
REMARK    1  A    between atoms: C_1  and  C_2
REMARK    2  A    between atoms: C_2  and  C_3
REMARK    3  A    between atoms: C_2  and  O_4
REMARK    4  A    between atoms: O_4  and  C_5
REMARK    5  A    between atoms: C_7  and  C_8
REMARK    6  A    between atoms: C_8  and  C_9
REMARK    7  A    between atoms: C_9  and  O_10
REMARK    8  A    between atoms: O_10  and  C_11
REMARK    9  A    between atoms: C_14  and  C_15
REMARK   10  A    between atoms: C_23  and  N_24
REMARK   11  A    between atoms: N_24  and  C_25
REMARK                            x       y       z     vdW  Elec       q    Type
REMARK                         _______ _______ _______ _____ _____    ______ ____
ROOT
ATOM      1  C   UNL     1      45.074   8.759  11.952  0.00  0.00    +0.000 A 
ATOM      2  C   UNL     1      44.283   7.625  11.687  0.00  0.00    +0.000 A 
ATOM      3  C   UNL     1      44.729   6.328  11.972  0.00  0.00    +0.000 A 
ATOM      4  C   UNL     1      46.022   6.181  12.484  0.00  0.00    +0.000 A 
ATOM      5  C   UNL     1      46.815   7.292  12.748  0.00  0.00    +0.000 A 
ATOM      6  F   UNL     1      48.049   7.068  13.229  0.00  0.00    +0.000 F 
ATOM      7  C   UNL     1      46.371   8.598  12.502  0.00  0.00    +0.000 A 
ENDROOT
BRANCH   7   8
ATOM      8  N   UNL     1      47.131   9.719  12.918  0.00  0.00    +0.000 N 
ATOM      9  H   UNL     1      46.760  10.179  13.745  0.00  0.00    +0.000 HD
BRANCH   8  10
ATOM     10  C   UNL     1      48.133  10.415  12.155  0.00  0.00    +0.000 C 
ATOM     11  C   UNL     1      48.968  11.386  13.009  0.00  0.00    +0.000 C 
ATOM     12  N   UNL     1      48.736  12.458  12.025  0.00  0.00    +0.000 NA
ATOM     13  C   UNL     1      47.656  11.667  11.399  0.00  0.00    +0.000 C 
ATOM     14  H   UNL     1      49.533  12.620  11.409  0.00  0.00    +0.000 HD
ENDBRANCH   8  10
ENDBRANCH   7   8
BRANCH   1  15
ATOM     15  O   UNL     1      44.644  10.053  11.741  0.00  0.00    +0.000 OA
BRANCH  15  17
ATOM     16  C   UNL     1      42.541  11.174  11.432  0.00  0.00    +0.000 C 
ATOM     17  C   UNL     1      43.604  10.294  10.779  0.00  0.00    +0.000 C 
ATOM     18  C   UNL     1      44.184  10.993   9.551  0.00  0.00    +0.000 C 
ENDBRANCH  15  17
ENDBRANCH   1  15
BRANCH   3  19
ATOM     19  C   UNL     1      43.781   5.162  11.741  0.00  0.00    +0.000 C 
BRANCH  19  20
ATOM     20  C   UNL     1      43.725   4.720  10.285  0.00  0.00    +0.000 C 
BRANCH  20  21
ATOM     21  O   UNL     1      43.718   3.299  10.123  0.00  0.00    +0.000 OA
BRANCH  21  22
ATOM     22  C   UNL     1      44.670   2.944   9.178  0.00  0.00    +0.000 A 
ATOM     23  C   UNL     1      45.189   3.935   8.366  0.00  0.00    +0.000 A 
ATOM     24  C   UNL     1      46.172   3.574   7.439  0.00  0.00    +0.000 A 
ATOM     25  C   UNL     1      46.607   2.241   7.355  0.00  0.00    +0.000 A 
ATOM     26  C   UNL     1      46.008   1.328   8.202  0.00  0.00    +0.000 A 
ATOM     27  N   UNL     1      45.056   1.651   9.105  0.00  0.00    +0.000 NA
BRANCH  25  28
ATOM     28  C   UNL     1      47.658   1.866   6.381  0.00  0.00    +0.000 C 
ATOM     29  N   UNL     1      48.795   2.623   6.306  0.00  0.00    +0.000 N 
ATOM     30  O   UNL     1      47.525   0.890   5.652  0.00  0.00    +0.000 OA
ATOM     31  H   UNL     1      49.014   3.442   6.850  0.00  0.00    +0.000 HD
ATOM     32  H   UNL     1      49.480   2.338   5.617  0.00  0.00    +0.000 HD
ENDBRANCH  25  28
ENDBRANCH  21  22
ENDBRANCH  20  21
ENDBRANCH  19  20
ENDBRANCH   3  19
TORSDOF 9
ENDMDL
MODEL 5
REMARK VINA RESULT:    -6.095      2.410      2.986
REMARK INTER + INTRA:         -10.650
REMARK INTER:                 -10.190
REMARK INTRA:                  -0.459
REMARK UNBOUND:                -1.348
REMARK  Name = 
REMARK  11 active torsions:
REMARK  status: ('A' for Active; 'I' for Inactive)
REMARK    1  A    between atoms: C_1  and  C_2
REMARK    2  A    between atoms: C_2  and  C_3
REMARK    3  A    between atoms: C_2  and  O_4
REMARK    4  A    between atoms: O_4  and  C_5
REMARK    5  A    between atoms: C_7  and  C_8
REMARK    6  A    between atoms: C_8  and  C_9
REMARK    7  A    between atoms: C_9  and  O_10
REMARK    8  A    between atoms: O_10  and  C_11
REMARK    9  A    between atoms: C_14  and  C_15
REMARK   10  A    between atoms: C_23  and  N_24
REMARK   11  A    between atoms: N_24  and  C_25
REMARK                            x       y       z     vdW  Elec       q    Type
REMARK                         _______ _______ _______ _____ _____    ______ ____
ROOT
ATOM      1  C   UNL     1      47.709   7.752  12.790  0.00  0.00    +0.000 A 
ATOM      2  C   UNL     1      47.265   6.449  12.492  0.00  0.00    +0.000 A 
ATOM      3  C   UNL     1      45.930   6.179  12.164  0.00  0.00    +0.000 A 
ATOM      4  C   UNL     1      45.023   7.243  12.192  0.00  0.00    +0.000 A 
ATOM      5  C   UNL     1      45.447   8.534  12.487  0.00  0.00    +0.000 A 
ATOM      6  F   UNL     1      44.514   9.499  12.505  0.00  0.00    +0.000 F 
ATOM      7  C   UNL     1      46.784   8.828  12.783  0.00  0.00    +0.000 A 
ENDROOT
BRANCH   7   8
ATOM      8  N   UNL     1      47.223  10.166  12.930  0.00  0.00    +0.000 N 
ATOM      9  H   UNL     1      47.240  10.487  13.895  0.00  0.00    +0.000 HD
BRANCH   8  10
ATOM     10  C   UNL     1      47.342  11.156  11.892  0.00  0.00    +0.000 C 
ATOM     11  C   UNL     1      48.610  10.977  11.037  0.00  0.00    +0.000 C 
ATOM     12  N   UNL     1      48.937  12.403  11.215  0.00  0.00    +0.000 NA
ATOM     13  C   UNL     1      47.951  12.504  12.312  0.00  0.00    +0.000 C 
ATOM     14  H   UNL     1      48.704  12.975  10.404  0.00  0.00    +0.000 HD
ENDBRANCH   8  10
ENDBRANCH   7   8
BRANCH   1  15
ATOM     15  O   UNL     1      49.025   8.065  13.057  0.00  0.00    +0.000 OA
BRANCH  15  17
ATOM     16  C   UNL     1      48.871   6.901  15.154  0.00  0.00    +0.000 C 
ATOM     17  C   UNL     1      49.470   8.099  14.423  0.00  0.00    +0.000 C 
ATOM     18  C   UNL     1      50.996   8.038  14.474  0.00  0.00    +0.000 C 
ENDBRANCH  15  17
ENDBRANCH   1  15
BRANCH   3  19
ATOM     19  C   UNL     1      45.549   4.761  11.767  0.00  0.00    +0.000 C 
BRANCH  19  20
ATOM     20  C   UNL     1      44.087   4.630  11.362  0.00  0.00    +0.000 C 
BRANCH  20  21
ATOM     21  O   UNL     1      43.866   4.821   9.962  0.00  0.00    +0.000 OA
BRANCH  21  22
ATOM     22  C   UNL     1      44.741   4.013   9.250  0.00  0.00    +0.000 A 
ATOM     23  C   UNL     1      44.706   2.650   9.477  0.00  0.00    +0.000 A 
ATOM     24  C   UNL     1      45.568   1.839   8.730  0.00  0.00    +0.000 A 
ATOM     25  C   UNL     1      46.430   2.413   7.782  0.00  0.00    +0.000 A 
ATOM     26  C   UNL     1      46.396   3.788   7.648  0.00  0.00    +0.000 A 
ATOM     27  N   UNL     1      45.574   4.593   8.358  0.00  0.00    +0.000 NA
BRANCH  25  28
ATOM     28  C   UNL     1      47.332   1.549   6.985  0.00  0.00    +0.000 C 
ATOM     29  N   UNL     1      48.481   2.085   6.470  0.00  0.00    +0.000 N 
ATOM     30  O   UNL     1      47.067   0.369   6.789  0.00  0.00    +0.000 OA
ATOM     31  H   UNL     1      48.801   3.035   6.564  0.00  0.00    +0.000 HD
ATOM     32  H   UNL     1      49.060   1.462   5.921  0.00  0.00    +0.000 HD
ENDBRANCH  25  28
ENDBRANCH  21  22
ENDBRANCH  20  21
ENDBRANCH  19  20
ENDBRANCH   3  19
TORSDOF 9
ENDMDL
MODEL 6
REMARK VINA RESULT:    -6.006      3.906      8.025
REMARK INTER + INTRA:         -10.515
REMARK INTER:                  -9.380
REMARK INTRA:                  -1.135
REMARK UNBOUND:                -1.348
REMARK  Name = 
REMARK  11 active torsions:
REMARK  status: ('A' for Active; 'I' for Inactive)
REMARK    1  A    between atoms: C_1  and  C_2
REMARK    2  A    between atoms: C_2  and  C_3
REMARK    3  A    between atoms: C_2  and  O_4
REMARK    4  A    between atoms: O_4  and  C_5
REMARK    5  A    between atoms: C_7  and  C_8
REMARK    6  A    between atoms: C_8  and  C_9
REMARK    7  A    between atoms: C_9  and  O_10
REMARK    8  A    between atoms: O_10  and  C_11
REMARK    9  A    between atoms: C_14  and  C_15
REMARK   10  A    between atoms: C_23  and  N_24
REMARK   11  A    between atoms: N_24  and  C_25
REMARK                            x       y       z     vdW  Elec       q    Type
REMARK                         _______ _______ _______ _____ _____    ______ ____
ROOT
ATOM      1  C   UNL     1      45.444   8.606  12.011  0.00  0.00    +0.000 A 
ATOM      2  C   UNL     1      46.732   8.986  12.434  0.00  0.00    +0.000 A 
ATOM      3  C   UNL     1      47.821   8.106  12.373  0.00  0.00    +0.000 A 
ATOM      4  C   UNL     1      47.582   6.803  11.925  0.00  0.00    +0.000 A 
ATOM      5  C   UNL     1      46.315   6.414  11.506  0.00  0.00    +0.000 A 
ATOM      6  F   UNL     1      46.164   5.143  11.099  0.00  0.00    +0.000 F 
ATOM      7  C   UNL     1      45.223   7.291  11.527  0.00  0.00    +0.000 A 
ENDROOT
BRANCH   7   8
ATOM      8  N   UNL     1      43.980   6.925  10.955  0.00  0.00    +0.000 N 
ATOM      9  H   UNL     1      43.673   7.547  10.211  0.00  0.00    +0.000 HD
BRANCH   8  10
ATOM     10  C   UNL     1      43.018   6.002  11.497  0.00  0.00    +0.000 C 
ATOM     11  C   UNL     1      43.407   5.483  12.894  0.00  0.00    +0.000 C 
ATOM     12  N   UNL     1      43.171   4.098  12.450  0.00  0.00    +0.000 NA
ATOM     13  C   UNL     1      43.154   4.540  11.040  0.00  0.00    +0.000 C 
ATOM     14  H   UNL     1      42.280   3.718  12.769  0.00  0.00    +0.000 HD
ENDBRANCH   8  10
ENDBRANCH   7   8
BRANCH   1  15
ATOM     15  O   UNL     1      44.363   9.463  11.999  0.00  0.00    +0.000 OA
BRANCH  15  17
ATOM     16  C   UNL     1      42.784  10.302  10.393  0.00  0.00    +0.000 C 
ATOM     17  C   UNL     1      44.218  10.388  10.908  0.00  0.00    +0.000 C 
ATOM     18  C   UNL     1      44.523  11.807  11.386  0.00  0.00    +0.000 C 
ENDBRANCH  15  17
ENDBRANCH   1  15
BRANCH   3  19
ATOM     19  C   UNL     1      49.197   8.620  12.765  0.00  0.00    +0.000 C 
BRANCH  19  20
ATOM     20  C   UNL     1      49.795   7.874  13.950  0.00  0.00    +0.000 C 
BRANCH  20  21
ATOM     21  O   UNL     1      49.185   8.212  15.199  0.00  0.00    +0.000 OA
BRANCH  21  22
ATOM     22  C   UNL     1      48.815   7.046  15.854  0.00  0.00    +0.000 A 
ATOM     23  C   UNL     1      48.828   7.039  17.236  0.00  0.00    +0.000 A 
ATOM     24  C   UNL     1      48.422   5.870  17.889  0.00  0.00    +0.000 A 
ATOM     25  C   UNL     1      48.014   4.752  17.143  0.00  0.00    +0.000 A 
ATOM     26  C   UNL     1      48.057   4.862  15.767  0.00  0.00    +0.000 A 
ATOM     27  N   UNL     1      48.447   5.978  15.113  0.00  0.00    +0.000 NA
BRANCH  25  28
ATOM     28  C   UNL     1      47.572   3.521  17.839  0.00  0.00    +0.000 C 
ATOM     29  N   UNL     1      48.279   3.082  18.925  0.00  0.00    +0.000 N 
ATOM     30  O   UNL     1      46.586   2.900  17.461  0.00  0.00    +0.000 OA
ATOM     31  H   UNL     1      49.101   3.506  19.324  0.00  0.00    +0.000 HD
ATOM     32  H   UNL     1      47.950   2.230  19.361  0.00  0.00    +0.000 HD
ENDBRANCH  25  28
ENDBRANCH  21  22
ENDBRANCH  20  21
ENDBRANCH  19  20
ENDBRANCH   3  19
TORSDOF 9
ENDMDL
MODEL 7
REMARK VINA RESULT:    -5.606      3.743      7.838
REMARK INTER + INTRA:          -9.904
REMARK INTER:                  -8.655
REMARK INTRA:                  -1.250
REMARK UNBOUND:                -1.348
REMARK  Name = 
REMARK  11 active torsions:
REMARK  status: ('A' for Active; 'I' for Inactive)
REMARK    1  A    between atoms: C_1  and  C_2
REMARK    2  A    between atoms: C_2  and  C_3
REMARK    3  A    between atoms: C_2  and  O_4
REMARK    4  A    between atoms: O_4  and  C_5
REMARK    5  A    between atoms: C_7  and  C_8
REMARK    6  A    between atoms: C_8  and  C_9
REMARK    7  A    between atoms: C_9  and  O_10
REMARK    8  A    between atoms: O_10  and  C_11
REMARK    9  A    between atoms: C_14  and  C_15
REMARK   10  A    between atoms: C_23  and  N_24
REMARK   11  A    between atoms: N_24  and  C_25
REMARK                            x       y       z     vdW  Elec       q    Type
REMARK                         _______ _______ _______ _____ _____    ______ ____
ROOT
ATOM      1  C   UNL     1      45.666   8.338  11.997  0.00  0.00    +0.000 A 
ATOM      2  C   UNL     1      47.062   8.235  12.154  0.00  0.00    +0.000 A 
ATOM      3  C   UNL     1      47.892   9.364  12.146  0.00  0.00    +0.000 A 
ATOM      4  C   UNL     1      47.297  10.610  11.922  0.00  0.00    +0.000 A 
ATOM      5  C   UNL     1      45.921  10.725  11.763  0.00  0.00    +0.000 A 
ATOM      6  F   UNL     1      45.427  11.954  11.541  0.00  0.00    +0.000 F 
ATOM      7  C   UNL     1      45.072   9.611  11.803  0.00  0.00    +0.000 A 
ENDROOT
BRANCH   7   8
ATOM      8  N   UNL     1      43.664   9.764  11.792  0.00  0.00    +0.000 N 
ATOM      9  H   UNL     1      43.243   9.736  12.718  0.00  0.00    +0.000 HD
BRANCH   8  10
ATOM     10  C   UNL     1      42.791   9.651  10.654  0.00  0.00    +0.000 C 
ATOM     11  C   UNL     1      43.076  10.710   9.573  0.00  0.00    +0.000 C 
ATOM     12  N   UNL     1      41.644  11.054   9.526  0.00  0.00    +0.000 NA
ATOM     13  C   UNL     1      41.414  10.323  10.790  0.00  0.00    +0.000 C 
ATOM     14  H   UNL     1      41.157  10.648   8.727  0.00  0.00    +0.000 HD
ENDBRANCH   8  10
ENDBRANCH   7   8
BRANCH   1  15
ATOM     15  O   UNL     1      44.812   7.256  12.060  0.00  0.00    +0.000 OA
BRANCH  15  17
ATOM     16  C   UNL     1      44.602   5.071  13.038  0.00  0.00    +0.000 C 
ATOM     17  C   UNL     1      45.363   5.929  12.032  0.00  0.00    +0.000 C 
ATOM     18  C   UNL     1      45.229   5.341  10.629  0.00  0.00    +0.000 C 
ENDBRANCH  15  17
ENDBRANCH   1  15
BRANCH   3  19
ATOM     19  C   UNL     1      49.377   9.179  12.412  0.00  0.00    +0.000 C 
BRANCH  19  20
ATOM     20  C   UNL     1      49.725   7.777  12.895  0.00  0.00    +0.000 C 
BRANCH  20  21
ATOM     21  O   UNL     1      50.307   7.756  14.202  0.00  0.00    +0.000 OA
BRANCH  21  22
ATOM     22  C   UNL     1      49.589   6.882  15.005  0.00  0.00    +0.000 A 
ATOM     23  C   UNL     1      49.912   6.808  16.347  0.00  0.00    +0.000 A 
ATOM     24  C   UNL     1      49.161   5.949  17.156  0.00  0.00    +0.000 A 
ATOM     25  C   UNL     1      48.113   5.196  16.602  0.00  0.00    +0.000 A 
ATOM     26  C   UNL     1      47.888   5.332  15.245  0.00  0.00    +0.000 A 
ATOM     27  N   UNL     1      48.599   6.153  14.442  0.00  0.00    +0.000 NA
BRANCH  25  28
ATOM     28  C   UNL     1      47.313   4.296  17.464  0.00  0.00    +0.000 C 
ATOM     29  N   UNL     1      47.392   4.436  18.823  0.00  0.00    +0.000 N 
ATOM     30  O   UNL     1      46.580   3.442  16.979  0.00  0.00    +0.000 OA
ATOM     31  H   UNL     1      47.956   5.097  19.332  0.00  0.00    +0.000 HD
ATOM     32  H   UNL     1      46.838   3.791  19.374  0.00  0.00    +0.000 HD
ENDBRANCH  25  28
ENDBRANCH  21  22
ENDBRANCH  20  21
ENDBRANCH  19  20
ENDBRANCH   3  19
TORSDOF 9
ENDMDL
MODEL 8
REMARK VINA RESULT:    -5.508      3.585      5.581
REMARK INTER + INTRA:          -9.755
REMARK INTER:                  -8.548
REMARK INTRA:                  -1.208
REMARK UNBOUND:                -1.348
REMARK  Name = 
REMARK  11 active torsions:
REMARK  status: ('A' for Active; 'I' for Inactive)
REMARK    1  A    between atoms: C_1  and  C_2
REMARK    2  A    between atoms: C_2  and  C_3
REMARK    3  A    between atoms: C_2  and  O_4
REMARK    4  A    between atoms: O_4  and  C_5
REMARK    5  A    between atoms: C_7  and  C_8
REMARK    6  A    between atoms: C_8  and  C_9
REMARK    7  A    between atoms: C_9  and  O_10
REMARK    8  A    between atoms: O_10  and  C_11
REMARK    9  A    between atoms: C_14  and  C_15
REMARK   10  A    between atoms: C_23  and  N_24
REMARK   11  A    between atoms: N_24  and  C_25
REMARK                            x       y       z     vdW  Elec       q    Type
REMARK                         _______ _______ _______ _____ _____    ______ ____
ROOT
ATOM      1  C   UNL     1      48.985   6.208  16.613  0.00  0.00    +0.000 A 
ATOM      2  C   UNL     1      48.808   6.893  15.396  0.00  0.00    +0.000 A 
ATOM      3  C   UNL     1      48.480   8.255  15.354  0.00  0.00    +0.000 A 
ATOM      4  C   UNL     1      48.276   8.914  16.570  0.00  0.00    +0.000 A 
ATOM      5  C   UNL     1      48.444   8.249  17.779  0.00  0.00    +0.000 A 
ATOM      6  F   UNL     1      48.220   8.948  18.904  0.00  0.00    +0.000 F 
ATOM      7  C   UNL     1      48.807   6.897  17.840  0.00  0.00    +0.000 A 
ENDROOT
BRANCH   7   8
ATOM      8  N   UNL     1      49.122   6.279  19.075  0.00  0.00    +0.000 N 
ATOM      9  H   UNL     1      50.108   6.052  19.178  0.00  0.00    +0.000 HD
BRANCH   8  10
ATOM     10  C   UNL     1      48.197   5.695  20.010  0.00  0.00    +0.000 C 
ATOM     11  C   UNL     1      48.259   6.350  21.402  0.00  0.00    +0.000 C 
ATOM     12  N   UNL     1      48.365   5.020  22.028  0.00  0.00    +0.000 NA
ATOM     13  C   UNL     1      48.671   4.413  20.716  0.00  0.00    +0.000 C 
ATOM     14  H   UNL     1      47.487   4.694  22.433  0.00  0.00    +0.000 HD
ENDBRANCH   8  10
ENDBRANCH   7   8
BRANCH   1  15
ATOM     15  O   UNL     1      49.368   4.885  16.693  0.00  0.00    +0.000 OA
BRANCH  15  17
ATOM     16  C   UNL     1      47.342   3.924  15.828  0.00  0.00    +0.000 C 
ATOM     17  C   UNL     1      48.370   3.885  16.956  0.00  0.00    +0.000 C 
ATOM     18  C   UNL     1      49.022   2.505  17.027  0.00  0.00    +0.000 C 
ENDBRANCH  15  17
ENDBRANCH   1  15
BRANCH   3  19
ATOM     19  C   UNL     1      48.395   8.943  14.001  0.00  0.00    +0.000 C 
BRANCH  19  20
ATOM     20  C   UNL     1      47.695   8.097  12.946  0.00  0.00    +0.000 C 
BRANCH  20  21
ATOM     21  O   UNL     1      46.268   8.191  12.999  0.00  0.00    +0.000 OA
BRANCH  21  22
ATOM     22  C   UNL     1      45.719   6.978  12.610  0.00  0.00    +0.000 A 
ATOM     23  C   UNL     1      46.500   5.842  12.710  0.00  0.00    +0.000 A 
ATOM     24  C   UNL     1      45.927   4.618  12.347  0.00  0.00    +0.000 A 
ATOM     25  C   UNL     1      44.596   4.568  11.902  0.00  0.00    +0.000 A 
ATOM     26  C   UNL     1      43.911   5.766  11.823  0.00  0.00    +0.000 A 
ATOM     27  N   UNL     1      44.442   6.960  12.166  0.00  0.00    +0.000 NA
BRANCH  25  28
ATOM     28  C   UNL     1      43.989   3.269  11.531  0.00  0.00    +0.000 C 
ATOM     29  N   UNL     1      43.693   2.368  12.518  0.00  0.00    +0.000 N 
ATOM     30  O   UNL     1      43.744   2.996  10.361  0.00  0.00    +0.000 OA
ATOM     31  H   UNL     1      43.849   2.481  13.506  0.00  0.00    +0.000 HD
ATOM     32  H   UNL     1      43.292   1.489  12.217  0.00  0.00    +0.000 HD
ENDBRANCH  25  28
ENDBRANCH  21  22
ENDBRANCH  20  21
ENDBRANCH  19  20
ENDBRANCH   3  19
TORSDOF 9
ENDMDL
MODEL 9
REMARK VINA RESULT:    -5.487      4.248      6.708
REMARK INTER + INTRA:          -9.722
REMARK INTER:                  -8.341
REMARK INTRA:                  -1.381
REMARK UNBOUND:                -1.348
REMARK  Name = 
REMARK  11 active torsions:
REMARK  status: ('A' for Active; 'I' for Inactive)
REMARK    1  A    between atoms: C_1  and  C_2
REMARK    2  A    between atoms: C_2  and  C_3
REMARK    3  A    between atoms: C_2  and  O_4
REMARK    4  A    between atoms: O_4  and  C_5
REMARK    5  A    between atoms: C_7  and  C_8
REMARK    6  A    between atoms: C_8  and  C_9
REMARK    7  A    between atoms: C_9  and  O_10
REMARK    8  A    between atoms: O_10  and  C_11
REMARK    9  A    between atoms: C_14  and  C_15
REMARK   10  A    between atoms: C_23  and  N_24
REMARK   11  A    between atoms: N_24  and  C_25
REMARK                            x       y       z     vdW  Elec       q    Type
REMARK                         _______ _______ _______ _____ _____    ______ ____
ROOT
ATOM      1  C   UNL     1      48.328   7.150  18.046  0.00  0.00    +0.000 A 
ATOM      2  C   UNL     1      48.857   7.823  16.929  0.00  0.00    +0.000 A 
ATOM      3  C   UNL     1      49.733   7.196  16.033  0.00  0.00    +0.000 A 
ATOM      4  C   UNL     1      50.116   5.879  16.309  0.00  0.00    +0.000 A 
ATOM      5  C   UNL     1      49.604   5.203  17.411  0.00  0.00    +0.000 A 
ATOM      6  F   UNL     1      50.029   3.946  17.614  0.00  0.00    +0.000 F 
ATOM      7  C   UNL     1      48.700   5.804  18.297  0.00  0.00    +0.000 A 
ENDROOT
BRANCH   7   8
ATOM      8  N   UNL     1      48.073   5.054  19.322  0.00  0.00    +0.000 N 
ATOM      9  H   UNL     1      47.057   5.091  19.292  0.00  0.00    +0.000 HD
BRANCH   8  10
ATOM     10  C   UNL     1      48.691   4.531  20.512  0.00  0.00    +0.000 C 
ATOM     11  C   UNL     1      48.112   5.139  21.803  0.00  0.00    +0.000 C 
ATOM     12  N   UNL     1      49.476   5.426  22.284  0.00  0.00    +0.000 NA
ATOM     13  C   UNL     1      50.017   5.190  20.929  0.00  0.00    +0.000 C 
ATOM     14  H   UNL     1      49.808   4.755  22.978  0.00  0.00    +0.000 HD
ENDBRANCH   8  10
ENDBRANCH   7   8
BRANCH   1  15
ATOM     15  O   UNL     1      47.418   7.715  18.915  0.00  0.00    +0.000 OA
BRANCH  15  17
ATOM     16  C   UNL     1      47.288  10.094  19.230  0.00  0.00    +0.000 C 
ATOM     17  C   UNL     1      47.846   8.783  19.776  0.00  0.00    +0.000 C 
ATOM     18  C   UNL     1      47.333   8.543  21.195  0.00  0.00    +0.000 C 
ENDBRANCH  15  17
ENDBRANCH   1  15
BRANCH   3  19
ATOM     19  C   UNL     1      50.190   7.962  14.802  0.00  0.00    +0.000 C 
BRANCH  19  20
ATOM     20  C   UNL     1      49.202   7.873  13.645  0.00  0.00    +0.000 C 
BRANCH  20  21
ATOM     21  O   UNL     1      49.133   6.571  13.057  0.00  0.00    +0.000 OA
BRANCH  21  22
ATOM     22  C   UNL     1      47.821   6.119  13.107  0.00  0.00    +0.000 A 
ATOM     23  C   UNL     1      46.867   6.798  12.374  0.00  0.00    +0.000 A 
ATOM     24  C   UNL     1      45.553   6.316  12.403  0.00  0.00    +0.000 A 
ATOM     25  C   UNL     1      45.238   5.174  13.157  0.00  0.00    +0.000 A 
ATOM     26  C   UNL     1      46.266   4.584  13.867  0.00  0.00    +0.000 A 
ATOM     27  N   UNL     1      47.542   5.030  13.857  0.00  0.00    +0.000 NA
BRANCH  25  28
ATOM     28  C   UNL     1      43.849   4.660  13.175  0.00  0.00    +0.000 C 
ATOM     29  N   UNL     1      42.812   5.544  13.048  0.00  0.00    +0.000 N 
ATOM     30  O   UNL     1      43.620   3.462  13.294  0.00  0.00    +0.000 OA
ATOM     31  H   UNL     1      42.879   6.544  12.946  0.00  0.00    +0.000 HD
ATOM     32  H   UNL     1      41.880   5.150  13.079  0.00  0.00    +0.000 HD
ENDBRANCH  25  28
ENDBRANCH  21  22
ENDBRANCH  20  21
ENDBRANCH  19  20
ENDBRANCH   3  19
TORSDOF 9
ENDMDL
