MODEL 1
REMARK VINA RESULT:    -8.397      0.000      0.000
REMARK INTER + INTRA:         -12.725
REMARK INTER:                 -12.078
REMARK INTRA:                  -0.647
REMARK UNBOUND:                -0.647
REMARK  Name = 
REMARK  9 active torsions:
REMARK  status: ('A' for Active; 'I' for Inactive)
REMARK    1  A    between atoms: C_1  and  N_2
REMARK    2  A    between atoms: C_4  and  C_5
REMARK    3  A    between atoms: N_7  and  C_8
REMARK    4  A    between atoms: C_8  and  C_9
REMARK    5  A    between atoms: C_12  and  O_13
REMARK    6  A    between atoms: O_13  and  C_14
REMARK    7  A    between atoms: C_14  and  C_15
REMARK    8  A    between atoms: C_15  and  O_16
REMARK    9  A    between atoms: C_15  and  C_17
REMARK                            x       y       z     vdW  Elec       q    Type
REMARK                         _______ _______ _______ _____ _____    ______ ____
ROOT
ATOM      1  C   UNL     1      46.415   7.199  12.799  0.00  0.00    +0.000 A 
ATOM      2  C   UNL     1      45.365   7.775  12.096  0.00  0.00    +0.000 A 
ATOM      3  C   UNL     1      44.506   6.975  11.363  0.00  0.00    +0.000 A 
ATOM      4  C   UNL     1      44.642   5.583  11.322  0.00  0.00    +0.000 A 
ATOM      5  C   UNL     1      45.713   4.998  12.000  0.00  0.00    +0.000 A 
ATOM      6  C   UNL     1      46.595   5.809  12.737  0.00  0.00    +0.000 A 
ENDROOT
BRANCH   1   7
ATOM      7  C   UNL     1      47.304   8.067  13.640  0.00  0.00    +0.000 C 
BRANCH   7  10
ATOM      8  C   UNL     1      49.023   6.919  14.961  0.00  0.00    +0.000 C 
ATOM      9  O   UNL     1      49.878   7.088  14.104  0.00  0.00    +0.000 OA
ATOM     10  N   UNL     1      47.737   7.374  14.830  0.00  0.00    +0.000 N 
ATOM     11  H   UNL     1      47.086   7.290  15.599  0.00  0.00    +0.000 HD
BRANCH   8  15
ATOM     12  C   UNL     1      51.063   5.576  19.340  0.00  0.00    +0.000 C 
ATOM     13  N   UNL     1      50.200   5.592  18.178  0.00  0.00    +0.000 N 
ATOM     14  C   UNL     1      50.298   6.486  17.145  0.00  0.00    +0.000 A 
ATOM     15  C   UNL     1      49.303   6.209  16.217  0.00  0.00    +0.000 A 
ATOM     16  C   UNL     1      48.574   5.087  16.738  0.00  0.00    +0.000 A 
ATOM     17  C   UNL     1      47.468   4.349  16.284  0.00  0.00    +0.000 A 
ATOM     18  N   UNL     1      46.979   3.314  17.010  0.00  0.00    +0.000 NA
ATOM     19  C   UNL     1      47.570   3.004  18.182  0.00  0.00    +0.000 A 
ATOM     20  C   UNL     1      48.662   3.665  18.721  0.00  0.00    +0.000 A 
ATOM     21  C   UNL     1      49.155   4.727  17.961  0.00  0.00    +0.000 A 
ENDBRANCH   8  15
ENDBRANCH   7  10
ENDBRANCH   1   7
BRANCH   4  22
ATOM     22  O   UNL     1      43.751   4.770  10.649  0.00  0.00    +0.000 OA
BRANCH  22  23
ATOM     23  C   UNL     1      44.420   3.760   9.868  0.00  0.00    +0.000 C 
BRANCH  23  24
ATOM     24  C   UNL     1      44.789   4.201   8.454  0.00  0.00    +0.000 C 
BRANCH  24  25
ATOM     25  C   UNL     1      45.385   3.013   7.644  0.00  0.00    +0.000 C 
ATOM     26  C   UNL     1      45.929   1.880   8.542  0.00  0.00    +0.000 C 
ATOM     27  C   UNL     1      46.587   0.760   7.743  0.00  0.00    +0.000 C 
ATOM     28  C   UNL     1      47.682   1.301   6.833  0.00  0.00    +0.000 C 
ATOM     29  C   UNL     1      47.135   2.380   5.906  0.00  0.00    +0.000 C 
ATOM     30  C   UNL     1      46.481   3.515   6.689  0.00  0.00    +0.000 C 
ENDBRANCH  24  25
BRANCH  24  31
ATOM     31  O   UNL     1      45.722   5.283   8.491  0.00  0.00    +0.000 OA
ATOM     32  H   UNL     1      45.749   5.635   9.397  0.00  0.00    +0.000 HD
ENDBRANCH  24  31
ENDBRANCH  23  24
ENDBRANCH  22  23
ENDBRANCH   4  22
TORSDOF 8
ENDMDL
MODEL 2
REMARK VINA RESULT:    -8.007      2.099      2.747
REMARK INTER + INTRA:         -12.164
REMARK INTER:                 -11.232
REMARK INTRA:                  -0.932
REMARK UNBOUND:                -0.647
REMARK  Name = 
REMARK  9 active torsions:
REMARK  status: ('A' for Active; 'I' for Inactive)
REMARK    1  A    between atoms: C_1  and  N_2
REMARK    2  A    between atoms: C_4  and  C_5
REMARK    3  A    between atoms: N_7  and  C_8
REMARK    4  A    between atoms: C_8  and  C_9
REMARK    5  A    between atoms: C_12  and  O_13
REMARK    6  A    between atoms: O_13  and  C_14
REMARK    7  A    between atoms: C_14  and  C_15
REMARK    8  A    between atoms: C_15  and  O_16
REMARK    9  A    between atoms: C_15  and  C_17
REMARK                            x       y       z     vdW  Elec       q    Type
REMARK                         _______ _______ _______ _____ _____    ______ ____
ROOT
ATOM      1  C   UNL     1      47.031   6.085  13.052  0.00  0.00    +0.000 A 
ATOM      2  C   UNL     1      46.223   5.119  13.635  0.00  0.00    +0.000 A 
ATOM      3  C   UNL     1      45.123   4.635  12.948  0.00  0.00    +0.000 A 
ATOM      4  C   UNL     1      44.804   5.070  11.657  0.00  0.00    +0.000 A 
ATOM      5  C   UNL     1      45.593   6.063  11.074  0.00  0.00    +0.000 A 
ATOM      6  C   UNL     1      46.706   6.566  11.774  0.00  0.00    +0.000 A 
ENDROOT
BRANCH   1   7
ATOM      7  C   UNL     1      48.256   6.558  13.778  0.00  0.00    +0.000 C 
BRANCH   7  10
ATOM      8  C   UNL     1      49.149   6.473  16.062  0.00  0.00    +0.000 C 
ATOM      9  O   UNL     1      50.306   6.541  15.675  0.00  0.00    +0.000 OA
ATOM     10  N   UNL     1      48.076   6.488  15.209  0.00  0.00    +0.000 N 
ATOM     11  H   UNL     1      47.134   6.517  15.575  0.00  0.00    +0.000 HD
BRANCH   8  15
ATOM     12  C   UNL     1      48.497   4.695  20.704  0.00  0.00    +0.000 C 
ATOM     13  N   UNL     1      48.506   5.593  19.570  0.00  0.00    +0.000 N 
ATOM     14  C   UNL     1      48.924   5.257  18.310  0.00  0.00    +0.000 A 
ATOM     15  C   UNL     1      48.804   6.369  17.487  0.00  0.00    +0.000 A 
ATOM     16  C   UNL     1      48.288   7.423  18.315  0.00  0.00    +0.000 A 
ATOM     17  C   UNL     1      47.959   8.769  18.084  0.00  0.00    +0.000 A 
ATOM     18  N   UNL     1      47.484   9.549  19.085  0.00  0.00    +0.000 NA
ATOM     19  C   UNL     1      47.334   9.013  20.313  0.00  0.00    +0.000 A 
ATOM     20  C   UNL     1      47.628   7.701  20.648  0.00  0.00    +0.000 A 
ATOM     21  C   UNL     1      48.115   6.911  19.606  0.00  0.00    +0.000 A 
ENDBRANCH   8  15
ENDBRANCH   7  10
ENDBRANCH   1   7
BRANCH   4  22
ATOM     22  O   UNL     1      43.749   4.546  10.936  0.00  0.00    +0.000 OA
BRANCH  22  23
ATOM     23  C   UNL     1      44.150   4.119   9.619  0.00  0.00    +0.000 C 
BRANCH  23  24
ATOM     24  C   UNL     1      44.881   2.779   9.588  0.00  0.00    +0.000 C 
BRANCH  24  25
ATOM     25  C   UNL     1      45.481   2.511   8.177  0.00  0.00    +0.000 C 
ATOM     26  C   UNL     1      46.434   1.296   8.145  0.00  0.00    +0.000 C 
ATOM     27  C   UNL     1      47.083   1.093   6.779  0.00  0.00    +0.000 C 
ATOM     28  C   UNL     1      47.800   2.354   6.316  0.00  0.00    +0.000 C 
ATOM     29  C   UNL     1      46.848   3.545   6.293  0.00  0.00    +0.000 C 
ATOM     30  C   UNL     1      46.197   3.769   7.655  0.00  0.00    +0.000 C 
ENDBRANCH  24  25
BRANCH  24  31
ATOM     31  O   UNL     1      43.999   1.716   9.954  0.00  0.00    +0.000 OA
ATOM     32  H   UNL     1      44.148   1.500  10.889  0.00  0.00    +0.000 HD
ENDBRANCH  24  31
ENDBRANCH  23  24
ENDBRANCH  22  23
ENDBRANCH   4  22
TORSDOF 8
ENDMDL
MODEL 3
REMARK VINA RESULT:    -7.624      2.040      2.573
REMARK INTER + INTRA:         -11.614
REMARK INTER:                 -10.750
REMARK INTRA:                  -0.864
REMARK UNBOUND:                -0.647
REMARK  Name = 
REMARK  9 active torsions:
REMARK  status: ('A' for Active; 'I' for Inactive)
REMARK    1  A    between atoms: C_1  and  N_2
REMARK    2  A    between atoms: C_4  and  C_5
REMARK    3  A    between atoms: N_7  and  C_8
REMARK    4  A    between atoms: C_8  and  C_9
REMARK    5  A    between atoms: C_12  and  O_13
REMARK    6  A    between atoms: O_13  and  C_14
REMARK    7  A    between atoms: C_14  and  C_15
REMARK    8  A    between atoms: C_15  and  O_16
REMARK    9  A    between atoms: C_15  and  C_17
REMARK                            x       y       z     vdW  Elec       q    Type
REMARK                         _______ _______ _______ _____ _____    ______ ____
ROOT
ATOM      1  C   UNL     1      47.140   6.302  13.182  0.00  0.00    +0.000 A 
ATOM      2  C   UNL     1      46.699   6.949  12.036  0.00  0.00    +0.000 A 
ATOM      3  C   UNL     1      45.523   6.545  11.426  0.00  0.00    +0.000 A 
ATOM      4  C   UNL     1      44.737   5.510  11.944  0.00  0.00    +0.000 A 
ATOM      5  C   UNL     1      45.188   4.834  13.079  0.00  0.00    +0.000 A 
ATOM      6  C   UNL     1      46.388   5.234  13.695  0.00  0.00    +0.000 A 
ENDROOT
BRANCH   1   7
ATOM      7  C   UNL     1      48.382   6.787  13.870  0.00  0.00    +0.000 C 
BRANCH   7  10
ATOM      8  C   UNL     1      49.012   6.767  16.241  0.00  0.00    +0.000 C 
ATOM      9  O   UNL     1      50.074   6.206  16.015  0.00  0.00    +0.000 OA
ATOM     10  N   UNL     1      48.124   7.106  15.254  0.00  0.00    +0.000 N 
ATOM     11  H   UNL     1      47.299   7.647  15.475  0.00  0.00    +0.000 HD
BRANCH   8  15
ATOM     12  C   UNL     1      47.345   9.363  20.193  0.00  0.00    +0.000 C 
ATOM     13  N   UNL     1      47.849   8.277  19.382  0.00  0.00    +0.000 N 
ATOM     14  C   UNL     1      48.151   8.371  18.049  0.00  0.00    +0.000 A 
ATOM     15  C   UNL     1      48.595   7.133  17.602  0.00  0.00    +0.000 A 
ATOM     16  C   UNL     1      48.547   6.258  18.740  0.00  0.00    +0.000 A 
ATOM     17  C   UNL     1      48.855   4.902  18.938  0.00  0.00    +0.000 A 
ATOM     18  N   UNL     1      48.704   4.326  20.156  0.00  0.00    +0.000 NA
ATOM     19  C   UNL     1      48.248   5.077  21.179  0.00  0.00    +0.000 A 
ATOM     20  C   UNL     1      47.915   6.419  21.092  0.00  0.00    +0.000 A 
ATOM     21  C   UNL     1      48.078   6.998  19.832  0.00  0.00    +0.000 A 
ENDBRANCH   8  15
ENDBRANCH   7  10
ENDBRANCH   1   7
BRANCH   4  22
ATOM     22  O   UNL     1      43.529   5.144  11.383  0.00  0.00    +0.000 OA
BRANCH  22  23
ATOM     23  C   UNL     1      43.701   4.329  10.207  0.00  0.00    +0.000 C 
BRANCH  23  24
ATOM     24  C   UNL     1      44.523   3.063  10.435  0.00  0.00    +0.000 C 
BRANCH  24  25
ATOM     25  C   UNL     1      45.669   2.954   9.387  0.00  0.00    +0.000 C 
ATOM     26  C   UNL     1      45.645   4.093   8.343  0.00  0.00    +0.000 C 
ATOM     27  C   UNL     1      46.718   3.931   7.271  0.00  0.00    +0.000 C 
ATOM     28  C   UNL     1      46.617   2.573   6.591  0.00  0.00    +0.000 C 
ATOM     29  C   UNL     1      46.696   1.444   7.612  0.00  0.00    +0.000 C 
ATOM     30  C   UNL     1      45.623   1.584   8.688  0.00  0.00    +0.000 C 
ENDBRANCH  24  25
BRANCH  24  31
ATOM     31  O   UNL     1      43.690   1.904  10.370  0.00  0.00    +0.000 OA
ATOM     32  H   UNL     1      42.772   2.175  10.540  0.00  0.00    +0.000 HD
ENDBRANCH  24  31
ENDBRANCH  23  24
ENDBRANCH  22  23
ENDBRANCH   4  22
TORSDOF 8
ENDMDL
MODEL 4
REMARK VINA RESULT:    -7.494      1.636      2.154
REMARK INTER + INTRA:         -11.426
REMARK INTER:                 -10.541
REMARK INTRA:                  -0.885
REMARK UNBOUND:                -0.647
REMARK  Name = 
REMARK  9 active torsions:
REMARK  status: ('A' for Active; 'I' for Inactive)
REMARK    1  A    between atoms: C_1  and  N_2
REMARK    2  A    between atoms: C_4  and  C_5
REMARK    3  A    between atoms: N_7  and  C_8
REMARK    4  A    between atoms: C_8  and  C_9
REMARK    5  A    between atoms: C_12  and  O_13
REMARK    6  A    between atoms: O_13  and  C_14
REMARK    7  A    between atoms: C_14  and  C_15
REMARK    8  A    between atoms: C_15  and  O_16
REMARK    9  A    between atoms: C_15  and  C_17
REMARK                            x       y       z     vdW  Elec       q    Type
REMARK                         _______ _______ _______ _____ _____    ______ ____
ROOT
ATOM      1  C   UNL     1      47.280   6.433  13.184  0.00  0.00    +0.000 A 
ATOM      2  C   UNL     1      46.980   5.139  13.585  0.00  0.00    +0.000 A 
ATOM      3  C   UNL     1      45.921   4.464  13.001  0.00  0.00    +0.000 A 
ATOM      4  C   UNL     1      45.145   5.037  11.988  0.00  0.00    +0.000 A 
ATOM      5  C   UNL     1      45.420   6.350  11.599  0.00  0.00    +0.000 A 
ATOM      6  C   UNL     1      46.488   7.043  12.198  0.00  0.00    +0.000 A 
ENDROOT
BRANCH   1   7
ATOM      7  C   UNL     1      48.466   7.134  13.778  0.00  0.00    +0.000 C 
BRANCH   7  10
ATOM      8  C   UNL     1      49.133   7.147  16.139  0.00  0.00    +0.000 C 
ATOM      9  O   UNL     1      48.918   8.344  16.254  0.00  0.00    +0.000 OA
ATOM     10  N   UNL     1      48.928   6.462  14.970  0.00  0.00    +0.000 N 
ATOM     11  H   UNL     1      49.034   5.457  14.942  0.00  0.00    +0.000 HD
BRANCH   8  15
ATOM     12  C   UNL     1      52.039   4.237  19.007  0.00  0.00    +0.000 C 
ATOM     13  N   UNL     1      50.916   5.029  18.554  0.00  0.00    +0.000 N 
ATOM     14  C   UNL     1      50.842   5.655  17.338  0.00  0.00    +0.000 A 
ATOM     15  C   UNL     1      49.631   6.330  17.255  0.00  0.00    +0.000 A 
ATOM     16  C   UNL     1      48.955   6.089  18.499  0.00  0.00    +0.000 A 
ATOM     17  C   UNL     1      47.717   6.492  19.028  0.00  0.00    +0.000 A 
ATOM     18  N   UNL     1      47.333   6.103  20.269  0.00  0.00    +0.000 NA
ATOM     19  C   UNL     1      48.162   5.323  20.992  0.00  0.00    +0.000 A 
ATOM     20  C   UNL     1      49.400   4.870  20.567  0.00  0.00    +0.000 A 
ATOM     21  C   UNL     1      49.780   5.278  19.287  0.00  0.00    +0.000 A 
ENDBRANCH   8  15
ENDBRANCH   7  10
ENDBRANCH   1   7
BRANCH   4  22
ATOM     22  O   UNL     1      44.130   4.349  11.352  0.00  0.00    +0.000 OA
BRANCH  22  23
ATOM     23  C   UNL     1      44.606   3.149  10.711  0.00  0.00    +0.000 C 
BRANCH  23  24
ATOM     24  C   UNL     1      44.426   3.134   9.194  0.00  0.00    +0.000 C 
BRANCH  24  25
ATOM     25  C   UNL     1      45.754   2.735   8.486  0.00  0.00    +0.000 C 
ATOM     26  C   UNL     1      45.961   3.457   7.136  0.00  0.00    +0.000 C 
ATOM     27  C   UNL     1      47.221   2.998   6.410  0.00  0.00    +0.000 C 
ATOM     28  C   UNL     1      47.229   1.487   6.221  0.00  0.00    +0.000 C 
ATOM     29  C   UNL     1      47.081   0.770   7.558  0.00  0.00    +0.000 C 
ATOM     30  C   UNL     1      45.819   1.211   8.295  0.00  0.00    +0.000 C 
ENDBRANCH  24  25
BRANCH  24  31
ATOM     31  O   UNL     1      43.987   4.410   8.727  0.00  0.00    +0.000 OA
ATOM     32  H   UNL     1      43.032   4.362   8.552  0.00  0.00    +0.000 HD
ENDBRANCH  24  31
ENDBRANCH  23  24
ENDBRANCH  22  23
ENDBRANCH   4  22
TORSDOF 8
ENDMDL
MODEL 5
REMARK VINA RESULT:    -7.445      2.711      8.059
REMARK INTER + INTRA:         -11.356
REMARK INTER:                 -10.151
REMARK INTRA:                  -1.206
REMARK UNBOUND:                -0.647
REMARK  Name = 
REMARK  9 active torsions:
REMARK  status: ('A' for Active; 'I' for Inactive)
REMARK    1  A    between atoms: C_1  and  N_2
REMARK    2  A    between atoms: C_4  and  C_5
REMARK    3  A    between atoms: N_7  and  C_8
REMARK    4  A    between atoms: C_8  and  C_9
REMARK    5  A    between atoms: C_12  and  O_13
REMARK    6  A    between atoms: O_13  and  C_14
REMARK    7  A    between atoms: C_14  and  C_15
REMARK    8  A    between atoms: C_15  and  O_16
REMARK    9  A    between atoms: C_15  and  C_17
REMARK                            x       y       z     vdW  Elec       q    Type
REMARK                         _______ _______ _______ _____ _____    ______ ____
ROOT
ATOM      1  C   UNL     1      48.550   8.368  13.825  0.00  0.00    +0.000 A 
ATOM      2  C   UNL     1      49.295   7.231  14.109  0.00  0.00    +0.000 A 
ATOM      3  C   UNL     1      49.564   6.894  15.425  0.00  0.00    +0.000 A 
ATOM      4  C   UNL     1      49.084   7.654  16.498  0.00  0.00    +0.000 A 
ATOM      5  C   UNL     1      48.360   8.816  16.222  0.00  0.00    +0.000 A 
ATOM      6  C   UNL     1      48.095   9.167  14.885  0.00  0.00    +0.000 A 
ENDROOT
BRANCH   1   7
ATOM      7  C   UNL     1      48.212   8.691  12.400  0.00  0.00    +0.000 C 
BRANCH   7  10
ATOM      8  C   UNL     1      46.216   7.367  11.869  0.00  0.00    +0.000 C 
ATOM      9  O   UNL     1      45.482   8.110  12.503  0.00  0.00    +0.000 OA
ATOM     10  N   UNL     1      47.565   7.576  11.749  0.00  0.00    +0.000 N 
ATOM     11  H   UNL     1      48.121   6.986  11.145  0.00  0.00    +0.000 HD
BRANCH   8  15
ATOM     12  C   UNL     1      45.260   3.942   8.334  0.00  0.00    +0.000 C 
ATOM     13  N   UNL     1      45.273   4.630   9.607  0.00  0.00    +0.000 N 
ATOM     14  C   UNL     1      45.898   5.826   9.843  0.00  0.00    +0.000 A 
ATOM     15  C   UNL     1      45.711   6.174  11.174  0.00  0.00    +0.000 A 
ATOM     16  C   UNL     1      44.932   5.118  11.756  0.00  0.00    +0.000 A 
ATOM     17  C   UNL     1      44.427   4.878  13.045  0.00  0.00    +0.000 A 
ATOM     18  N   UNL     1      43.708   3.760  13.312  0.00  0.00    +0.000 NA
ATOM     19  C   UNL     1      43.488   2.875  12.319  0.00  0.00    +0.000 A 
ATOM     20  C   UNL     1      43.940   3.013  11.017  0.00  0.00    +0.000 A 
ATOM     21  C   UNL     1      44.677   4.171  10.757  0.00  0.00    +0.000 A 
ENDBRANCH   8  15
ENDBRANCH   7  10
ENDBRANCH   1   7
BRANCH   4  22
ATOM     22  O   UNL     1      49.289   7.290  17.814  0.00  0.00    +0.000 OA
BRANCH  22  23
ATOM     23  C   UNL     1      48.049   7.093  18.522  0.00  0.00    +0.000 C 
BRANCH  23  24
ATOM     24  C   UNL     1      47.703   5.629  18.787  0.00  0.00    +0.000 C 
BRANCH  24  25
ATOM     25  C   UNL     1      48.375   4.705  17.729  0.00  0.00    +0.000 C 
ATOM     26  C   UNL     1      47.362   3.825  16.963  0.00  0.00    +0.000 C 
ATOM     27  C   UNL     1      48.036   2.862  15.991  0.00  0.00    +0.000 C 
ATOM     28  C   UNL     1      49.073   2.001  16.697  0.00  0.00    +0.000 C 
ATOM     29  C   UNL     1      50.107   2.866  17.408  0.00  0.00    +0.000 C 
ATOM     30  C   UNL     1      49.451   3.830  18.393  0.00  0.00    +0.000 C 
ENDBRANCH  24  25
BRANCH  24  31
ATOM     31  O   UNL     1      46.288   5.436  18.775  0.00  0.00    +0.000 OA
ATOM     32  H   UNL     1      45.868   6.215  19.178  0.00  0.00    +0.000 HD
ENDBRANCH  24  31
ENDBRANCH  23  24
ENDBRANCH  22  23
ENDBRANCH   4  22
TORSDOF 8
ENDMDL
MODEL 6
REMARK VINA RESULT:    -7.424      1.410      2.674
REMARK INTER + INTRA:         -11.326
REMARK INTER:                 -10.396
REMARK INTRA:                  -0.930
REMARK UNBOUND:                -0.647
REMARK  Name = 
REMARK  9 active torsions:
REMARK  status: ('A' for Active; 'I' for Inactive)
REMARK    1  A    between atoms: C_1  and  N_2
REMARK    2  A    between atoms: C_4  and  C_5
REMARK    3  A    between atoms: N_7  and  C_8
REMARK    4  A    between atoms: C_8  and  C_9
REMARK    5  A    between atoms: C_12  and  O_13
REMARK    6  A    between atoms: O_13  and  C_14
REMARK    7  A    between atoms: C_14  and  C_15
REMARK    8  A    between atoms: C_15  and  O_16
REMARK    9  A    between atoms: C_15  and  C_17
REMARK                            x       y       z     vdW  Elec       q    Type
REMARK                         _______ _______ _______ _____ _____    ______ ____
ROOT
ATOM      1  C   UNL     1      46.887   6.209  12.700  0.00  0.00    +0.000 A 
ATOM      2  C   UNL     1      46.333   5.104  13.332  0.00  0.00    +0.000 A 
ATOM      3  C   UNL     1      45.301   4.408  12.725  0.00  0.00    +0.000 A 
ATOM      4  C   UNL     1      44.805   4.766  11.466  0.00  0.00    +0.000 A 
ATOM      5  C   UNL     1      45.335   5.894  10.836  0.00  0.00    +0.000 A 
ATOM      6  C   UNL     1      46.376   6.611  11.456  0.00  0.00    +0.000 A 
ENDROOT
BRANCH   1   7
ATOM      7  C   UNL     1      48.044   6.920  13.337  0.00  0.00    +0.000 C 
BRANCH   7  10
ATOM      8  C   UNL     1      49.142   6.987  15.530  0.00  0.00    +0.000 C 
ATOM      9  O   UNL     1      49.511   8.141  15.376  0.00  0.00    +0.000 OA
ATOM     10  N   UNL     1      48.407   6.308  14.593  0.00  0.00    +0.000 N 
ATOM     11  H   UNL     1      48.049   5.385  14.797  0.00  0.00    +0.000 HD
BRANCH   8  15
ATOM     12  C   UNL     1      48.686   4.380  19.788  0.00  0.00    +0.000 C 
ATOM     13  N   UNL     1      49.274   5.050  18.649  0.00  0.00    +0.000 N 
ATOM     14  C   UNL     1      48.567   5.715  17.682  0.00  0.00    +0.000 A 
ATOM     15  C   UNL     1      49.457   6.220  16.743  0.00  0.00    +0.000 A 
ATOM     16  C   UNL     1      50.766   5.826  17.184  0.00  0.00    +0.000 A 
ATOM     17  C   UNL     1      52.062   6.017  16.676  0.00  0.00    +0.000 A 
ATOM     18  N   UNL     1      53.142   5.512  17.321  0.00  0.00    +0.000 NA
ATOM     19  C   UNL     1      52.953   4.817  18.461  0.00  0.00    +0.000 A 
ATOM     20  C   UNL     1      51.722   4.570  19.046  0.00  0.00    +0.000 A 
ATOM     21  C   UNL     1      50.620   5.098  18.371  0.00  0.00    +0.000 A 
ENDBRANCH   8  15
ENDBRANCH   7  10
ENDBRANCH   1   7
BRANCH   4  22
ATOM     22  O   UNL     1      43.824   4.039  10.821  0.00  0.00    +0.000 OA
BRANCH  22  23
ATOM     23  C   UNL     1      44.229   3.633   9.499  0.00  0.00    +0.000 C 
BRANCH  23  24
ATOM     24  C   UNL     1      45.095   2.376   9.466  0.00  0.00    +0.000 C 
BRANCH  24  25
ATOM     25  C   UNL     1      46.181   2.484   8.355  0.00  0.00    +0.000 C 
ATOM     26  C   UNL     1      45.765   3.410   7.191  0.00  0.00    +0.000 C 
ATOM     27  C   UNL     1      46.798   3.443   6.068  0.00  0.00    +0.000 C 
ATOM     28  C   UNL     1      47.105   2.041   5.560  0.00  0.00    +0.000 C 
ATOM     29  C   UNL     1      47.569   1.138   6.697  0.00  0.00    +0.000 C 
ATOM     30  C   UNL     1      46.543   1.086   7.826  0.00  0.00    +0.000 C 
ENDBRANCH  24  25
BRANCH  24  31
ATOM     31  O   UNL     1      44.290   1.216   9.250  0.00  0.00    +0.000 OA
ATOM     32  H   UNL     1      43.992   1.215   8.325  0.00  0.00    +0.000 HD
ENDBRANCH  24  31
ENDBRANCH  23  24
ENDBRANCH  22  23
ENDBRANCH   4  22
TORSDOF 8
ENDMDL
MODEL 7
REMARK VINA RESULT:    -7.315      2.734      8.580
REMARK INTER + INTRA:         -11.169
REMARK INTER:                  -9.701
REMARK INTRA:                  -1.468
REMARK UNBOUND:                -0.647
REMARK  Name = 
REMARK  9 active torsions:
REMARK  status: ('A' for Active; 'I' for Inactive)
REMARK    1  A    between atoms: C_1  and  N_2
REMARK    2  A    between atoms: C_4  and  C_5
REMARK    3  A    between atoms: N_7  and  C_8
REMARK    4  A    between atoms: C_8  and  C_9
REMARK    5  A    between atoms: C_12  and  O_13
REMARK    6  A    between atoms: O_13  and  C_14
REMARK    7  A    between atoms: C_14  and  C_15
REMARK    8  A    between atoms: C_15  and  O_16
REMARK    9  A    between atoms: C_15  and  C_17
REMARK                            x       y       z     vdW  Elec       q    Type
REMARK                         _______ _______ _______ _____ _____    ______ ____
ROOT
ATOM      1  C   UNL     1      48.401   7.997  13.850  0.00  0.00    +0.000 A 
ATOM      2  C   UNL     1      48.918   6.834  14.404  0.00  0.00    +0.000 A 
ATOM      3  C   UNL     1      49.154   6.765  15.766  0.00  0.00    +0.000 A 
ATOM      4  C   UNL     1      48.863   7.831  16.624  0.00  0.00    +0.000 A 
ATOM      5  C   UNL     1      48.371   9.016  16.072  0.00  0.00    +0.000 A 
ATOM      6  C   UNL     1      48.141   9.094  14.686  0.00  0.00    +0.000 A 
ENDROOT
BRANCH   1   7
ATOM      7  C   UNL     1      48.091   8.041  12.382  0.00  0.00    +0.000 C 
BRANCH   7  10
ATOM      8  C   UNL     1      45.968   6.849  12.083  0.00  0.00    +0.000 C 
ATOM      9  O   UNL     1      45.312   7.790  12.506  0.00  0.00    +0.000 OA
ATOM     10  N   UNL     1      47.333   6.882  11.972  0.00  0.00    +0.000 N 
ATOM     11  H   UNL     1      47.828   6.116  11.537  0.00  0.00    +0.000 HD
BRANCH   8  15
ATOM     12  C   UNL     1      43.345   2.576  12.065  0.00  0.00    +0.000 C 
ATOM     13  N   UNL     1      44.173   3.677  11.622  0.00  0.00    +0.000 N 
ATOM     14  C   UNL     1      44.573   4.721  12.413  0.00  0.00    +0.000 A 
ATOM     15  C   UNL     1      45.343   5.591  11.652  0.00  0.00    +0.000 A 
ATOM     16  C   UNL     1      45.396   5.025  10.333  0.00  0.00    +0.000 A 
ATOM     17  C   UNL     1      46.000   5.420   9.128  0.00  0.00    +0.000 A 
ATOM     18  N   UNL     1      45.873   4.667   8.008  0.00  0.00    +0.000 NA
ATOM     19  C   UNL     1      45.151   3.529   8.067  0.00  0.00    +0.000 A 
ATOM     20  C   UNL     1      44.516   3.049   9.200  0.00  0.00    +0.000 A 
ATOM     21  C   UNL     1      44.657   3.835  10.346  0.00  0.00    +0.000 A 
ENDBRANCH   8  15
ENDBRANCH   7  10
ENDBRANCH   1   7
BRANCH   4  22
ATOM     22  O   UNL     1      49.030   7.750  17.992  0.00  0.00    +0.000 OA
BRANCH  22  23
ATOM     23  C   UNL     1      49.919   6.680  18.368  0.00  0.00    +0.000 C 
BRANCH  23  24
ATOM     24  C   UNL     1      49.359   5.745  19.438  0.00  0.00    +0.000 C 
BRANCH  24  25
ATOM     25  C   UNL     1      48.996   4.361  18.824  0.00  0.00    +0.000 C 
ATOM     26  C   UNL     1      50.094   3.806  17.889  0.00  0.00    +0.000 C 
ATOM     27  C   UNL     1      49.694   2.492  17.227  0.00  0.00    +0.000 C 
ATOM     28  C   UNL     1      48.371   2.628  16.485  0.00  0.00    +0.000 C 
ATOM     29  C   UNL     1      47.271   3.122  17.419  0.00  0.00    +0.000 C 
ATOM     30  C   UNL     1      47.651   4.442  18.084  0.00  0.00    +0.000 C 
ENDBRANCH  24  25
BRANCH  24  31
ATOM     31  O   UNL     1      48.208   6.321  20.057  0.00  0.00    +0.000 OA
ATOM     32  H   UNL     1      47.531   6.465  19.375  0.00  0.00    +0.000 HD
ENDBRANCH  24  31
ENDBRANCH  23  24
ENDBRANCH  22  23
ENDBRANCH   4  22
TORSDOF 8
ENDMDL
MODEL 8
REMARK VINA RESULT:    -7.096      3.743      9.996
REMARK INTER + INTRA:         -10.854
REMARK INTER:                  -9.227
REMARK INTRA:                  -1.627
REMARK UNBOUND:                -0.647
REMARK  Name = 
REMARK  9 active torsions:
REMARK  status: ('A' for Active; 'I' for Inactive)
REMARK    1  A    between atoms: C_1  and  N_2
REMARK    2  A    between atoms: C_4  and  C_5
REMARK    3  A    between atoms: N_7  and  C_8
REMARK    4  A    between atoms: C_8  and  C_9
REMARK    5  A    between atoms: C_12  and  O_13
REMARK    6  A    between atoms: O_13  and  C_14
REMARK    7  A    between atoms: C_14  and  C_15
REMARK    8  A    between atoms: C_15  and  O_16
REMARK    9  A    between atoms: C_15  and  C_17
REMARK                            x       y       z     vdW  Elec       q    Type
REMARK                         _______ _______ _______ _____ _____    ______ ____
ROOT
ATOM      1  C   UNL     1      48.813   3.858  17.068  0.00  0.00    +0.000 A 
ATOM      2  C   UNL     1      49.730   2.876  17.415  0.00  0.00    +0.000 A 
ATOM      3  C   UNL     1      51.014   3.234  17.789  0.00  0.00    +0.000 A 
ATOM      4  C   UNL     1      51.422   4.571  17.856  0.00  0.00    +0.000 A 
ATOM      5  C   UNL     1      50.515   5.564  17.480  0.00  0.00    +0.000 A 
ATOM      6  C   UNL     1      49.213   5.203  17.088  0.00  0.00    +0.000 A 
ENDROOT
BRANCH   1   7
ATOM      7  C   UNL     1      47.407   3.464  16.723  0.00  0.00    +0.000 C 
BRANCH   7  10
ATOM      8  C   UNL     1      46.842   4.169  14.442  0.00  0.00    +0.000 C 
ATOM      9  O   UNL     1      47.338   3.169  13.947  0.00  0.00    +0.000 OA
ATOM     10  N   UNL     1      46.815   4.397  15.793  0.00  0.00    +0.000 N 
ATOM     11  H   UNL     1      46.318   5.194  16.166  0.00  0.00    +0.000 HD
BRANCH   8  15
ATOM     12  C   UNL     1      46.023   8.498  12.048  0.00  0.00    +0.000 C 
ATOM     13  N   UNL     1      45.840   7.152  12.545  0.00  0.00    +0.000 N 
ATOM     14  C   UNL     1      46.720   6.494  13.363  0.00  0.00    +0.000 A 
ATOM     15  C   UNL     1      46.224   5.223  13.625  0.00  0.00    +0.000 A 
ATOM     16  C   UNL     1      44.979   5.128  12.915  0.00  0.00    +0.000 A 
ATOM     17  C   UNL     1      44.015   4.115  12.773  0.00  0.00    +0.000 A 
ATOM     18  N   UNL     1      42.909   4.312  12.014  0.00  0.00    +0.000 NA
ATOM     19  C   UNL     1      42.748   5.498  11.393  0.00  0.00    +0.000 A 
ATOM     20  C   UNL     1      43.634   6.560  11.466  0.00  0.00    +0.000 A 
ATOM     21  C   UNL     1      44.768   6.342  12.252  0.00  0.00    +0.000 A 
ENDBRANCH   8  15
ENDBRANCH   7  10
ENDBRANCH   1   7
BRANCH   4  22
ATOM     22  O   UNL     1      52.678   4.943  18.293  0.00  0.00    +0.000 OA
BRANCH  22  23
ATOM     23  C   UNL     1      52.643   5.539  19.605  0.00  0.00    +0.000 C 
BRANCH  23  24
ATOM     24  C   UNL     1      51.969   4.675  20.669  0.00  0.00    +0.000 C 
BRANCH  24  25
ATOM     25  C   UNL     1      50.707   5.388  21.238  0.00  0.00    +0.000 C 
ATOM     26  C   UNL     1      49.393   4.641  20.918  0.00  0.00    +0.000 C 
ATOM     27  C   UNL     1      48.157   5.389  21.405  0.00  0.00    +0.000 C 
ATOM     28  C   UNL     1      48.119   6.808  20.855  0.00  0.00    +0.000 C 
ATOM     29  C   UNL     1      49.390   7.567  21.217  0.00  0.00    +0.000 C 
ATOM     30  C   UNL     1      50.638   6.837  20.728  0.00  0.00    +0.000 C 
ENDBRANCH  24  25
BRANCH  24  31
ATOM     31  O   UNL     1      52.881   4.378  21.727  0.00  0.00    +0.000 OA
ATOM     32  H   UNL     1      52.496   4.693  22.563  0.00  0.00    +0.000 HD
ENDBRANCH  24  31
ENDBRANCH  23  24
ENDBRANCH  22  23
ENDBRANCH   4  22
TORSDOF 8
ENDMDL
MODEL 9
REMARK VINA RESULT:    -6.973      3.613      9.376
REMARK INTER + INTRA:         -10.677
REMARK INTER:                  -8.804
REMARK INTRA:                  -1.872
REMARK UNBOUND:                -0.647
REMARK  Name = 
REMARK  9 active torsions:
REMARK  status: ('A' for Active; 'I' for Inactive)
REMARK    1  A    between atoms: C_1  and  N_2
REMARK    2  A    between atoms: C_4  and  C_5
REMARK    3  A    between atoms: N_7  and  C_8
REMARK    4  A    between atoms: C_8  and  C_9
REMARK    5  A    between atoms: C_12  and  O_13
REMARK    6  A    between atoms: O_13  and  C_14
REMARK    7  A    between atoms: C_14  and  C_15
REMARK    8  A    between atoms: C_15  and  O_16
REMARK    9  A    between atoms: C_15  and  C_17
REMARK                            x       y       z     vdW  Elec       q    Type
REMARK                         _______ _______ _______ _____ _____    ______ ____
ROOT
ATOM      1  C   UNL     1      47.889   4.331  18.013  0.00  0.00    +0.000 A 
ATOM      2  C   UNL     1      46.999   5.296  18.463  0.00  0.00    +0.000 A 
ATOM      3  C   UNL     1      47.289   6.021  19.606  0.00  0.00    +0.000 A 
ATOM      4  C   UNL     1      48.476   5.835  20.322  0.00  0.00    +0.000 A 
ATOM      5  C   UNL     1      49.364   4.845  19.894  0.00  0.00    +0.000 A 
ATOM      6  C   UNL     1      49.067   4.098  18.739  0.00  0.00    +0.000 A 
ENDROOT
BRANCH   1   7
ATOM      7  C   UNL     1      47.596   3.593  16.740  0.00  0.00    +0.000 C 
BRANCH   7  10
ATOM      8  C   UNL     1      46.972   4.216  14.450  0.00  0.00    +0.000 C 
ATOM      9  O   UNL     1      47.625   3.307  13.962  0.00  0.00    +0.000 OA
ATOM     10  N   UNL     1      46.885   4.429  15.802  0.00  0.00    +0.000 N 
ATOM     11  H   UNL     1      46.264   5.138  16.167  0.00  0.00    +0.000 HD
BRANCH   8  15
ATOM     12  C   UNL     1      45.517   8.395  12.092  0.00  0.00    +0.000 C 
ATOM     13  N   UNL     1      45.548   7.026  12.560  0.00  0.00    +0.000 N 
ATOM     14  C   UNL     1      46.496   6.509  13.404  0.00  0.00    +0.000 A 
ATOM     15  C   UNL     1      46.215   5.168  13.625  0.00  0.00    +0.000 A 
ATOM     16  C   UNL     1      45.033   4.877  12.862  0.00  0.00    +0.000 A 
ATOM     17  C   UNL     1      44.263   3.719  12.664  0.00  0.00    +0.000 A 
ATOM     18  N   UNL     1      43.170   3.741  11.863  0.00  0.00    +0.000 NA
ATOM     19  C   UNL     1      42.832   4.896  11.253  0.00  0.00    +0.000 A 
ATOM     20  C   UNL     1      43.520   6.092  11.380  0.00  0.00    +0.000 A 
ATOM     21  C   UNL     1      44.643   6.053  12.210  0.00  0.00    +0.000 A 
ENDBRANCH   8  15
ENDBRANCH   7  10
ENDBRANCH   1   7
BRANCH   4  22
ATOM     22  O   UNL     1      48.807   6.599  21.423  0.00  0.00    +0.000 OA
BRANCH  22  23
ATOM     23  C   UNL     1      48.567   8.003  21.202  0.00  0.00    +0.000 C 
BRANCH  23  24
ATOM     24  C   UNL     1      49.777   8.772  20.676  0.00  0.00    +0.000 C 
BRANCH  24  25
ATOM     25  C   UNL     1      49.611   9.089  19.161  0.00  0.00    +0.000 C 
ATOM     26  C   UNL     1      48.134   9.227  18.728  0.00  0.00    +0.000 C 
ATOM     27  C   UNL     1      47.979   9.452  17.228  0.00  0.00    +0.000 C 
ATOM     28  C   UNL     1      48.675   8.358  16.431  0.00  0.00    +0.000 C 
ATOM     29  C   UNL     1      50.147   8.257  16.814  0.00  0.00    +0.000 C 
ATOM     30  C   UNL     1      50.321   8.021  18.312  0.00  0.00    +0.000 C 
ENDBRANCH  24  25
BRANCH  24  31
ATOM     31  O   UNL     1      50.977   8.028  20.890  0.00  0.00    +0.000 OA
ATOM     32  H   UNL     1      51.257   8.156  21.812  0.00  0.00    +0.000 HD
ENDBRANCH  24  31
ENDBRANCH  23  24
ENDBRANCH  22  23
ENDBRANCH   4  22
TORSDOF 8
ENDMDL
