MODEL 1
REMARK VINA RESULT:    -8.089      0.000      0.000
REMARK INTER + INTRA:         -12.562
REMARK INTER:                 -11.400
REMARK INTRA:                  -1.163
REMARK UNBOUND:                -1.163
REMARK  Name = 
REMARK  8 active torsions:
REMARK  status: ('A' for Active; 'I' for Inactive)
REMARK    1  A    between atoms: C_1  and  C_2
REMARK    2  A    between atoms: C_2  and  N_3
REMARK    3  A    between atoms: C_2  and  C_11
REMARK    4  A    between atoms: N_3  and  C_4
REMARK    5  A    between atoms: C_4  and  C_5
REMARK    6  A    between atoms: C_14  and  C_15
REMARK    7  A    between atoms: C_15  and  N_16
REMARK    8  A    between atoms: C_17  and  C_19
REMARK                            x       y       z     vdW  Elec       q    Type
REMARK                         _______ _______ _______ _____ _____    ______ ____
ROOT
ATOM      1  C   UNL     1      44.963   5.023  11.931  0.00  0.00    +0.000 A 
ATOM      2  C   UNL     1      45.457   4.484  13.133  0.00  0.00    +0.000 A 
ATOM      3  C   UNL     1      46.609   4.992  13.735  0.00  0.00    +0.000 A 
ATOM      4  C   UNL     1      47.278   6.084  13.174  0.00  0.00    +0.000 A 
ATOM      5  C   UNL     1      46.822   6.598  11.955  0.00  0.00    +0.000 A 
ATOM      6  C   UNL     1      45.681   6.071  11.337  0.00  0.00    +0.000 A 
ENDROOT
BRANCH   1   8
ATOM      7  C   UNL     1      42.470   5.340  11.523  0.00  0.00    +0.000 C 
ATOM      8  C   UNL     1      43.694   4.429  11.323  0.00  0.00    +0.000 C 
BRANCH   8   9
ATOM      9  N   UNL     1      43.822   4.109   9.887  0.00  0.00    +0.000 NA
ATOM     10  H   UNL     1      44.429   4.798   9.447  0.00  0.00    +0.000 HD
BRANCH   9  11
ATOM     11  C   UNL     1      44.378   2.772   9.658  0.00  0.00    +0.000 C 
BRANCH  11  12
ATOM     12  C   UNL     1      45.487   2.723   8.635  0.00  0.00    +0.000 A 
ATOM     13  C   UNL     1      46.080   1.489   8.336  0.00  0.00    +0.000 A 
ATOM     14  C   UNL     1      47.061   1.431   7.358  0.00  0.00    +0.000 A 
ATOM     15  N   UNL     1      47.481   2.507   6.662  0.00  0.00    +0.000 NA
ATOM     16  C   UNL     1      46.888   3.683   6.951  0.00  0.00    +0.000 A 
ATOM     17  C   UNL     1      45.895   3.836   7.909  0.00  0.00    +0.000 A 
ENDBRANCH  11  12
ENDBRANCH   9  11
ENDBRANCH   8   9
ENDBRANCH   1   8
BRANCH   4  18
ATOM     18  C   UNL     1      48.459   6.695  13.882  0.00  0.00    +0.000 C 
BRANCH  18  19
ATOM     19  N   UNL     1      48.195   6.879  15.284  0.00  0.00    +0.000 N 
ATOM     20  C   UNL     1      49.132   6.570  16.237  0.00  0.00    +0.000 C 
ATOM     21  O   UNL     1      50.259   6.173  15.949  0.00  0.00    +0.000 OA
ATOM     22  H   UNL     1      47.220   6.943  15.559  0.00  0.00    +0.000 HD
BRANCH  20  23
ATOM     23  C   UNL     1      48.743   6.808  17.630  0.00  0.00    +0.000 A 
ATOM     24  C   UNL     1      48.422   8.093  18.045  0.00  0.00    +0.000 A 
ATOM     25  S   UNL     1      47.968   8.187  19.687  0.00  0.00    +0.000 S 
ATOM     26  C   UNL     1      48.231   6.520  19.908  0.00  0.00    +0.000 A 
ATOM     27  N   UNL     1      48.056   5.943  21.128  0.00  0.00    +0.000 NA
ATOM     28  C   UNL     1      48.321   4.678  21.160  0.00  0.00    +0.000 A 
ATOM     29  N   UNL     1      48.732   3.937  20.084  0.00  0.00    +0.000 N 
ATOM     30  C   UNL     1      48.877   4.469  18.823  0.00  0.00    +0.000 A 
ATOM     31  O   UNL     1      49.175   3.765  17.862  0.00  0.00    +0.000 OA
ATOM     32  C   UNL     1      48.626   5.895  18.742  0.00  0.00    +0.000 A 
ATOM     33  H   UNL     1      48.897   2.946  20.173  0.00  0.00    +0.000 HD
ENDBRANCH  20  23
ENDBRANCH  18  19
ENDBRANCH   4  18
TORSDOF 7
ENDMDL
MODEL 2
REMARK VINA RESULT:    -7.869      1.378      1.992
REMARK INTER + INTRA:         -12.252
REMARK INTER:                 -10.954
REMARK INTRA:                  -1.298
REMARK UNBOUND:                -1.163
REMARK  Name = 
REMARK  8 active torsions:
REMARK  status: ('A' for Active; 'I' for Inactive)
REMARK    1  A    between atoms: C_1  and  C_2
REMARK    2  A    between atoms: C_2  and  N_3
REMARK    3  A    between atoms: C_2  and  C_11
REMARK    4  A    between atoms: N_3  and  C_4
REMARK    5  A    between atoms: C_4  and  C_5
REMARK    6  A    between atoms: C_14  and  C_15
REMARK    7  A    between atoms: C_15  and  N_16
REMARK    8  A    between atoms: C_17  and  C_19
REMARK                            x       y       z     vdW  Elec       q    Type
REMARK                         _______ _______ _______ _____ _____    ______ ____
ROOT
ATOM      1  C   UNL     1      45.398   4.592  11.971  0.00  0.00    +0.000 A 
ATOM      2  C   UNL     1      45.841   4.138  13.228  0.00  0.00    +0.000 A 
ATOM      3  C   UNL     1      46.829   4.820  13.938  0.00  0.00    +0.000 A 
ATOM      4  C   UNL     1      47.377   6.002  13.431  0.00  0.00    +0.000 A 
ATOM      5  C   UNL     1      46.978   6.438  12.162  0.00  0.00    +0.000 A 
ATOM      6  C   UNL     1      46.005   5.738  11.438  0.00  0.00    +0.000 A 
ENDROOT
BRANCH   1   8
ATOM      7  C   UNL     1      43.615   4.643  10.156  0.00  0.00    +0.000 C 
ATOM      8  C   UNL     1      44.308   3.807  11.245  0.00  0.00    +0.000 C 
BRANCH   8   9
ATOM      9  N   UNL     1      44.790   2.546  10.647  0.00  0.00    +0.000 NA
ATOM     10  H   UNL     1      44.338   1.763  11.113  0.00  0.00    +0.000 HD
BRANCH   9  11
ATOM     11  C   UNL     1      44.512   2.466   9.209  0.00  0.00    +0.000 C 
BRANCH  11  12
ATOM     12  C   UNL     1      45.739   2.326   8.342  0.00  0.00    +0.000 A 
ATOM     13  C   UNL     1      46.267   1.048   8.113  0.00  0.00    +0.000 A 
ATOM     14  C   UNL     1      47.361   0.909   7.274  0.00  0.00    +0.000 A 
ATOM     15  N   UNL     1      47.955   1.947   6.650  0.00  0.00    +0.000 NA
ATOM     16  C   UNL     1      47.424   3.167   6.868  0.00  0.00    +0.000 A 
ATOM     17  C   UNL     1      46.328   3.401   7.686  0.00  0.00    +0.000 A 
ENDBRANCH  11  12
ENDBRANCH   9  11
ENDBRANCH   8   9
ENDBRANCH   1   8
BRANCH   4  18
ATOM     18  C   UNL     1      48.368   6.790  14.247  0.00  0.00    +0.000 C 
BRANCH  18  19
ATOM     19  N   UNL     1      48.222   6.523  15.653  0.00  0.00    +0.000 N 
ATOM     20  C   UNL     1      49.294   6.157  16.428  0.00  0.00    +0.000 C 
ATOM     21  O   UNL     1      50.437   6.091  15.982  0.00  0.00    +0.000 OA
ATOM     22  H   UNL     1      47.286   6.310  15.981  0.00  0.00    +0.000 HD
BRANCH  20  23
ATOM     23  C   UNL     1      49.016   5.917  17.847  0.00  0.00    +0.000 A 
ATOM     24  C   UNL     1      49.289   4.675  18.402  0.00  0.00    +0.000 A 
ATOM     25  S   UNL     1      48.930   4.577  20.067  0.00  0.00    +0.000 S 
ATOM     26  C   UNL     1      48.353   6.178  20.089  0.00  0.00    +0.000 A 
ATOM     27  N   UNL     1      47.849   6.722  21.231  0.00  0.00    +0.000 NA
ATOM     28  C   UNL     1      47.418   7.932  21.097  0.00  0.00    +0.000 A 
ATOM     29  N   UNL     1      47.456   8.653  19.932  0.00  0.00    +0.000 N 
ATOM     30  C   UNL     1      47.997   8.160  18.767  0.00  0.00    +0.000 A 
ATOM     31  O   UNL     1      48.084   8.854  17.759  0.00  0.00    +0.000 OA
ATOM     32  C   UNL     1      48.463   6.789  18.856  0.00  0.00    +0.000 A 
ATOM     33  H   UNL     1      47.124   9.605  19.904  0.00  0.00    +0.000 HD
ENDBRANCH  20  23
ENDBRANCH  18  19
ENDBRANCH   4  18
TORSDOF 7
ENDMDL
MODEL 3
REMARK VINA RESULT:    -7.419      3.297      8.781
REMARK INTER + INTRA:         -11.618
REMARK INTER:                  -9.907
REMARK INTRA:                  -1.711
REMARK UNBOUND:                -1.163
REMARK  Name = 
REMARK  8 active torsions:
REMARK  status: ('A' for Active; 'I' for Inactive)
REMARK    1  A    between atoms: C_1  and  C_2
REMARK    2  A    between atoms: C_2  and  N_3
REMARK    3  A    between atoms: C_2  and  C_11
REMARK    4  A    between atoms: N_3  and  C_4
REMARK    5  A    between atoms: C_4  and  C_5
REMARK    6  A    between atoms: C_14  and  C_15
REMARK    7  A    between atoms: C_15  and  N_16
REMARK    8  A    between atoms: C_17  and  C_19
REMARK                            x       y       z     vdW  Elec       q    Type
REMARK                         _______ _______ _______ _____ _____    ______ ____
ROOT
ATOM      1  C   UNL     1      49.063   7.938  16.043  0.00  0.00    +0.000 A 
ATOM      2  C   UNL     1      48.096   8.833  15.549  0.00  0.00    +0.000 A 
ATOM      3  C   UNL     1      47.697   8.803  14.212  0.00  0.00    +0.000 A 
ATOM      4  C   UNL     1      48.224   7.848  13.337  0.00  0.00    +0.000 A 
ATOM      5  C   UNL     1      49.221   6.984  13.806  0.00  0.00    +0.000 A 
ATOM      6  C   UNL     1      49.639   7.032  15.142  0.00  0.00    +0.000 A 
ENDROOT
BRANCH   1   8
ATOM      7  C   UNL     1      48.301   8.527  18.399  0.00  0.00    +0.000 C 
ATOM      8  C   UNL     1      49.453   8.014  17.518  0.00  0.00    +0.000 C 
BRANCH   8   9
ATOM      9  N   UNL     1      49.940   6.732  18.065  0.00  0.00    +0.000 NA
ATOM     10  H   UNL     1      50.452   6.912  18.927  0.00  0.00    +0.000 HD
BRANCH   9  11
ATOM     11  C   UNL     1      48.849   5.794  18.350  0.00  0.00    +0.000 C 
BRANCH  11  12
ATOM     12  C   UNL     1      48.994   4.447  17.683  0.00  0.00    +0.000 A 
ATOM     13  C   UNL     1      47.957   3.980  16.865  0.00  0.00    +0.000 A 
ATOM     14  C   UNL     1      48.108   2.769  16.207  0.00  0.00    +0.000 A 
ATOM     15  N   UNL     1      49.214   2.004  16.306  0.00  0.00    +0.000 NA
ATOM     16  C   UNL     1      50.209   2.476  17.084  0.00  0.00    +0.000 A 
ATOM     17  C   UNL     1      50.148   3.678  17.775  0.00  0.00    +0.000 A 
ENDBRANCH  11  12
ENDBRANCH   9  11
ENDBRANCH   8   9
ENDBRANCH   1   8
BRANCH   4  18
ATOM     18  C   UNL     1      47.716   7.753  11.923  0.00  0.00    +0.000 C 
BRANCH  18  19
ATOM     19  N   UNL     1      46.978   6.536  11.710  0.00  0.00    +0.000 N 
ATOM     20  C   UNL     1      45.615   6.488  11.862  0.00  0.00    +0.000 C 
ATOM     21  O   UNL     1      44.947   7.484  12.133  0.00  0.00    +0.000 OA
ATOM     22  H   UNL     1      47.505   5.671  11.752  0.00  0.00    +0.000 HD
BRANCH  20  23
ATOM     23  C   UNL     1      44.980   5.191  11.611  0.00  0.00    +0.000 A 
ATOM     24  C   UNL     1      44.276   4.561  12.627  0.00  0.00    +0.000 A 
ATOM     25  S   UNL     1      43.581   3.075  12.157  0.00  0.00    +0.000 S 
ATOM     26  C   UNL     1      44.239   3.204  10.592  0.00  0.00    +0.000 A 
ATOM     27  N   UNL     1      44.048   2.219   9.673  0.00  0.00    +0.000 NA
ATOM     28  C   UNL     1      44.629   2.432   8.539  0.00  0.00    +0.000 A 
ATOM     29  N   UNL     1      45.371   3.543   8.235  0.00  0.00    +0.000 N 
ATOM     30  C   UNL     1      45.552   4.583   9.118  0.00  0.00    +0.000 A 
ATOM     31  O   UNL     1      46.160   5.599   8.793  0.00  0.00    +0.000 OA
ATOM     32  C   UNL     1      44.949   4.376  10.420  0.00  0.00    +0.000 A 
ATOM     33  H   UNL     1      45.777   3.657   7.319  0.00  0.00    +0.000 HD
ENDBRANCH  20  23
ENDBRANCH  18  19
ENDBRANCH   4  18
TORSDOF 7
ENDMDL
MODEL 4
REMARK VINA RESULT:    -7.360      1.993      2.657
REMARK INTER + INTRA:         -11.534
REMARK INTER:                 -10.182
REMARK INTRA:                  -1.353
REMARK UNBOUND:                -1.163
REMARK  Name = 
REMARK  8 active torsions:
REMARK  status: ('A' for Active; 'I' for Inactive)
REMARK    1  A    between atoms: C_1  and  C_2
REMARK    2  A    between atoms: C_2  and  N_3
REMARK    3  A    between atoms: C_2  and  C_11
REMARK    4  A    between atoms: N_3  and  C_4
REMARK    5  A    between atoms: C_4  and  C_5
REMARK    6  A    between atoms: C_14  and  C_15
REMARK    7  A    between atoms: C_15  and  N_16
REMARK    8  A    between atoms: C_17  and  C_19
REMARK                            x       y       z     vdW  Elec       q    Type
REMARK                         _______ _______ _______ _____ _____    ______ ____
ROOT
ATOM      1  C   UNL     1      45.375   5.026  11.841  0.00  0.00    +0.000 A 
ATOM      2  C   UNL     1      45.748   6.083  10.991  0.00  0.00    +0.000 A 
ATOM      3  C   UNL     1      46.819   6.922  11.304  0.00  0.00    +0.000 A 
ATOM      4  C   UNL     1      47.575   6.702  12.459  0.00  0.00    +0.000 A 
ATOM      5  C   UNL     1      47.184   5.683  13.336  0.00  0.00    +0.000 A 
ATOM      6  C   UNL     1      46.093   4.858  13.033  0.00  0.00    +0.000 A 
ENDROOT
BRANCH   1   8
ATOM      7  C   UNL     1      42.860   4.661  11.987  0.00  0.00    +0.000 C 
ATOM      8  C   UNL     1      44.199   4.137  11.440  0.00  0.00    +0.000 C 
BRANCH   8   9
ATOM      9  N   UNL     1      44.077   3.945   9.981  0.00  0.00    +0.000 NA
ATOM     10  H   UNL     1      44.691   4.604   9.507  0.00  0.00    +0.000 HD
BRANCH   9  11
ATOM     11  C   UNL     1      44.431   2.584   9.563  0.00  0.00    +0.000 C 
BRANCH  11  12
ATOM     12  C   UNL     1      45.508   2.514   8.508  0.00  0.00    +0.000 A 
ATOM     13  C   UNL     1      45.899   3.692   7.858  0.00  0.00    +0.000 A 
ATOM     14  C   UNL     1      46.925   3.642   6.928  0.00  0.00    +0.000 A 
ATOM     15  N   UNL     1      47.584   2.509   6.609  0.00  0.00    +0.000 NA
ATOM     16  C   UNL     1      47.206   1.388   7.256  0.00  0.00    +0.000 A 
ATOM     17  C   UNL     1      46.194   1.344   8.205  0.00  0.00    +0.000 A 
ENDBRANCH  11  12
ENDBRANCH   9  11
ENDBRANCH   8   9
ENDBRANCH   1   8
BRANCH   4  18
ATOM     18  C   UNL     1      48.791   7.545  12.741  0.00  0.00    +0.000 C 
BRANCH  18  19
ATOM     19  N   UNL     1      49.620   6.951  13.756  0.00  0.00    +0.000 N 
ATOM     20  C   UNL     1      50.155   7.699  14.773  0.00  0.00    +0.000 C 
ATOM     21  O   UNL     1      49.916   8.897  14.907  0.00  0.00    +0.000 OA
ATOM     22  H   UNL     1      50.043   6.056  13.531  0.00  0.00    +0.000 HD
BRANCH  20  23
ATOM     23  C   UNL     1      50.977   6.975  15.747  0.00  0.00    +0.000 A 
ATOM     24  C   UNL     1      52.346   7.195  15.792  0.00  0.00    +0.000 A 
ATOM     25  S   UNL     1      53.145   6.291  16.999  0.00  0.00    +0.000 S 
ATOM     26  C   UNL     1      51.692   5.540  17.469  0.00  0.00    +0.000 A 
ATOM     27  N   UNL     1      51.680   4.602  18.455  0.00  0.00    +0.000 NA
ATOM     28  C   UNL     1      50.517   4.091  18.688  0.00  0.00    +0.000 A 
ATOM     29  N   UNL     1      49.363   4.440  18.036  0.00  0.00    +0.000 N 
ATOM     30  C   UNL     1      49.321   5.415  17.065  0.00  0.00    +0.000 A 
ATOM     31  O   UNL     1      48.261   5.759  16.551  0.00  0.00    +0.000 OA
ATOM     32  C   UNL     1      50.610   5.995  16.741  0.00  0.00    +0.000 A 
ATOM     33  H   UNL     1      48.482   4.019  18.286  0.00  0.00    +0.000 HD
ENDBRANCH  20  23
ENDBRANCH  18  19
ENDBRANCH   4  18
TORSDOF 7
ENDMDL
MODEL 5
REMARK VINA RESULT:    -7.325      3.538      8.545
REMARK INTER + INTRA:         -11.485
REMARK INTER:                 -10.046
REMARK INTRA:                  -1.439
REMARK UNBOUND:                -1.163
REMARK  Name = 
REMARK  8 active torsions:
REMARK  status: ('A' for Active; 'I' for Inactive)
REMARK    1  A    between atoms: C_1  and  C_2
REMARK    2  A    between atoms: C_2  and  N_3
REMARK    3  A    between atoms: C_2  and  C_11
REMARK    4  A    between atoms: N_3  and  C_4
REMARK    5  A    between atoms: C_4  and  C_5
REMARK    6  A    between atoms: C_14  and  C_15
REMARK    7  A    between atoms: C_15  and  N_16
REMARK    8  A    between atoms: C_17  and  C_19
REMARK                            x       y       z     vdW  Elec       q    Type
REMARK                         _______ _______ _______ _____ _____    ______ ____
ROOT
ATOM      1  C   UNL     1      49.915   6.981  16.014  0.00  0.00    +0.000 A 
ATOM      2  C   UNL     1      50.677   7.785  15.147  0.00  0.00    +0.000 A 
ATOM      3  C   UNL     1      50.250   8.054  13.846  0.00  0.00    +0.000 A 
ATOM      4  C   UNL     1      49.026   7.558  13.386  0.00  0.00    +0.000 A 
ATOM      5  C   UNL     1      48.283   6.719  14.223  0.00  0.00    +0.000 A 
ATOM      6  C   UNL     1      48.724   6.429  15.520  0.00  0.00    +0.000 A 
ENDROOT
BRANCH   1   8
ATOM      7  C   UNL     1      51.193   7.939  17.996  0.00  0.00    +0.000 C 
ATOM      8  C   UNL     1      50.430   6.729  17.429  0.00  0.00    +0.000 C 
BRANCH   8   9
ATOM      9  N   UNL     1      49.370   6.343  18.382  0.00  0.00    +0.000 NA
ATOM     10  H   UNL     1      48.476   6.326  17.895  0.00  0.00    +0.000 HD
BRANCH   9  11
ATOM     11  C   UNL     1      49.607   5.026  18.982  0.00  0.00    +0.000 C 
BRANCH  11  12
ATOM     12  C   UNL     1      49.577   3.879  18.002  0.00  0.00    +0.000 A 
ATOM     13  C   UNL     1      50.740   3.124  17.805  0.00  0.00    +0.000 A 
ATOM     14  C   UNL     1      50.703   2.036  16.947  0.00  0.00    +0.000 A 
ATOM     15  N   UNL     1      49.593   1.650  16.285  0.00  0.00    +0.000 NA
ATOM     16  C   UNL     1      48.478   2.378  16.499  0.00  0.00    +0.000 A 
ATOM     17  C   UNL     1      48.421   3.478  17.343  0.00  0.00    +0.000 A 
ENDBRANCH  11  12
ENDBRANCH   9  11
ENDBRANCH   8   9
ENDBRANCH   1   8
BRANCH   4  18
ATOM     18  C   UNL     1      48.522   7.935  12.017  0.00  0.00    +0.000 C 
BRANCH  18  19
ATOM     19  N   UNL     1      47.768   6.865  11.421  0.00  0.00    +0.000 N 
ATOM     20  C   UNL     1      46.396   6.861  11.433  0.00  0.00    +0.000 C 
ATOM     21  O   UNL     1      45.738   7.788  11.900  0.00  0.00    +0.000 OA
ATOM     22  H   UNL     1      48.258   5.989  11.276  0.00  0.00    +0.000 HD
BRANCH  20  23
ATOM     23  C   UNL     1      45.746   5.717  10.787  0.00  0.00    +0.000 A 
ATOM     24  C   UNL     1      45.847   5.552   9.413  0.00  0.00    +0.000 A 
ATOM     25  S   UNL     1      45.054   4.158   8.832  0.00  0.00    +0.000 S 
ATOM     26  C   UNL     1      44.510   3.754  10.393  0.00  0.00    +0.000 A 
ATOM     27  N   UNL     1      43.725   2.661  10.597  0.00  0.00    +0.000 NA
ATOM     28  C   UNL     1      43.359   2.491  11.824  0.00  0.00    +0.000 A 
ATOM     29  N   UNL     1      43.715   3.306  12.867  0.00  0.00    +0.000 N 
ATOM     30  C   UNL     1      44.543   4.394  12.715  0.00  0.00    +0.000 A 
ATOM     31  O   UNL     1      44.904   5.062  13.680  0.00  0.00    +0.000 OA
ATOM     32  C   UNL     1      44.953   4.649  11.348  0.00  0.00    +0.000 A 
ATOM     33  H   UNL     1      43.413   3.100  13.808  0.00  0.00    +0.000 HD
ENDBRANCH  20  23
ENDBRANCH  18  19
ENDBRANCH   4  18
TORSDOF 7
ENDMDL
MODEL 6
REMARK VINA RESULT:    -6.655      3.396      8.275
REMARK INTER + INTRA:         -10.542
REMARK INTER:                  -8.473
REMARK INTRA:                  -2.069
REMARK UNBOUND:                -1.163
REMARK  Name = 
REMARK  8 active torsions:
REMARK  status: ('A' for Active; 'I' for Inactive)
REMARK    1  A    between atoms: C_1  and  C_2
REMARK    2  A    between atoms: C_2  and  N_3
REMARK    3  A    between atoms: C_2  and  C_11
REMARK    4  A    between atoms: N_3  and  C_4
REMARK    5  A    between atoms: C_4  and  C_5
REMARK    6  A    between atoms: C_14  and  C_15
REMARK    7  A    between atoms: C_15  and  N_16
REMARK    8  A    between atoms: C_17  and  C_19
REMARK                            x       y       z     vdW  Elec       q    Type
REMARK                         _______ _______ _______ _____ _____    ______ ____
ROOT
ATOM      1  C   UNL     1      49.385   7.542  18.904  0.00  0.00    +0.000 A 
ATOM      2  C   UNL     1      48.258   8.379  18.801  0.00  0.00    +0.000 A 
ATOM      3  C   UNL     1      47.934   9.013  17.602  0.00  0.00    +0.000 A 
ATOM      4  C   UNL     1      48.705   8.798  16.456  0.00  0.00    +0.000 A 
ATOM      5  C   UNL     1      49.855   8.005  16.558  0.00  0.00    +0.000 A 
ATOM      6  C   UNL     1      50.194   7.389  17.769  0.00  0.00    +0.000 A 
ENDROOT
BRANCH   1   8
ATOM      7  C   UNL     1      48.492   6.944  21.212  0.00  0.00    +0.000 C 
ATOM      8  C   UNL     1      49.684   6.869  20.242  0.00  0.00    +0.000 C 
BRANCH   8   9
ATOM      9  N   UNL     1      50.105   5.459  20.111  0.00  0.00    +0.000 NA
ATOM     10  H   UNL     1      50.733   5.228  20.878  0.00  0.00    +0.000 HD
BRANCH   9  11
ATOM     11  C   UNL     1      48.970   4.531  20.131  0.00  0.00    +0.000 C 
BRANCH  11  12
ATOM     12  C   UNL     1      48.495   4.096  18.766  0.00  0.00    +0.000 A 
ATOM     13  C   UNL     1      49.193   3.084  18.094  0.00  0.00    +0.000 A 
ATOM     14  C   UNL     1      48.729   2.643  16.865  0.00  0.00    +0.000 A 
ATOM     15  N   UNL     1      47.623   3.135  16.269  0.00  0.00    +0.000 NA
ATOM     16  C   UNL     1      46.954   4.097  16.937  0.00  0.00    +0.000 A 
ATOM     17  C   UNL     1      47.341   4.595  18.173  0.00  0.00    +0.000 A 
ENDBRANCH  11  12
ENDBRANCH   9  11
ENDBRANCH   8   9
ENDBRANCH   1   8
BRANCH   4  18
ATOM     18  C   UNL     1      48.293   9.402  15.139  0.00  0.00    +0.000 C 
BRANCH  18  19
ATOM     19  N   UNL     1      47.272   8.619  14.497  0.00  0.00    +0.000 N 
ATOM     20  C   UNL     1      47.390   8.221  13.189  0.00  0.00    +0.000 C 
ATOM     21  O   UNL     1      48.389   8.462  12.515  0.00  0.00    +0.000 OA
ATOM     22  H   UNL     1      46.351   8.635  14.922  0.00  0.00    +0.000 HD
BRANCH  20  23
ATOM     23  C   UNL     1      46.285   7.421  12.653  0.00  0.00    +0.000 A 
ATOM     24  C   UNL     1      45.234   8.050  12.000  0.00  0.00    +0.000 A 
ATOM     25  S   UNL     1      44.048   6.971  11.417  0.00  0.00    +0.000 S 
ATOM     26  C   UNL     1      44.878   5.631  12.061  0.00  0.00    +0.000 A 
ATOM     27  N   UNL     1      44.370   4.374  11.942  0.00  0.00    +0.000 NA
ATOM     28  C   UNL     1      45.086   3.457  12.504  0.00  0.00    +0.000 A 
ATOM     29  N   UNL     1      46.268   3.679  13.160  0.00  0.00    +0.000 N 
ATOM     30  C   UNL     1      46.841   4.926  13.264  0.00  0.00    +0.000 A 
ATOM     31  O   UNL     1      47.938   5.083  13.794  0.00  0.00    +0.000 OA
ATOM     32  C   UNL     1      46.057   5.997  12.681  0.00  0.00    +0.000 A 
ATOM     33  H   UNL     1      46.791   2.911  13.554  0.00  0.00    +0.000 HD
ENDBRANCH  20  23
ENDBRANCH  18  19
ENDBRANCH   4  18
TORSDOF 7
ENDMDL
MODEL 7
REMARK VINA RESULT:    -6.080      3.388      9.812
REMARK INTER + INTRA:          -9.731
REMARK INTER:                  -8.191
REMARK INTRA:                  -1.539
REMARK UNBOUND:                -1.163
REMARK  Name = 
REMARK  8 active torsions:
REMARK  status: ('A' for Active; 'I' for Inactive)
REMARK    1  A    between atoms: C_1  and  C_2
REMARK    2  A    between atoms: C_2  and  N_3
REMARK    3  A    between atoms: C_2  and  C_11
REMARK    4  A    between atoms: N_3  and  C_4
REMARK    5  A    between atoms: C_4  and  C_5
REMARK    6  A    between atoms: C_14  and  C_15
REMARK    7  A    between atoms: C_15  and  N_16
REMARK    8  A    between atoms: C_17  and  C_19
REMARK                            x       y       z     vdW  Elec       q    Type
REMARK                         _______ _______ _______ _____ _____    ______ ____
ROOT
ATOM      1  C   UNL     1      49.115   5.422  17.427  0.00  0.00    +0.000 A 
ATOM      2  C   UNL     1      49.877   6.481  16.899  0.00  0.00    +0.000 A 
ATOM      3  C   UNL     1      49.634   6.980  15.618  0.00  0.00    +0.000 A 
ATOM      4  C   UNL     1      48.593   6.461  14.843  0.00  0.00    +0.000 A 
ATOM      5  C   UNL     1      47.859   5.377  15.340  0.00  0.00    +0.000 A 
ATOM      6  C   UNL     1      48.121   4.860  16.614  0.00  0.00    +0.000 A 
ENDROOT
BRANCH   1   8
ATOM      7  C   UNL     1      50.869   5.238  19.264  0.00  0.00    +0.000 C 
ATOM      8  C   UNL     1      49.424   4.925  18.838  0.00  0.00    +0.000 C 
BRANCH   8   9
ATOM      9  N   UNL     1      48.499   5.449  19.863  0.00  0.00    +0.000 NA
ATOM     10  H   UNL     1      48.136   4.672  20.411  0.00  0.00    +0.000 HD
BRANCH   9  11
ATOM     11  C   UNL     1      49.147   6.404  20.767  0.00  0.00    +0.000 C 
BRANCH  11  12
ATOM     12  C   UNL     1      48.745   7.842  20.549  0.00  0.00    +0.000 A 
ATOM     13  C   UNL     1      47.494   8.119  19.984  0.00  0.00    +0.000 A 
ATOM     14  C   UNL     1      47.098   9.439  19.832  0.00  0.00    +0.000 A 
ATOM     15  N   UNL     1      47.856  10.490  20.207  0.00  0.00    +0.000 NA
ATOM     16  C   UNL     1      49.050  10.205  20.765  0.00  0.00    +0.000 A 
ATOM     17  C   UNL     1      49.526   8.916  20.961  0.00  0.00    +0.000 A 
ENDBRANCH  11  12
ENDBRANCH   9  11
ENDBRANCH   8   9
ENDBRANCH   1   8
BRANCH   4  18
ATOM     18  C   UNL     1      48.268   7.071  13.504  0.00  0.00    +0.000 C 
BRANCH  18  19
ATOM     19  N   UNL     1      47.503   6.168  12.686  0.00  0.00    +0.000 N 
ATOM     20  C   UNL     1      46.487   6.616  11.880  0.00  0.00    +0.000 C 
ATOM     21  O   UNL     1      46.212   7.809  11.769  0.00  0.00    +0.000 OA
ATOM     22  H   UNL     1      47.522   5.188  12.950  0.00  0.00    +0.000 HD
BRANCH  20  23
ATOM     23  C   UNL     1      45.787   5.597  11.092  0.00  0.00    +0.000 A 
ATOM     24  C   UNL     1      45.876   5.616   9.707  0.00  0.00    +0.000 A 
ATOM     25  S   UNL     1      45.024   4.347   8.951  0.00  0.00    +0.000 S 
ATOM     26  C   UNL     1      44.470   3.758  10.448  0.00  0.00    +0.000 A 
ATOM     27  N   UNL     1      43.641   2.680  10.509  0.00  0.00    +0.000 NA
ATOM     28  C   UNL     1      43.273   2.360  11.706  0.00  0.00    +0.000 A 
ATOM     29  N   UNL     1      43.667   3.010  12.846  0.00  0.00    +0.000 N 
ATOM     30  C   UNL     1      44.538   4.075  12.835  0.00  0.00    +0.000 A 
ATOM     31  O   UNL     1      44.931   4.591  13.877  0.00  0.00    +0.000 OA
ATOM     32  C   UNL     1      44.953   4.496  11.510  0.00  0.00    +0.000 A 
ATOM     33  H   UNL     1      43.361   2.692  13.753  0.00  0.00    +0.000 HD
ENDBRANCH  20  23
ENDBRANCH  18  19
ENDBRANCH   4  18
TORSDOF 7
ENDMDL
MODEL 8
REMARK VINA RESULT:    -6.072      5.180      8.278
REMARK INTER + INTRA:          -9.719
REMARK INTER:                  -8.518
REMARK INTRA:                  -1.201
REMARK UNBOUND:                -1.163
REMARK  Name = 
REMARK  8 active torsions:
REMARK  status: ('A' for Active; 'I' for Inactive)
REMARK    1  A    between atoms: C_1  and  C_2
REMARK    2  A    between atoms: C_2  and  N_3
REMARK    3  A    between atoms: C_2  and  C_11
REMARK    4  A    between atoms: N_3  and  C_4
REMARK    5  A    between atoms: C_4  and  C_5
REMARK    6  A    between atoms: C_14  and  C_15
REMARK    7  A    between atoms: C_15  and  N_16
REMARK    8  A    between atoms: C_17  and  C_19
REMARK                            x       y       z     vdW  Elec       q    Type
REMARK                         _______ _______ _______ _____ _____    ______ ____
ROOT
ATOM      1  C   UNL     1      51.798   8.592  11.762  0.00  0.00    +0.000 A 
ATOM      2  C   UNL     1      51.639   8.614  13.160  0.00  0.00    +0.000 A 
ATOM      3  C   UNL     1      50.460   8.172  13.762  0.00  0.00    +0.000 A 
ATOM      4  C   UNL     1      49.419   7.656  12.985  0.00  0.00    +0.000 A 
ATOM      5  C   UNL     1      49.548   7.673  11.591  0.00  0.00    +0.000 A 
ATOM      6  C   UNL     1      50.721   8.140  10.987  0.00  0.00    +0.000 A 
ENDROOT
BRANCH   1   8
ATOM      7  C   UNL     1      53.648  10.336  11.875  0.00  0.00    +0.000 C 
ATOM      8  C   UNL     1      53.114   9.082  11.162  0.00  0.00    +0.000 C 
BRANCH   8   9
ATOM      9  N   UNL     1      54.174   8.053  11.147  0.00  0.00    +0.000 NA
ATOM     10  H   UNL     1      53.755   7.143  11.329  0.00  0.00    +0.000 HD
BRANCH   9  11
ATOM     11  C   UNL     1      54.885   7.999   9.866  0.00  0.00    +0.000 C 
BRANCH  11  12
ATOM     12  C   UNL     1      54.119   7.326   8.754  0.00  0.00    +0.000 A 
ATOM     13  C   UNL     1      54.088   5.926   8.702  0.00  0.00    +0.000 A 
ATOM     14  C   UNL     1      53.341   5.303   7.714  0.00  0.00    +0.000 A 
ATOM     15  N   UNL     1      52.627   5.975   6.788  0.00  0.00    +0.000 NA
ATOM     16  C   UNL     1      52.655   7.321   6.863  0.00  0.00    +0.000 A 
ATOM     17  C   UNL     1      53.369   8.030   7.819  0.00  0.00    +0.000 A 
ENDBRANCH  11  12
ENDBRANCH   9  11
ENDBRANCH   8   9
ENDBRANCH   1   8
BRANCH   4  18
ATOM     18  C   UNL     1      48.191   7.085  13.645  0.00  0.00    +0.000 C 
BRANCH  18  19
ATOM     19  N   UNL     1      47.481   6.200  12.761  0.00  0.00    +0.000 N 
ATOM     20  C   UNL     1      46.393   6.625  12.042  0.00  0.00    +0.000 C 
ATOM     21  O   UNL     1      45.999   7.789  12.070  0.00  0.00    +0.000 OA
ATOM     22  H   UNL     1      47.607   5.205  12.916  0.00  0.00    +0.000 HD
BRANCH  20  23
ATOM     23  C   UNL     1      45.760   5.629  11.172  0.00  0.00    +0.000 A 
ATOM     24  C   UNL     1      45.855   5.759   9.794  0.00  0.00    +0.000 A 
ATOM     25  S   UNL     1      45.086   4.502   8.935  0.00  0.00    +0.000 S 
ATOM     26  C   UNL     1      44.561   3.768  10.378  0.00  0.00    +0.000 A 
ATOM     27  N   UNL     1      43.800   2.640  10.349  0.00  0.00    +0.000 NA
ATOM     28  C   UNL     1      43.446   2.209  11.515  0.00  0.00    +0.000 A 
ATOM     29  N   UNL     1      43.793   2.793  12.705  0.00  0.00    +0.000 N 
ATOM     30  C   UNL     1      44.598   3.906  12.783  0.00  0.00    +0.000 A 
ATOM     31  O   UNL     1      44.953   4.364  13.865  0.00  0.00    +0.000 OA
ATOM     32  C   UNL     1      44.993   4.451  11.498  0.00  0.00    +0.000 A 
ATOM     33  H   UNL     1      43.502   2.388  13.582  0.00  0.00    +0.000 HD
ENDBRANCH  20  23
ENDBRANCH  18  19
ENDBRANCH   4  18
TORSDOF 7
ENDMDL
MODEL 9
REMARK VINA RESULT:    -5.935      3.118      5.193
REMARK INTER + INTRA:          -9.526
REMARK INTER:                  -8.536
REMARK INTRA:                  -0.990
REMARK UNBOUND:                -1.163
REMARK  Name = 
REMARK  8 active torsions:
REMARK  status: ('A' for Active; 'I' for Inactive)
REMARK    1  A    between atoms: C_1  and  C_2
REMARK    2  A    between atoms: C_2  and  N_3
REMARK    3  A    between atoms: C_2  and  C_11
REMARK    4  A    between atoms: N_3  and  C_4
REMARK    5  A    between atoms: C_4  and  C_5
REMARK    6  A    between atoms: C_14  and  C_15
REMARK    7  A    between atoms: C_15  and  N_16
REMARK    8  A    between atoms: C_17  and  C_19
REMARK                            x       y       z     vdW  Elec       q    Type
REMARK                         _______ _______ _______ _____ _____    ______ ____
ROOT
ATOM      1  C   UNL     1      48.347   8.038  14.206  0.00  0.00    +0.000 A 
ATOM      2  C   UNL     1      48.447   6.707  14.653  0.00  0.00    +0.000 A 
ATOM      3  C   UNL     1      48.726   6.409  15.987  0.00  0.00    +0.000 A 
ATOM      4  C   UNL     1      48.873   7.435  16.925  0.00  0.00    +0.000 A 
ATOM      5  C   UNL     1      48.822   8.763  16.484  0.00  0.00    +0.000 A 
ATOM      6  C   UNL     1      48.568   9.061  15.140  0.00  0.00    +0.000 A 
ENDROOT
BRANCH   1   8
ATOM      7  C   UNL     1      49.041   7.621  11.793  0.00  0.00    +0.000 C 
ATOM      8  C   UNL     1      48.033   8.301  12.735  0.00  0.00    +0.000 C 
BRANCH   8   9
ATOM      9  N   UNL     1      46.666   7.899  12.344  0.00  0.00    +0.000 NA
ATOM     10  H   UNL     1      46.272   8.612  11.735  0.00  0.00    +0.000 HD
BRANCH   9  11
ATOM     11  C   UNL     1      46.640   6.610  11.645  0.00  0.00    +0.000 C 
BRANCH  11  12
ATOM     12  C   UNL     1      45.299   5.917  11.661  0.00  0.00    +0.000 A 
ATOM     13  C   UNL     1      44.883   5.217  10.522  0.00  0.00    +0.000 A 
ATOM     14  C   UNL     1      43.677   4.534  10.551  0.00  0.00    +0.000 A 
ATOM     15  N   UNL     1      42.870   4.498  11.631  0.00  0.00    +0.000 NA
ATOM     16  C   UNL     1      43.294   5.164  12.724  0.00  0.00    +0.000 A 
ATOM     17  C   UNL     1      44.487   5.870  12.788  0.00  0.00    +0.000 A 
ENDBRANCH  11  12
ENDBRANCH   9  11
ENDBRANCH   8   9
ENDBRANCH   1   8
BRANCH   4  18
ATOM     18  C   UNL     1      49.071   7.108  18.382  0.00  0.00    +0.000 C 
BRANCH  18  19
ATOM     19  N   UNL     1      49.959   5.989  18.554  0.00  0.00    +0.000 N 
ATOM     20  C   UNL     1      51.314   6.115  18.379  0.00  0.00    +0.000 C 
ATOM     21  O   UNL     1      51.847   7.192  18.122  0.00  0.00    +0.000 OA
ATOM     22  H   UNL     1      49.542   5.065  18.499  0.00  0.00    +0.000 HD
BRANCH  20  23
ATOM     23  C   UNL     1      52.110   4.902  18.589  0.00  0.00    +0.000 A 
ATOM     24  C   UNL     1      53.306   4.976  19.288  0.00  0.00    +0.000 A 
ATOM     25  S   UNL     1      54.090   3.471  19.462  0.00  0.00    +0.000 S 
ATOM     26  C   UNL     1      52.879   2.679  18.566  0.00  0.00    +0.000 A 
ATOM     27  N   UNL     1      52.964   1.346  18.306  0.00  0.00    +0.000 NA
ATOM     28  C   UNL     1      51.994   0.882  17.589  0.00  0.00    +0.000 A 
ATOM     29  N   UNL     1      50.942   1.624  17.120  0.00  0.00    +0.000 N 
ATOM     30  C   UNL     1      50.792   2.964  17.397  0.00  0.00    +0.000 A 
ATOM     31  O   UNL     1      49.802   3.587  17.025  0.00  0.00    +0.000 OA
ATOM     32  C   UNL     1      51.876   3.542  18.169  0.00  0.00    +0.000 A 
ATOM     33  H   UNL     1      50.204   1.192  16.586  0.00  0.00    +0.000 HD
ENDBRANCH  20  23
ENDBRANCH  18  19
ENDBRANCH   4  18
TORSDOF 7
ENDMDL
