MODEL 1
REMARK VINA RESULT:    -7.431      0.000      0.000
REMARK INTER + INTRA:         -10.476
REMARK INTER:                  -9.603
REMARK INTRA:                  -0.873
REMARK UNBOUND:                -0.873
REMARK  Name = 
REMARK  5 active torsions:
REMARK  status: ('A' for Active; 'I' for Inactive)
REMARK    1  A    between atoms: C_2  and  C_4
REMARK    2  A    between atoms: C_8  and  S_9
REMARK    3  A    between atoms: S_9  and  C_10
REMARK    4  A    between atoms: C_10  and  C_11
REMARK    5  A    between atoms: C_16  and  C_17
REMARK                            x       y       z     vdW  Elec       q    Type
REMARK                         _______ _______ _______ _____ _____    ______ ____
ROOT
ATOM      1  C   UNL     1      47.258   7.086  12.393  0.00  0.00    +0.000 A 
ATOM      2  C   UNL     1      46.679   8.301  12.771  0.00  0.00    +0.000 A 
ATOM      3  C   UNL     1      45.398   8.617  12.337  0.00  0.00    +0.000 A 
ATOM      4  F   UNL     1      44.852   9.788  12.694  0.00  0.00    +0.000 F 
ATOM      5  C   UNL     1      44.642   7.709  11.601  0.00  0.00    +0.000 A 
ATOM      6  C   UNL     1      45.162   6.443  11.296  0.00  0.00    +0.000 A 
ATOM      7  C   UNL     1      46.496   6.194  11.626  0.00  0.00    +0.000 A 
ENDROOT
BRANCH   6   8
ATOM      8  C   UNL     1      44.237   5.343  10.787  0.00  0.00    +0.000 C 
ATOM      9  C   UNL     1      42.936   5.354  11.617  0.00  0.00    +0.000 C 
ATOM     10  C   UNL     1      43.144   4.734  13.000  0.00  0.00    +0.000 C 
ATOM     11  N   UNL     1      43.583   3.342  12.904  0.00  0.00    +0.000 NA
ATOM     12  C   UNL     1      44.830   3.219  12.154  0.00  0.00    +0.000 C 
ATOM     13  C   UNL     1      44.785   3.897  10.775  0.00  0.00    +0.000 C 
ATOM     14  H   UNL     1      42.858   2.794  12.442  0.00  0.00    +0.000 HD
ENDBRANCH   6   8
BRANCH   1  15
ATOM     15  C   UNL     1      48.595   6.657  12.950  0.00  0.00    +0.000 C 
BRANCH  15  16
ATOM     16  S   UNL     1      49.278   7.794  14.210  0.00  0.00    +0.000 S 
BRANCH  16  21
ATOM     17  C   UNL     1      48.126   4.938  16.659  0.00  0.00    +0.000 A 
ATOM     18  C   UNL     1      48.058   5.515  17.918  0.00  0.00    +0.000 A 
ATOM     19  C   UNL     1      48.441   6.846  18.044  0.00  0.00    +0.000 A 
ATOM     20  C   UNL     1      48.855   7.549  16.913  0.00  0.00    +0.000 A 
ATOM     21  C   UNL     1      48.862   6.897  15.684  0.00  0.00    +0.000 A 
ATOM     22  N   UNL     1      48.525   5.601  15.542  0.00  0.00    +0.000 NA
BRANCH  17  24
ATOM     23  N   UNL     1      46.965   2.971  17.450  0.00  0.00    +0.000 N 
ATOM     24  C   UNL     1      47.749   3.506  16.457  0.00  0.00    +0.000 C 
ATOM     25  O   UNL     1      48.087   2.859  15.481  0.00  0.00    +0.000 OA
ATOM     26  H   UNL     1      46.654   2.015  17.381  0.00  0.00    +0.000 HD
ATOM     27  H   UNL     1      46.685   3.552  18.230  0.00  0.00    +0.000 HD
ENDBRANCH  17  24
ENDBRANCH  16  21
ENDBRANCH  15  16
ENDBRANCH   1  15
TORSDOF 5
ENDMDL
MODEL 2
REMARK VINA RESULT:    -7.257      3.791      7.218
REMARK INTER + INTRA:         -10.251
REMARK INTER:                  -9.501
REMARK INTRA:                  -0.750
REMARK UNBOUND:                -0.873
REMARK  Name = 
REMARK  5 active torsions:
REMARK  status: ('A' for Active; 'I' for Inactive)
REMARK    1  A    between atoms: C_2  and  C_4
REMARK    2  A    between atoms: C_8  and  S_9
REMARK    3  A    between atoms: S_9  and  C_10
REMARK    4  A    between atoms: C_10  and  C_11
REMARK    5  A    between atoms: C_16  and  C_17
REMARK                            x       y       z     vdW  Elec       q    Type
REMARK                         _______ _______ _______ _____ _____    ______ ____
ROOT
ATOM      1  C   UNL     1      45.255   5.132  11.953  0.00  0.00    +0.000 A 
ATOM      2  C   UNL     1      44.205   5.975  11.580  0.00  0.00    +0.000 A 
ATOM      3  C   UNL     1      44.420   7.345  11.491  0.00  0.00    +0.000 A 
ATOM      4  F   UNL     1      43.406   8.148  11.144  0.00  0.00    +0.000 F 
ATOM      5  C   UNL     1      45.686   7.889  11.682  0.00  0.00    +0.000 A 
ATOM      6  C   UNL     1      46.778   7.053  11.956  0.00  0.00    +0.000 A 
ATOM      7  C   UNL     1      46.520   5.698  12.171  0.00  0.00    +0.000 A 
ENDROOT
BRANCH   6   8
ATOM      8  C   UNL     1      48.199   7.595  11.842  0.00  0.00    +0.000 C 
ATOM      9  C   UNL     1      49.090   6.899  12.891  0.00  0.00    +0.000 C 
ATOM     10  C   UNL     1      48.842   7.447  14.297  0.00  0.00    +0.000 C 
ATOM     11  N   UNL     1      49.127   8.880  14.372  0.00  0.00    +0.000 NA
ATOM     12  C   UNL     1      48.313   9.643  13.430  0.00  0.00    +0.000 C 
ATOM     13  C   UNL     1      48.395   9.123  11.987  0.00  0.00    +0.000 C 
ATOM     14  H   UNL     1      50.113   9.036  14.166  0.00  0.00    +0.000 HD
ENDBRANCH   6   8
BRANCH   1  15
ATOM     15  C   UNL     1      45.089   3.630  11.936  0.00  0.00    +0.000 C 
BRANCH  15  16
ATOM     16  S   UNL     1      43.954   3.020  10.638  0.00  0.00    +0.000 S 
BRANCH  16  21
ATOM     17  C   UNL     1      46.396   1.922   7.755  0.00  0.00    +0.000 A 
ATOM     18  C   UNL     1      46.857   3.093   7.174  0.00  0.00    +0.000 A 
ATOM     19  C   UNL     1      46.351   4.297   7.650  0.00  0.00    +0.000 A 
ATOM     20  C   UNL     1      45.426   4.285   8.695  0.00  0.00    +0.000 A 
ATOM     21  C   UNL     1      45.045   3.063   9.238  0.00  0.00    +0.000 A 
ATOM     22  N   UNL     1      45.497   1.883   8.773  0.00  0.00    +0.000 NA
BRANCH  17  24
ATOM     23  N   UNL     1      47.356   0.582   5.986  0.00  0.00    +0.000 N 
ATOM     24  C   UNL     1      46.883   0.593   7.276  0.00  0.00    +0.000 C 
ATOM     25  O   UNL     1      46.886  -0.407   7.973  0.00  0.00    +0.000 OA
ATOM     26  H   UNL     1      47.718  -0.272   5.593  0.00  0.00    +0.000 HD
ATOM     27  H   UNL     1      47.360   1.442   5.451  0.00  0.00    +0.000 HD
ENDBRANCH  17  24
ENDBRANCH  16  21
ENDBRANCH  15  16
ENDBRANCH   1  15
TORSDOF 5
ENDMDL
MODEL 3
REMARK VINA RESULT:    -6.906      1.973      2.634
REMARK INTER + INTRA:          -9.798
REMARK INTER:                  -9.048
REMARK INTRA:                  -0.749
REMARK UNBOUND:                -0.873
REMARK  Name = 
REMARK  5 active torsions:
REMARK  status: ('A' for Active; 'I' for Inactive)
REMARK    1  A    between atoms: C_2  and  C_4
REMARK    2  A    between atoms: C_8  and  S_9
REMARK    3  A    between atoms: S_9  and  C_10
REMARK    4  A    between atoms: C_10  and  C_11
REMARK    5  A    between atoms: C_16  and  C_17
REMARK                            x       y       z     vdW  Elec       q    Type
REMARK                         _______ _______ _______ _____ _____    ______ ____
ROOT
ATOM      1  C   UNL     1      47.724   6.892  13.768  0.00  0.00    +0.000 A 
ATOM      2  C   UNL     1      47.154   8.126  13.443  0.00  0.00    +0.000 A 
ATOM      3  C   UNL     1      45.885   8.172  12.878  0.00  0.00    +0.000 A 
ATOM      4  F   UNL     1      45.349   9.358  12.558  0.00  0.00    +0.000 F 
ATOM      5  C   UNL     1      45.131   7.015  12.708  0.00  0.00    +0.000 A 
ATOM      6  C   UNL     1      45.640   5.775  13.121  0.00  0.00    +0.000 A 
ATOM      7  C   UNL     1      46.963   5.732  13.563  0.00  0.00    +0.000 A 
ENDROOT
BRANCH   6   8
ATOM      8  C   UNL     1      44.709   4.573  13.240  0.00  0.00    +0.000 C 
ATOM      9  C   UNL     1      45.195   3.463  12.285  0.00  0.00    +0.000 C 
ATOM     10  C   UNL     1      44.838   3.774  10.830  0.00  0.00    +0.000 C 
ATOM     11  N   UNL     1      43.393   3.898  10.647  0.00  0.00    +0.000 NA
ATOM     12  C   UNL     1      42.829   4.947  11.492  0.00  0.00    +0.000 C 
ATOM     13  C   UNL     1      43.203   4.805  12.976  0.00  0.00    +0.000 C 
ATOM     14  H   UNL     1      42.949   3.009  10.874  0.00  0.00    +0.000 HD
ENDBRANCH   6   8
BRANCH   1  15
ATOM     15  C   UNL     1      49.044   6.814  14.498  0.00  0.00    +0.000 C 
BRANCH  15  16
ATOM     16  S   UNL     1      48.908   7.027  16.310  0.00  0.00    +0.000 S 
BRANCH  16  21
ATOM     17  C   UNL     1      49.747   3.306  17.274  0.00  0.00    +0.000 A 
ATOM     18  C   UNL     1      48.528   2.660  17.410  0.00  0.00    +0.000 A 
ATOM     19  C   UNL     1      47.371   3.416  17.254  0.00  0.00    +0.000 A 
ATOM     20  C   UNL     1      47.476   4.773  16.950  0.00  0.00    +0.000 A 
ATOM     21  C   UNL     1      48.742   5.330  16.802  0.00  0.00    +0.000 A 
ATOM     22  N   UNL     1      49.876   4.626  16.979  0.00  0.00    +0.000 NA
BRANCH  17  24
ATOM     23  N   UNL     1      50.961   1.220  17.147  0.00  0.00    +0.000 N 
ATOM     24  C   UNL     1      51.028   2.558  17.450  0.00  0.00    +0.000 C 
ATOM     25  O   UNL     1      52.065   3.086  17.814  0.00  0.00    +0.000 OA
ATOM     26  H   UNL     1      51.786   0.647  17.223  0.00  0.00    +0.000 HD
ATOM     27  H   UNL     1      50.086   0.827  16.822  0.00  0.00    +0.000 HD
ENDBRANCH  17  24
ENDBRANCH  16  21
ENDBRANCH  15  16
ENDBRANCH   1  15
TORSDOF 5
ENDMDL
MODEL 4
REMARK VINA RESULT:    -6.830      1.427      1.923
REMARK INTER + INTRA:          -9.699
REMARK INTER:                  -8.932
REMARK INTRA:                  -0.767
REMARK UNBOUND:                -0.873
REMARK  Name = 
REMARK  5 active torsions:
REMARK  status: ('A' for Active; 'I' for Inactive)
REMARK    1  A    between atoms: C_2  and  C_4
REMARK    2  A    between atoms: C_8  and  S_9
REMARK    3  A    between atoms: S_9  and  C_10
REMARK    4  A    between atoms: C_10  and  C_11
REMARK    5  A    between atoms: C_16  and  C_17
REMARK                            x       y       z     vdW  Elec       q    Type
REMARK                         _______ _______ _______ _____ _____    ______ ____
ROOT
ATOM      1  C   UNL     1      47.689   7.251  12.945  0.00  0.00    +0.000 A 
ATOM      2  C   UNL     1      46.973   8.444  12.806  0.00  0.00    +0.000 A 
ATOM      3  C   UNL     1      45.598   8.403  12.613  0.00  0.00    +0.000 A 
ATOM      4  F   UNL     1      44.919   9.549  12.470  0.00  0.00    +0.000 F 
ATOM      5  C   UNL     1      44.902   7.198  12.641  0.00  0.00    +0.000 A 
ATOM      6  C   UNL     1      45.583   5.996  12.880  0.00  0.00    +0.000 A 
ATOM      7  C   UNL     1      46.978   6.042  12.940  0.00  0.00    +0.000 A 
ENDROOT
BRANCH   6   8
ATOM      8  C   UNL     1      44.801   4.736  13.234  0.00  0.00    +0.000 C 
ATOM      9  C   UNL     1      45.358   3.551  12.417  0.00  0.00    +0.000 C 
ATOM     10  C   UNL     1      44.894   3.601  10.961  0.00  0.00    +0.000 C 
ATOM     11  N   UNL     1      43.436   3.547  10.860  0.00  0.00    +0.000 NA
ATOM     12  C   UNL     1      42.802   4.647  11.582  0.00  0.00    +0.000 C 
ATOM     13  C   UNL     1      43.267   4.769  13.042  0.00  0.00    +0.000 C 
ATOM     14  H   UNL     1      43.107   2.661  11.242  0.00  0.00    +0.000 HD
ENDBRANCH   6   8
BRANCH   1  15
ATOM     15  C   UNL     1      49.161   7.263  13.282  0.00  0.00    +0.000 C 
BRANCH  15  16
ATOM     16  S   UNL     1      49.562   8.127  14.844  0.00  0.00    +0.000 S 
BRANCH  16  21
ATOM     17  C   UNL     1      48.577   5.168  17.242  0.00  0.00    +0.000 A 
ATOM     18  C   UNL     1      49.767   4.682  17.762  0.00  0.00    +0.000 A 
ATOM     19  C   UNL     1      50.953   5.252  17.313  0.00  0.00    +0.000 A 
ATOM     20  C   UNL     1      50.903   6.292  16.385  0.00  0.00    +0.000 A 
ATOM     21  C   UNL     1      49.663   6.736  15.941  0.00  0.00    +0.000 A 
ATOM     22  N   UNL     1      48.502   6.179  16.338  0.00  0.00    +0.000 NA
BRANCH  17  24
ATOM     23  N   UNL     1      46.584   5.326  18.601  0.00  0.00    +0.000 N 
ATOM     24  C   UNL     1      47.267   4.586  17.666  0.00  0.00    +0.000 C 
ATOM     25  O   UNL     1      46.820   3.548  17.211  0.00  0.00    +0.000 OA
ATOM     26  H   UNL     1      45.684   5.011  18.928  0.00  0.00    +0.000 HD
ATOM     27  H   UNL     1      46.980   6.196  18.933  0.00  0.00    +0.000 HD
ENDBRANCH  17  24
ENDBRANCH  16  21
ENDBRANCH  15  16
ENDBRANCH   1  15
TORSDOF 5
ENDMDL
MODEL 5
REMARK VINA RESULT:    -6.155      2.194      2.805
REMARK INTER + INTRA:          -8.828
REMARK INTER:                  -8.167
REMARK INTRA:                  -0.661
REMARK UNBOUND:                -0.873
REMARK  Name = 
REMARK  5 active torsions:
REMARK  status: ('A' for Active; 'I' for Inactive)
REMARK    1  A    between atoms: C_2  and  C_4
REMARK    2  A    between atoms: C_8  and  S_9
REMARK    3  A    between atoms: S_9  and  C_10
REMARK    4  A    between atoms: C_10  and  C_11
REMARK    5  A    between atoms: C_16  and  C_17
REMARK                            x       y       z     vdW  Elec       q    Type
REMARK                         _______ _______ _______ _____ _____    ______ ____
ROOT
ATOM      1  C   UNL     1      48.577   7.402  14.166  0.00  0.00    +0.000 A 
ATOM      2  C   UNL     1      49.572   7.675  13.223  0.00  0.00    +0.000 A 
ATOM      3  C   UNL     1      49.322   7.449  11.875  0.00  0.00    +0.000 A 
ATOM      4  F   UNL     1      50.284   7.702  10.976  0.00  0.00    +0.000 F 
ATOM      5  C   UNL     1      48.069   7.035  11.433  0.00  0.00    +0.000 A 
ATOM      6  C   UNL     1      47.024   6.854  12.351  0.00  0.00    +0.000 A 
ATOM      7  C   UNL     1      47.328   6.958  13.710  0.00  0.00    +0.000 A 
ENDROOT
BRANCH   6   8
ATOM      8  C   UNL     1      45.589   6.724  11.853  0.00  0.00    +0.000 C 
ATOM      9  C   UNL     1      44.712   6.147  12.984  0.00  0.00    +0.000 C 
ATOM     10  C   UNL     1      44.936   4.645  13.161  0.00  0.00    +0.000 C 
ATOM     11  N   UNL     1      44.608   3.905  11.942  0.00  0.00    +0.000 NA
ATOM     12  C   UNL     1      45.405   4.357  10.805  0.00  0.00    +0.000 C 
ATOM     13  C   UNL     1      45.347   5.877  10.581  0.00  0.00    +0.000 C 
ATOM     14  H   UNL     1      43.620   4.032  11.730  0.00  0.00    +0.000 HD
ENDBRANCH   6   8
BRANCH   1  15
ATOM     15  C   UNL     1      48.770   7.756  15.623  0.00  0.00    +0.000 C 
BRANCH  15  16
ATOM     16  S   UNL     1      50.338   7.142  16.338  0.00  0.00    +0.000 S 
BRANCH  16  21
ATOM     17  C   UNL     1      49.620   3.449  17.491  0.00  0.00    +0.000 A 
ATOM     18  C   UNL     1      48.690   3.540  18.515  0.00  0.00    +0.000 A 
ATOM     19  C   UNL     1      48.294   4.809  18.923  0.00  0.00    +0.000 A 
ATOM     20  C   UNL     1      48.824   5.930  18.282  0.00  0.00    +0.000 A 
ATOM     21  C   UNL     1      49.729   5.742  17.243  0.00  0.00    +0.000 A 
ATOM     22  N   UNL     1      50.151   4.524  16.852  0.00  0.00    +0.000 NA
BRANCH  17  24
ATOM     23  N   UNL     1      51.026   1.514  17.841  0.00  0.00    +0.000 N 
ATOM     24  C   UNL     1      50.104   2.117  17.019  0.00  0.00    +0.000 C 
ATOM     25  O   UNL     1      49.705   1.586  15.997  0.00  0.00    +0.000 OA
ATOM     26  H   UNL     1      51.391   0.606  17.602  0.00  0.00    +0.000 HD
ATOM     27  H   UNL     1      51.310   1.979  18.694  0.00  0.00    +0.000 HD
ENDBRANCH  17  24
ENDBRANCH  16  21
ENDBRANCH  15  16
ENDBRANCH   1  15
TORSDOF 5
ENDMDL
MODEL 6
REMARK VINA RESULT:    -5.857      3.073      6.567
REMARK INTER + INTRA:          -8.442
REMARK INTER:                  -7.639
REMARK INTRA:                  -0.803
REMARK UNBOUND:                -0.873
REMARK  Name = 
REMARK  5 active torsions:
REMARK  status: ('A' for Active; 'I' for Inactive)
REMARK    1  A    between atoms: C_2  and  C_4
REMARK    2  A    between atoms: C_8  and  S_9
REMARK    3  A    between atoms: S_9  and  C_10
REMARK    4  A    between atoms: C_10  and  C_11
REMARK    5  A    between atoms: C_16  and  C_17
REMARK                            x       y       z     vdW  Elec       q    Type
REMARK                         _______ _______ _______ _____ _____    ______ ____
ROOT
ATOM      1  C   UNL     1      49.519   7.204  14.795  0.00  0.00    +0.000 A 
ATOM      2  C   UNL     1      50.833   7.601  15.059  0.00  0.00    +0.000 A 
ATOM      3  C   UNL     1      51.389   7.353  16.308  0.00  0.00    +0.000 A 
ATOM      4  F   UNL     1      52.645   7.746  16.559  0.00  0.00    +0.000 F 
ATOM      5  C   UNL     1      50.692   6.638  17.278  0.00  0.00    +0.000 A 
ATOM      6  C   UNL     1      49.411   6.140  17.001  0.00  0.00    +0.000 A 
ATOM      7  C   UNL     1      48.818   6.511  15.793  0.00  0.00    +0.000 A 
ENDROOT
BRANCH   6   8
ATOM      8  C   UNL     1      48.786   5.096  17.920  0.00  0.00    +0.000 C 
ATOM      9  C   UNL     1      49.864   4.067  18.320  0.00  0.00    +0.000 C 
ATOM     10  C   UNL     1      50.164   3.091  17.181  0.00  0.00    +0.000 C 
ATOM     11  N   UNL     1      48.972   2.338  16.791  0.00  0.00    +0.000 NA
ATOM     12  C   UNL     1      47.889   3.221  16.367  0.00  0.00    +0.000 C 
ATOM     13  C   UNL     1      47.558   4.319  17.389  0.00  0.00    +0.000 C 
ATOM     14  H   UNL     1      48.657   1.777  17.582  0.00  0.00    +0.000 HD
ENDBRANCH   6   8
BRANCH   1  15
ATOM     15  C   UNL     1      48.929   7.343  13.411  0.00  0.00    +0.000 C 
BRANCH  15  16
ATOM     16  S   UNL     1      47.243   8.052  13.388  0.00  0.00    +0.000 S 
BRANCH  16  21
ATOM     17  C   UNL     1      44.373   5.676  12.123  0.00  0.00    +0.000 A 
ATOM     18  C   UNL     1      44.765   4.389  12.455  0.00  0.00    +0.000 A 
ATOM     19  C   UNL     1      46.009   4.222  13.053  0.00  0.00    +0.000 A 
ATOM     20  C   UNL     1      46.798   5.342  13.312  0.00  0.00    +0.000 A 
ATOM     21  C   UNL     1      46.311   6.599  12.973  0.00  0.00    +0.000 A 
ATOM     22  N   UNL     1      45.122   6.783  12.365  0.00  0.00    +0.000 NA
BRANCH  17  24
ATOM     23  N   UNL     1      42.825   7.232  11.110  0.00  0.00    +0.000 N 
ATOM     24  C   UNL     1      43.057   5.924  11.459  0.00  0.00    +0.000 C 
ATOM     25  O   UNL     1      42.252   5.039  11.222  0.00  0.00    +0.000 OA
ATOM     26  H   UNL     1      41.968   7.481  10.642  0.00  0.00    +0.000 HD
ATOM     27  H   UNL     1      43.532   7.931  11.301  0.00  0.00    +0.000 HD
ENDBRANCH  17  24
ENDBRANCH  16  21
ENDBRANCH  15  16
ENDBRANCH   1  15
TORSDOF 5
ENDMDL
MODEL 7
REMARK VINA RESULT:    -5.845      2.778      6.683
REMARK INTER + INTRA:          -8.427
REMARK INTER:                  -7.753
REMARK INTRA:                  -0.674
REMARK UNBOUND:                -0.873
REMARK  Name = 
REMARK  5 active torsions:
REMARK  status: ('A' for Active; 'I' for Inactive)
REMARK    1  A    between atoms: C_2  and  C_4
REMARK    2  A    between atoms: C_8  and  S_9
REMARK    3  A    between atoms: S_9  and  C_10
REMARK    4  A    between atoms: C_10  and  C_11
REMARK    5  A    between atoms: C_16  and  C_17
REMARK                            x       y       z     vdW  Elec       q    Type
REMARK                         _______ _______ _______ _____ _____    ______ ____
ROOT
ATOM      1  C   UNL     1      48.683   7.333  15.212  0.00  0.00    +0.000 A 
ATOM      2  C   UNL     1      48.415   8.570  15.804  0.00  0.00    +0.000 A 
ATOM      3  C   UNL     1      48.533   8.715  17.181  0.00  0.00    +0.000 A 
ATOM      4  F   UNL     1      48.264   9.900  17.744  0.00  0.00    +0.000 F 
ATOM      5  C   UNL     1      48.998   7.671  17.977  0.00  0.00    +0.000 A 
ATOM      6  C   UNL     1      49.371   6.452  17.393  0.00  0.00    +0.000 A 
ATOM      7  C   UNL     1      49.121   6.282  16.030  0.00  0.00    +0.000 A 
ENDROOT
BRANCH   6   8
ATOM      8  C   UNL     1      50.175   5.438  18.199  0.00  0.00    +0.000 C 
ATOM      9  C   UNL     1      49.830   4.017  17.709  0.00  0.00    +0.000 C 
ATOM     10  C   UNL     1      48.466   3.556  18.225  0.00  0.00    +0.000 C 
ATOM     11  N   UNL     1      48.427   3.530  19.687  0.00  0.00    +0.000 NA
ATOM     12  C   UNL     1      48.717   4.842  20.260  0.00  0.00    +0.000 C 
ATOM     13  C   UNL     1      50.021   5.464  19.738  0.00  0.00    +0.000 C 
ATOM     14  H   UNL     1      49.112   2.857  20.028  0.00  0.00    +0.000 HD
ENDBRANCH   6   8
BRANCH   1  15
ATOM     15  C   UNL     1      48.688   7.176  13.709  0.00  0.00    +0.000 C 
BRANCH  15  16
ATOM     16  S   UNL     1      47.058   7.455  12.925  0.00  0.00    +0.000 S 
BRANCH  16  21
ATOM     17  C   UNL     1      45.039   4.266  11.815  0.00  0.00    +0.000 A 
ATOM     18  C   UNL     1      45.537   3.214  12.568  0.00  0.00    +0.000 A 
ATOM     19  C   UNL     1      46.596   3.477  13.430  0.00  0.00    +0.000 A 
ATOM     20  C   UNL     1      47.098   4.775  13.522  0.00  0.00    +0.000 A 
ATOM     21  C   UNL     1      46.515   5.775  12.751  0.00  0.00    +0.000 A 
ATOM     22  N   UNL     1      45.510   5.539  11.886  0.00  0.00    +0.000 NA
BRANCH  17  24
ATOM     23  N   UNL     1      43.980   4.812   9.712  0.00  0.00    +0.000 N 
ATOM     24  C   UNL     1      43.916   4.049  10.853  0.00  0.00    +0.000 C 
ATOM     25  O   UNL     1      43.019   3.247  11.045  0.00  0.00    +0.000 OA
ATOM     26  H   UNL     1      43.269   4.713   9.004  0.00  0.00    +0.000 HD
ATOM     27  H   UNL     1      44.757   5.446   9.580  0.00  0.00    +0.000 HD
ENDBRANCH  17  24
ENDBRANCH  16  21
ENDBRANCH  15  16
ENDBRANCH   1  15
TORSDOF 5
ENDMDL
MODEL 8
REMARK VINA RESULT:    -5.812      3.556      4.533
REMARK INTER + INTRA:          -8.384
REMARK INTER:                  -8.093
REMARK INTRA:                  -0.290
REMARK UNBOUND:                -0.873
REMARK  Name = 
REMARK  5 active torsions:
REMARK  status: ('A' for Active; 'I' for Inactive)
REMARK    1  A    between atoms: C_2  and  C_4
REMARK    2  A    between atoms: C_8  and  S_9
REMARK    3  A    between atoms: S_9  and  C_10
REMARK    4  A    between atoms: C_10  and  C_11
REMARK    5  A    between atoms: C_16  and  C_17
REMARK                            x       y       z     vdW  Elec       q    Type
REMARK                         _______ _______ _______ _____ _____    ______ ____
ROOT
ATOM      1  C   UNL     1      48.930   6.095  15.878  0.00  0.00    +0.000 A 
ATOM      2  C   UNL     1      48.387   5.028  16.598  0.00  0.00    +0.000 A 
ATOM      3  C   UNL     1      47.273   4.360  16.103  0.00  0.00    +0.000 A 
ATOM      4  F   UNL     1      46.750   3.344  16.803  0.00  0.00    +0.000 F 
ATOM      5  C   UNL     1      46.737   4.677  14.858  0.00  0.00    +0.000 A 
ATOM      6  C   UNL     1      47.328   5.676  14.071  0.00  0.00    +0.000 A 
ATOM      7  C   UNL     1      48.361   6.423  14.639  0.00  0.00    +0.000 A 
ENDROOT
BRANCH   6   8
ATOM      8  C   UNL     1      46.957   5.801  12.597  0.00  0.00    +0.000 C 
ATOM      9  C   UNL     1      46.905   7.295  12.215  0.00  0.00    +0.000 C 
ATOM     10  C   UNL     1      45.635   7.967  12.738  0.00  0.00    +0.000 C 
ATOM     11  N   UNL     1      44.432   7.340  12.191  0.00  0.00    +0.000 NA
ATOM     12  C   UNL     1      44.367   5.918  12.518  0.00  0.00    +0.000 C 
ATOM     13  C   UNL     1      45.636   5.143  12.134  0.00  0.00    +0.000 C 
ATOM     14  H   UNL     1      44.427   7.452  11.178  0.00  0.00    +0.000 HD
ENDBRANCH   6   8
BRANCH   1  15
ATOM     15  C   UNL     1      50.212   6.759  16.324  0.00  0.00    +0.000 C 
BRANCH  15  16
ATOM     16  S   UNL     1      50.546   6.610  18.116  0.00  0.00    +0.000 S 
BRANCH  16  21
ATOM     17  C   UNL     1      51.832   2.909  17.768  0.00  0.00    +0.000 A 
ATOM     18  C   UNL     1      53.137   2.909  18.236  0.00  0.00    +0.000 A 
ATOM     19  C   UNL     1      53.685   4.125  18.631  0.00  0.00    +0.000 A 
ATOM     20  C   UNL     1      52.906   5.280  18.564  0.00  0.00    +0.000 A 
ATOM     21  C   UNL     1      51.595   5.180  18.111  0.00  0.00    +0.000 A 
ATOM     22  N   UNL     1      51.053   4.019  17.694  0.00  0.00    +0.000 NA
BRANCH  17  24
ATOM     23  N   UNL     1      51.615   0.509  17.961  0.00  0.00    +0.000 N 
ATOM     24  C   UNL     1      51.190   1.641  17.308  0.00  0.00    +0.000 C 
ATOM     25  O   UNL     1      50.339   1.602  16.436  0.00  0.00    +0.000 OA
ATOM     26  H   UNL     1      51.219  -0.386  17.721  0.00  0.00    +0.000 HD
ATOM     27  H   UNL     1      52.304   0.589  18.698  0.00  0.00    +0.000 HD
ENDBRANCH  17  24
ENDBRANCH  16  21
ENDBRANCH  15  16
ENDBRANCH   1  15
TORSDOF 5
ENDMDL
MODEL 9
REMARK VINA RESULT:    -5.587      4.444      8.405
REMARK INTER + INTRA:          -8.093
REMARK INTER:                  -7.285
REMARK INTRA:                  -0.808
REMARK UNBOUND:                -0.873
REMARK  Name = 
REMARK  5 active torsions:
REMARK  status: ('A' for Active; 'I' for Inactive)
REMARK    1  A    between atoms: C_2  and  C_4
REMARK    2  A    between atoms: C_8  and  S_9
REMARK    3  A    between atoms: S_9  and  C_10
REMARK    4  A    between atoms: C_10  and  C_11
REMARK    5  A    between atoms: C_16  and  C_17
REMARK                            x       y       z     vdW  Elec       q    Type
REMARK                         _______ _______ _______ _____ _____    ______ ____
ROOT
ATOM      1  C   UNL     1      50.077   2.627  17.177  0.00  0.00    +0.000 A 
ATOM      2  C   UNL     1      51.017   1.594  17.177  0.00  0.00    +0.000 A 
ATOM      3  C   UNL     1      52.279   1.811  17.718  0.00  0.00    +0.000 A 
ATOM      4  F   UNL     1      53.180   0.820  17.705  0.00  0.00    +0.000 F 
ATOM      5  C   UNL     1      52.599   3.015  18.339  0.00  0.00    +0.000 A 
ATOM      6  C   UNL     1      51.638   4.031  18.443  0.00  0.00    +0.000 A 
ATOM      7  C   UNL     1      50.423   3.845  17.780  0.00  0.00    +0.000 A 
ENDROOT
BRANCH   6   8
ATOM      8  C   UNL     1      51.868   5.201  19.392  0.00  0.00    +0.000 C 
ATOM      9  C   UNL     1      51.016   6.401  18.930  0.00  0.00    +0.000 C 
ATOM     10  C   UNL     1      51.626   7.089  17.708  0.00  0.00    +0.000 C 
ATOM     11  N   UNL     1      52.968   7.597  17.992  0.00  0.00    +0.000 NA
ATOM     12  C   UNL     1      53.871   6.531  18.417  0.00  0.00    +0.000 C 
ATOM     13  C   UNL     1      53.323   5.692  19.582  0.00  0.00    +0.000 C 
ATOM     14  H   UNL     1      52.911   8.301  18.726  0.00  0.00    +0.000 HD
ENDBRANCH   6   8
BRANCH   1  15
ATOM     15  C   UNL     1      48.659   2.387  16.713  0.00  0.00    +0.000 C 
BRANCH  15  16
ATOM     16  S   UNL     1      47.479   3.692  17.213  0.00  0.00    +0.000 S 
BRANCH  16  21
ATOM     17  C   UNL     1      46.468   4.726  13.554  0.00  0.00    +0.000 A 
ATOM     18  C   UNL     1      47.232   5.841  13.245  0.00  0.00    +0.000 A 
ATOM     19  C   UNL     1      48.070   6.349  14.231  0.00  0.00    +0.000 A 
ATOM     20  C   UNL     1      48.127   5.715  15.473  0.00  0.00    +0.000 A 
ATOM     21  C   UNL     1      47.348   4.583  15.684  0.00  0.00    +0.000 A 
ATOM     22  N   UNL     1      46.506   4.091  14.755  0.00  0.00    +0.000 NA
BRANCH  17  24
ATOM     23  N   UNL     1      45.345   2.785  12.653  0.00  0.00    +0.000 N 
ATOM     24  C   UNL     1      45.532   4.142  12.547  0.00  0.00    +0.000 C 
ATOM     25  O   UNL     1      44.956   4.809  11.705  0.00  0.00    +0.000 OA
ATOM     26  H   UNL     1      44.715   2.316  12.022  0.00  0.00    +0.000 HD
ATOM     27  H   UNL     1      45.822   2.273  13.385  0.00  0.00    +0.000 HD
ENDBRANCH  17  24
ENDBRANCH  16  21
ENDBRANCH  15  16
ENDBRANCH   1  15
TORSDOF 5
ENDMDL
