MODEL 1
REMARK VINA RESULT:    -8.319      0.000      0.000
REMARK INTER + INTRA:         -12.151
REMARK INTER:                 -11.237
REMARK INTRA:                  -0.914
REMARK UNBOUND:                -0.914
REMARK  Name = 
REMARK  8 active torsions:
REMARK  status: ('A' for Active; 'I' for Inactive)
REMARK    1  A    between atoms: C_1  and  O_2
REMARK    2  A    between atoms: O_2  and  C_3
REMARK    3  A    between atoms: C_5  and  C_6
REMARK    4  A    between atoms: C_6  and  C_7
REMARK    5  A    between atoms: C_6  and  C_8
REMARK    6  A    between atoms: C_8  and  N_9
REMARK    7  A    between atoms: C_13  and  C_14
REMARK    8  A    between atoms: C_20  and  N_21
REMARK                            x       y       z     vdW  Elec       q    Type
REMARK                         _______ _______ _______ _____ _____    ______ ____
ROOT
ATOM      1  C   UNL     1      43.347   4.208  12.381  0.00  0.00    +0.000 C 
ATOM      2  C   UNL     1      42.440   5.438  12.247  0.00  0.00    +0.000 C 
ENDROOT
BRANCH   1   5
ATOM      3  C   UNL     1      46.855   4.098  13.921  0.00  0.00    +0.000 A 
ATOM      4  C   UNL     1      45.601   3.699  13.467  0.00  0.00    +0.000 A 
ATOM      5  C   UNL     1      44.733   4.620  12.869  0.00  0.00    +0.000 A 
ATOM      6  C   UNL     1      45.152   5.954  12.747  0.00  0.00    +0.000 A 
ATOM      7  C   UNL     1      46.406   6.399  13.203  0.00  0.00    +0.000 A 
ATOM      8  C   UNL     1      47.250   5.434  13.769  0.00  0.00    +0.000 A 
BRANCH   7   9
ATOM      9  N   UNL     1      46.774   7.724  13.081  0.00  0.00    +0.000 N 
ATOM     10  C   UNL     1      45.786   8.812  13.116  0.00  0.00    +0.000 C 
ATOM     11  C   UNL     1      46.049   9.789  11.950  0.00  0.00    +0.000 C 
ATOM     12  N   UNL     1      47.429  10.322  11.932  0.00  0.00    +0.000 NA
ATOM     13  C   UNL     1      48.378   9.183  11.917  0.00  0.00    +0.000 C 
ATOM     14  C   UNL     1      48.172   8.172  13.076  0.00  0.00    +0.000 C 
ATOM     15  H   UNL     1      47.576  10.837  12.799  0.00  0.00    +0.000 HD
ENDBRANCH   7   9
BRANCH   3  17
ATOM     16  C   UNL     1      47.812   3.337  15.959  0.00  0.00    +0.000 C 
ATOM     17  O   UNL     1      47.772   3.287  14.537  0.00  0.00    +0.000 OA
ENDBRANCH   3  17
ENDBRANCH   1   5
BRANCH   1  18
ATOM     18  C   UNL     1      43.476   3.407  11.064  0.00  0.00    +0.000 C 
BRANCH  18  19
ATOM     19  N   UNL     1      43.942   4.242   9.950  0.00  0.00    +0.000 N 
ATOM     20  C   UNL     1      44.830   3.565   9.088  0.00  0.00    +0.000 A 
ATOM     21  C   UNL     1      45.390   4.271   8.027  0.00  0.00    +0.000 A 
ATOM     22  C   UNL     1      46.289   3.629   7.171  0.00  0.00    +0.000 A 
ATOM     23  C   UNL     1      46.609   2.288   7.384  0.00  0.00    +0.000 A 
ATOM     24  C   UNL     1      45.988   1.658   8.448  0.00  0.00    +0.000 A 
ATOM     25  N   UNL     1      45.114   2.263   9.290  0.00  0.00    +0.000 NA
ATOM     26  H   UNL     1      44.415   5.082  10.270  0.00  0.00    +0.000 HD
BRANCH  23  27
ATOM     27  C   UNL     1      47.585   1.619   6.489  0.00  0.00    +0.000 C 
ATOM     28  N   UNL     1      48.770   2.244   6.211  0.00  0.00    +0.000 N 
ATOM     29  O   UNL     1      47.341   0.527   5.993  0.00  0.00    +0.000 OA
ATOM     30  H   UNL     1      49.074   3.134   6.566  0.00  0.00    +0.000 HD
ATOM     31  H   UNL     1      49.402   1.750   5.593  0.00  0.00    +0.000 HD
ENDBRANCH  23  27
ENDBRANCH  18  19
ENDBRANCH   1  18
TORSDOF 6
ENDMDL
MODEL 2
REMARK VINA RESULT:    -7.430      2.184      3.916
REMARK INTER + INTRA:         -10.950
REMARK INTER:                 -10.116
REMARK INTRA:                  -0.834
REMARK UNBOUND:                -0.914
REMARK  Name = 
REMARK  8 active torsions:
REMARK  status: ('A' for Active; 'I' for Inactive)
REMARK    1  A    between atoms: C_1  and  O_2
REMARK    2  A    between atoms: O_2  and  C_3
REMARK    3  A    between atoms: C_5  and  C_6
REMARK    4  A    between atoms: C_6  and  C_7
REMARK    5  A    between atoms: C_6  and  C_8
REMARK    6  A    between atoms: C_8  and  N_9
REMARK    7  A    between atoms: C_13  and  C_14
REMARK    8  A    between atoms: C_20  and  N_21
REMARK                            x       y       z     vdW  Elec       q    Type
REMARK                         _______ _______ _______ _____ _____    ______ ____
ROOT
ATOM      1  C   UNL     1      43.992   4.468  12.246  0.00  0.00    +0.000 C 
ATOM      2  C   UNL     1      42.849   5.402  12.666  0.00  0.00    +0.000 C 
ENDROOT
BRANCH   1   5
ATOM      3  C   UNL     1      47.282   6.434  12.279  0.00  0.00    +0.000 A 
ATOM      4  C   UNL     1      46.049   5.933  11.870  0.00  0.00    +0.000 A 
ATOM      5  C   UNL     1      45.336   5.044  12.683  0.00  0.00    +0.000 A 
ATOM      6  C   UNL     1      45.898   4.663  13.912  0.00  0.00    +0.000 A 
ATOM      7  C   UNL     1      47.145   5.138  14.356  0.00  0.00    +0.000 A 
ATOM      8  C   UNL     1      47.806   6.048  13.519  0.00  0.00    +0.000 A 
BRANCH   7   9
ATOM      9  N   UNL     1      47.671   4.726  15.563  0.00  0.00    +0.000 N 
ATOM     10  C   UNL     1      47.709   3.308  15.951  0.00  0.00    +0.000 C 
ATOM     11  C   UNL     1      47.186   3.152  17.396  0.00  0.00    +0.000 C 
ATOM     12  N   UNL     1      47.909   3.993  18.375  0.00  0.00    +0.000 NA
ATOM     13  C   UNL     1      47.854   5.403  17.922  0.00  0.00    +0.000 C 
ATOM     14  C   UNL     1      48.381   5.626  16.479  0.00  0.00    +0.000 C 
ATOM     15  H   UNL     1      48.887   3.704  18.373  0.00  0.00    +0.000 HD
ENDBRANCH   7   9
BRANCH   3  17
ATOM     16  C   UNL     1      48.376   8.541  12.166  0.00  0.00    +0.000 C 
ATOM     17  O   UNL     1      48.070   7.292  11.556  0.00  0.00    +0.000 OA
ENDBRANCH   3  17
ENDBRANCH   1   5
BRANCH   1  18
ATOM     18  C   UNL     1      44.015   4.189  10.726  0.00  0.00    +0.000 C 
BRANCH  18  19
ATOM     19  N   UNL     1      44.342   2.789  10.423  0.00  0.00    +0.000 N 
ATOM     20  C   UNL     1      45.160   2.649   9.283  0.00  0.00    +0.000 A 
ATOM     21  C   UNL     1      45.488   1.365   8.858  0.00  0.00    +0.000 A 
ATOM     22  C   UNL     1      46.279   1.198   7.718  0.00  0.00    +0.000 A 
ATOM     23  C   UNL     1      46.738   2.318   7.025  0.00  0.00    +0.000 A 
ATOM     24  C   UNL     1      46.384   3.556   7.531  0.00  0.00    +0.000 A 
ATOM     25  N   UNL     1      45.616   3.739   8.634  0.00  0.00    +0.000 NA
ATOM     26  H   UNL     1      43.512   2.225  10.269  0.00  0.00    +0.000 HD
BRANCH  23  27
ATOM     27  C   UNL     1      47.555   2.135   5.800  0.00  0.00    +0.000 C 
ATOM     28  N   UNL     1      46.932   2.102   4.583  0.00  0.00    +0.000 N 
ATOM     29  O   UNL     1      48.770   2.005   5.866  0.00  0.00    +0.000 OA
ATOM     30  H   UNL     1      45.946   2.203   4.413  0.00  0.00    +0.000 HD
ATOM     31  H   UNL     1      47.531   1.971   3.777  0.00  0.00    +0.000 HD
ENDBRANCH  23  27
ENDBRANCH  18  19
ENDBRANCH   1  18
TORSDOF 6
ENDMDL
MODEL 3
REMARK VINA RESULT:    -7.326      2.120      2.907
REMARK INTER + INTRA:         -10.810
REMARK INTER:                 -10.021
REMARK INTRA:                  -0.789
REMARK UNBOUND:                -0.914
REMARK  Name = 
REMARK  8 active torsions:
REMARK  status: ('A' for Active; 'I' for Inactive)
REMARK    1  A    between atoms: C_1  and  O_2
REMARK    2  A    between atoms: O_2  and  C_3
REMARK    3  A    between atoms: C_5  and  C_6
REMARK    4  A    between atoms: C_6  and  C_7
REMARK    5  A    between atoms: C_6  and  C_8
REMARK    6  A    between atoms: C_8  and  N_9
REMARK    7  A    between atoms: C_13  and  C_14
REMARK    8  A    between atoms: C_20  and  N_21
REMARK                            x       y       z     vdW  Elec       q    Type
REMARK                         _______ _______ _______ _____ _____    ______ ____
ROOT
ATOM      1  C   UNL     1      44.080   4.973  12.204  0.00  0.00    +0.000 C 
ATOM      2  C   UNL     1      42.847   5.151  13.101  0.00  0.00    +0.000 C 
ENDROOT
BRANCH   1   5
ATOM      3  C   UNL     1      46.968   7.446  12.690  0.00  0.00    +0.000 A 
ATOM      4  C   UNL     1      46.226   6.268  12.692  0.00  0.00    +0.000 A 
ATOM      5  C   UNL     1      44.917   6.249  12.195  0.00  0.00    +0.000 A 
ATOM      6  C   UNL     1      44.370   7.445  11.704  0.00  0.00    +0.000 A 
ATOM      7  C   UNL     1      45.082   8.658  11.695  0.00  0.00    +0.000 A 
ATOM      8  C   UNL     1      46.398   8.619  12.177  0.00  0.00    +0.000 A 
BRANCH   7   9
ATOM      9  N   UNL     1      44.502   9.816  11.221  0.00  0.00    +0.000 N 
ATOM     10  C   UNL     1      43.163   9.822  10.612  0.00  0.00    +0.000 C 
ATOM     11  C   UNL     1      43.199  10.623   9.292  0.00  0.00    +0.000 C 
ATOM     12  N   UNL     1      43.717  12.000   9.456  0.00  0.00    +0.000 NA
ATOM     13  C   UNL     1      45.055  11.931  10.091  0.00  0.00    +0.000 C 
ATOM     14  C   UNL     1      45.080  11.149  11.431  0.00  0.00    +0.000 C 
ATOM     15  H   UNL     1      43.095  12.494  10.095  0.00  0.00    +0.000 HD
ENDBRANCH   7   9
BRANCH   3  17
ATOM     16  C   UNL     1      48.607   6.741  14.260  0.00  0.00    +0.000 C 
ATOM     17  O   UNL     1      48.245   7.580  13.168  0.00  0.00    +0.000 OA
ENDBRANCH   3  17
ENDBRANCH   1   5
BRANCH   1  18
ATOM     18  C   UNL     1      43.719   4.577  10.754  0.00  0.00    +0.000 C 
BRANCH  18  19
ATOM     19  N   UNL     1      44.057   3.178  10.460  0.00  0.00    +0.000 N 
ATOM     20  C   UNL     1      44.941   3.043   9.370  0.00  0.00    +0.000 A 
ATOM     21  C   UNL     1      45.289   1.761   8.955  0.00  0.00    +0.000 A 
ATOM     22  C   UNL     1      46.146   1.599   7.863  0.00  0.00    +0.000 A 
ATOM     23  C   UNL     1      46.651   2.723   7.208  0.00  0.00    +0.000 A 
ATOM     24  C   UNL     1      46.272   3.958   7.702  0.00  0.00    +0.000 A 
ATOM     25  N   UNL     1      45.440   4.136   8.758  0.00  0.00    +0.000 NA
ATOM     26  H   UNL     1      43.235   2.619  10.253  0.00  0.00    +0.000 HD
BRANCH  23  27
ATOM     27  C   UNL     1      47.538   2.545   6.033  0.00  0.00    +0.000 C 
ATOM     28  N   UNL     1      48.883   2.386   6.232  0.00  0.00    +0.000 N 
ATOM     29  O   UNL     1      47.087   2.546   4.895  0.00  0.00    +0.000 OA
ATOM     30  H   UNL     1      49.357   2.364   7.118  0.00  0.00    +0.000 HD
ATOM     31  H   UNL     1      49.448   2.271   5.399  0.00  0.00    +0.000 HD
ENDBRANCH  23  27
ENDBRANCH  18  19
ENDBRANCH   1  18
TORSDOF 6
ENDMDL
MODEL 4
REMARK VINA RESULT:    -6.992      2.330      3.668
REMARK INTER + INTRA:         -10.359
REMARK INTER:                  -9.650
REMARK INTRA:                  -0.709
REMARK UNBOUND:                -0.914
REMARK  Name = 
REMARK  8 active torsions:
REMARK  status: ('A' for Active; 'I' for Inactive)
REMARK    1  A    between atoms: C_1  and  O_2
REMARK    2  A    between atoms: O_2  and  C_3
REMARK    3  A    between atoms: C_5  and  C_6
REMARK    4  A    between atoms: C_6  and  C_7
REMARK    5  A    between atoms: C_6  and  C_8
REMARK    6  A    between atoms: C_8  and  N_9
REMARK    7  A    between atoms: C_13  and  C_14
REMARK    8  A    between atoms: C_20  and  N_21
REMARK                            x       y       z     vdW  Elec       q    Type
REMARK                         _______ _______ _______ _____ _____    ______ ____
ROOT
ATOM      1  C   UNL     1      44.122   5.344  11.995  0.00  0.00    +0.000 C 
ATOM      2  C   UNL     1      42.873   5.343  12.886  0.00  0.00    +0.000 C 
ENDROOT
BRANCH   1   5
ATOM      3  C   UNL     1      44.691   9.080  11.361  0.00  0.00    +0.000 A 
ATOM      4  C   UNL     1      44.091   7.824  11.393  0.00  0.00    +0.000 A 
ATOM      5  C   UNL     1      44.753   6.732  11.966  0.00  0.00    +0.000 A 
ATOM      6  C   UNL     1      46.038   6.931  12.497  0.00  0.00    +0.000 A 
ATOM      7  C   UNL     1      46.682   8.181  12.475  0.00  0.00    +0.000 A 
ATOM      8  C   UNL     1      45.967   9.249  11.916  0.00  0.00    +0.000 A 
BRANCH   7   9
ATOM      9  N   UNL     1      47.953   8.331  12.992  0.00  0.00    +0.000 N 
ATOM     10  C   UNL     1      49.049   8.915  12.205  0.00  0.00    +0.000 C 
ATOM     11  C   UNL     1      50.308   8.031  12.334  0.00  0.00    +0.000 C 
ATOM     12  N   UNL     1      50.721   7.801  13.736  0.00  0.00    +0.000 NA
ATOM     13  C   UNL     1      49.573   7.232  14.482  0.00  0.00    +0.000 C 
ATOM     14  C   UNL     1      48.280   8.086  14.402  0.00  0.00    +0.000 C 
ATOM     15  H   UNL     1      50.942   8.706  14.149  0.00  0.00    +0.000 HD
ENDBRANCH   7   9
BRANCH   3  17
ATOM     16  C   UNL     1      42.739  10.380  10.976  0.00  0.00    +0.000 C 
ATOM     17  O   UNL     1      44.143  10.209  10.810  0.00  0.00    +0.000 OA
ENDBRANCH   3  17
ENDBRANCH   1   5
BRANCH   1  18
ATOM     18  C   UNL     1      43.832   4.873  10.550  0.00  0.00    +0.000 C 
BRANCH  18  19
ATOM     19  N   UNL     1      43.983   3.420  10.398  0.00  0.00    +0.000 N 
ATOM     20  C   UNL     1      44.893   3.064   9.382  0.00  0.00    +0.000 A 
ATOM     21  C   UNL     1      45.076   1.713   9.100  0.00  0.00    +0.000 A 
ATOM     22  C   UNL     1      45.955   1.334   8.083  0.00  0.00    +0.000 A 
ATOM     23  C   UNL     1      46.647   2.313   7.367  0.00  0.00    +0.000 A 
ATOM     24  C   UNL     1      46.423   3.629   7.730  0.00  0.00    +0.000 A 
ATOM     25  N   UNL     1      45.572   4.017   8.713  0.00  0.00    +0.000 NA
ATOM     26  H   UNL     1      43.101   2.962  10.187  0.00  0.00    +0.000 HD
BRANCH  23  27
ATOM     27  C   UNL     1      47.559   1.906   6.271  0.00  0.00    +0.000 C 
ATOM     28  N   UNL     1      48.575   2.746   5.903  0.00  0.00    +0.000 N 
ATOM     29  O   UNL     1      47.410   0.839   5.689  0.00  0.00    +0.000 OA
ATOM     30  H   UNL     1      48.791   3.638   6.313  0.00  0.00    +0.000 HD
ATOM     31  H   UNL     1      49.169   2.425   5.148  0.00  0.00    +0.000 HD
ENDBRANCH  23  27
ENDBRANCH  18  19
ENDBRANCH   1  18
TORSDOF 6
ENDMDL
MODEL 5
REMARK VINA RESULT:    -6.817      3.526      7.789
REMARK INTER + INTRA:         -10.123
REMARK INTER:                  -9.015
REMARK INTRA:                  -1.108
REMARK UNBOUND:                -0.914
REMARK  Name = 
REMARK  8 active torsions:
REMARK  status: ('A' for Active; 'I' for Inactive)
REMARK    1  A    between atoms: C_1  and  O_2
REMARK    2  A    between atoms: O_2  and  C_3
REMARK    3  A    between atoms: C_5  and  C_6
REMARK    4  A    between atoms: C_6  and  C_7
REMARK    5  A    between atoms: C_6  and  C_8
REMARK    6  A    between atoms: C_8  and  N_9
REMARK    7  A    between atoms: C_13  and  C_14
REMARK    8  A    between atoms: C_20  and  N_21
REMARK                            x       y       z     vdW  Elec       q    Type
REMARK                         _______ _______ _______ _____ _____    ______ ____
ROOT
ATOM      1  C   UNL     1      48.311   8.930  12.566  0.00  0.00    +0.000 C 
ATOM      2  C   UNL     1      48.342   9.880  13.772  0.00  0.00    +0.000 C 
ENDROOT
BRANCH   1   5
ATOM      3  C   UNL     1      44.695   9.434  11.399  0.00  0.00    +0.000 A 
ATOM      4  C   UNL     1      46.011   9.700  11.769  0.00  0.00    +0.000 A 
ATOM      5  C   UNL     1      46.871   8.659  12.140  0.00  0.00    +0.000 A 
ATOM      6  C   UNL     1      46.373   7.347  12.141  0.00  0.00    +0.000 A 
ATOM      7  C   UNL     1      45.048   7.038  11.785  0.00  0.00    +0.000 A 
ATOM      8  C   UNL     1      44.235   8.110  11.394  0.00  0.00    +0.000 A 
BRANCH   7   9
ATOM      9  N   UNL     1      44.593   5.736  11.816  0.00  0.00    +0.000 N 
ATOM     10  C   UNL     1      44.878   4.838  12.945  0.00  0.00    +0.000 C 
ATOM     11  C   UNL     1      45.371   3.475  12.412  0.00  0.00    +0.000 C 
ATOM     12  N   UNL     1      44.434   2.847  11.454  0.00  0.00    +0.000 NA
ATOM     13  C   UNL     1      44.168   3.803  10.352  0.00  0.00    +0.000 C 
ATOM     14  C   UNL     1      43.656   5.189  10.826  0.00  0.00    +0.000 C 
ATOM     15  H   UNL     1      43.553   2.683  11.941  0.00  0.00    +0.000 HD
ENDBRANCH   7   9
BRANCH   3  17
ATOM     16  C   UNL     1      42.514   9.885  10.569  0.00  0.00    +0.000 C 
ATOM     17  O   UNL     1      43.766  10.374  11.038  0.00  0.00    +0.000 OA
ENDBRANCH   3  17
ENDBRANCH   1   5
BRANCH   1  18
ATOM     18  C   UNL     1      49.035   7.591  12.835  0.00  0.00    +0.000 C 
BRANCH  18  19
ATOM     19  N   UNL     1      49.659   7.553  14.164  0.00  0.00    +0.000 N 
ATOM     20  C   UNL     1      49.099   6.573  15.008  0.00  0.00    +0.000 A 
ATOM     21  C   UNL     1      49.566   6.480  16.316  0.00  0.00    +0.000 A 
ATOM     22  C   UNL     1      49.012   5.532  17.180  0.00  0.00    +0.000 A 
ATOM     23  C   UNL     1      48.005   4.683  16.720  0.00  0.00    +0.000 A 
ATOM     24  C   UNL     1      47.619   4.828  15.399  0.00  0.00    +0.000 A 
ATOM     25  N   UNL     1      48.142   5.743  14.546  0.00  0.00    +0.000 NA
ATOM     26  H   UNL     1      49.588   8.444  14.648  0.00  0.00    +0.000 HD
BRANCH  23  27
ATOM     27  C   UNL     1      47.402   3.696  17.649  0.00  0.00    +0.000 C 
ATOM     28  N   UNL     1      47.951   3.529  18.891  0.00  0.00    +0.000 N 
ATOM     29  O   UNL     1      46.431   3.028  17.317  0.00  0.00    +0.000 OA
ATOM     30  H   UNL     1      48.740   4.024  19.267  0.00  0.00    +0.000 HD
ATOM     31  H   UNL     1      47.506   2.841  19.487  0.00  0.00    +0.000 HD
ENDBRANCH  23  27
ENDBRANCH  18  19
ENDBRANCH   1  18
TORSDOF 6
ENDMDL
MODEL 6
REMARK VINA RESULT:    -6.763      3.624      8.402
REMARK INTER + INTRA:         -10.050
REMARK INTER:                  -9.293
REMARK INTRA:                  -0.757
REMARK UNBOUND:                -0.914
REMARK  Name = 
REMARK  8 active torsions:
REMARK  status: ('A' for Active; 'I' for Inactive)
REMARK    1  A    between atoms: C_1  and  O_2
REMARK    2  A    between atoms: O_2  and  C_3
REMARK    3  A    between atoms: C_5  and  C_6
REMARK    4  A    between atoms: C_6  and  C_7
REMARK    5  A    between atoms: C_6  and  C_8
REMARK    6  A    between atoms: C_8  and  N_9
REMARK    7  A    between atoms: C_13  and  C_14
REMARK    8  A    between atoms: C_20  and  N_21
REMARK                            x       y       z     vdW  Elec       q    Type
REMARK                         _______ _______ _______ _____ _____    ______ ____
ROOT
ATOM      1  C   UNL     1      48.613   7.030  12.694  0.00  0.00    +0.000 C 
ATOM      2  C   UNL     1      49.549   7.751  11.715  0.00  0.00    +0.000 C 
ENDROOT
BRANCH   1   5
ATOM      3  C   UNL     1      45.215   8.582  11.835  0.00  0.00    +0.000 A 
ATOM      4  C   UNL     1      46.548   8.454  12.218  0.00  0.00    +0.000 A 
ATOM      5  C   UNL     1      47.160   7.195  12.259  0.00  0.00    +0.000 A 
ATOM      6  C   UNL     1      46.397   6.068  11.914  0.00  0.00    +0.000 A 
ATOM      7  C   UNL     1      45.046   6.154  11.533  0.00  0.00    +0.000 A 
ATOM      8  C   UNL     1      44.487   7.439  11.480  0.00  0.00    +0.000 A 
BRANCH   7   9
ATOM      9  N   UNL     1      44.326   5.020  11.218  0.00  0.00    +0.000 N 
ATOM     10  C   UNL     1      43.336   4.446  12.142  0.00  0.00    +0.000 C 
ATOM     11  C   UNL     1      43.557   2.922  12.257  0.00  0.00    +0.000 C 
ATOM     12  N   UNL     1      43.534   2.227  10.951  0.00  0.00    +0.000 NA
ATOM     13  C   UNL     1      44.534   2.860  10.058  0.00  0.00    +0.000 C 
ATOM     14  C   UNL     1      44.354   4.392   9.892  0.00  0.00    +0.000 C 
ATOM     15  H   UNL     1      42.613   2.371  10.537  0.00  0.00    +0.000 HD
ENDBRANCH   7   9
BRANCH   3  17
ATOM     16  C   UNL     1      43.540   9.870  10.747  0.00  0.00    +0.000 C 
ATOM     17  O   UNL     1      44.515   9.759  11.779  0.00  0.00    +0.000 OA
ENDBRANCH   3  17
ENDBRANCH   1   5
BRANCH   1  18
ATOM     18  C   UNL     1      48.778   7.514  14.153  0.00  0.00    +0.000 C 
BRANCH  18  19
ATOM     19  N   UNL     1      48.103   6.630  15.112  0.00  0.00    +0.000 N 
ATOM     20  C   UNL     1      48.988   6.050  16.044  0.00  0.00    +0.000 A 
ATOM     21  C   UNL     1      48.476   5.143  16.968  0.00  0.00    +0.000 A 
ATOM     22  C   UNL     1      49.335   4.537  17.887  0.00  0.00    +0.000 A 
ATOM     23  C   UNL     1      50.694   4.853  17.876  0.00  0.00    +0.000 A 
ATOM     24  C   UNL     1      51.113   5.782  16.940  0.00  0.00    +0.000 A 
ATOM     25  N   UNL     1      50.295   6.379  16.038  0.00  0.00    +0.000 NA
ATOM     26  H   UNL     1      47.608   5.871  14.653  0.00  0.00    +0.000 HD
BRANCH  23  27
ATOM     27  C   UNL     1      51.607   4.187  18.837  0.00  0.00    +0.000 C 
ATOM     28  N   UNL     1      51.398   4.355  20.179  0.00  0.00    +0.000 N 
ATOM     29  O   UNL     1      52.542   3.500  18.447  0.00  0.00    +0.000 OA
ATOM     30  H   UNL     1      50.663   4.890  20.607  0.00  0.00    +0.000 HD
ATOM     31  H   UNL     1      52.049   3.882  20.795  0.00  0.00    +0.000 HD
ENDBRANCH  23  27
ENDBRANCH  18  19
ENDBRANCH   1  18
TORSDOF 6
ENDMDL
MODEL 7
REMARK VINA RESULT:    -6.411      4.392      6.622
REMARK INTER + INTRA:          -9.574
REMARK INTER:                  -8.827
REMARK INTRA:                  -0.747
REMARK UNBOUND:                -0.914
REMARK  Name = 
REMARK  8 active torsions:
REMARK  status: ('A' for Active; 'I' for Inactive)
REMARK    1  A    between atoms: C_1  and  O_2
REMARK    2  A    between atoms: O_2  and  C_3
REMARK    3  A    between atoms: C_5  and  C_6
REMARK    4  A    between atoms: C_6  and  C_7
REMARK    5  A    between atoms: C_6  and  C_8
REMARK    6  A    between atoms: C_8  and  N_9
REMARK    7  A    between atoms: C_13  and  C_14
REMARK    8  A    between atoms: C_20  and  N_21
REMARK                            x       y       z     vdW  Elec       q    Type
REMARK                         _______ _______ _______ _____ _____    ______ ____
ROOT
ATOM      1  C   UNL     1      47.626   3.988  17.536  0.00  0.00    +0.000 C 
ATOM      2  C   UNL     1      47.369   5.370  18.153  0.00  0.00    +0.000 C 
ENDROOT
BRANCH   1   5
ATOM      3  C   UNL     1      50.969   2.120  17.374  0.00  0.00    +0.000 A 
ATOM      4  C   UNL     1      49.600   2.377  17.374  0.00  0.00    +0.000 A 
ATOM      5  C   UNL     1      49.121   3.685  17.514  0.00  0.00    +0.000 A 
ATOM      6  C   UNL     1      50.051   4.727  17.663  0.00  0.00    +0.000 A 
ATOM      7  C   UNL     1      51.440   4.507  17.678  0.00  0.00    +0.000 A 
ATOM      8  C   UNL     1      51.870   3.184  17.506  0.00  0.00    +0.000 A 
BRANCH   7   9
ATOM      9  N   UNL     1      52.320   5.556  17.844  0.00  0.00    +0.000 N 
ATOM     10  C   UNL     1      52.681   6.066  19.176  0.00  0.00    +0.000 C 
ATOM     11  C   UNL     1      52.584   7.607  19.184  0.00  0.00    +0.000 C 
ATOM     12  N   UNL     1      53.396   8.251  18.128  0.00  0.00    +0.000 NA
ATOM     13  C   UNL     1      53.004   7.685  16.816  0.00  0.00    +0.000 C 
ATOM     14  C   UNL     1      53.094   6.137  16.741  0.00  0.00    +0.000 C 
ATOM     15  H   UNL     1      54.372   8.007  18.293  0.00  0.00    +0.000 HD
ENDBRANCH   7   9
BRANCH   3  17
ATOM     16  C   UNL     1      52.892   0.764  17.705  0.00  0.00    +0.000 C 
ATOM     17  O   UNL     1      51.543   0.881  17.263  0.00  0.00    +0.000 OA
ENDBRANCH   3  17
ENDBRANCH   1   5
BRANCH   1  18
ATOM     18  C   UNL     1      47.045   3.846  16.110  0.00  0.00    +0.000 C 
BRANCH  18  19
ATOM     19  N   UNL     1      47.294   5.037  15.288  0.00  0.00    +0.000 N 
ATOM     20  C   UNL     1      46.619   5.003  14.051  0.00  0.00    +0.000 A 
ATOM     21  C   UNL     1      46.824   6.049  13.155  0.00  0.00    +0.000 A 
ATOM     22  C   UNL     1      46.184   6.029  11.914  0.00  0.00    +0.000 A 
ATOM     23  C   UNL     1      45.340   4.966  11.588  0.00  0.00    +0.000 A 
ATOM     24  C   UNL     1      45.174   3.982  12.546  0.00  0.00    +0.000 A 
ATOM     25  N   UNL     1      45.788   3.983  13.756  0.00  0.00    +0.000 NA
ATOM     26  H   UNL     1      48.282   5.167  15.089  0.00  0.00    +0.000 HD
BRANCH  23  27
ATOM     27  C   UNL     1      44.684   4.937  10.258  0.00  0.00    +0.000 C 
ATOM     28  N   UNL     1      45.449   5.097   9.135  0.00  0.00    +0.000 N 
ATOM     29  O   UNL     1      43.474   4.780  10.154  0.00  0.00    +0.000 OA
ATOM     30  H   UNL     1      46.445   5.226   9.104  0.00  0.00    +0.000 HD
ATOM     31  H   UNL     1      44.955   5.072   8.251  0.00  0.00    +0.000 HD
ENDBRANCH  23  27
ENDBRANCH  18  19
ENDBRANCH   1  18
TORSDOF 6
ENDMDL
MODEL 8
REMARK VINA RESULT:    -6.254      3.655      6.463
REMARK INTER + INTRA:          -9.362
REMARK INTER:                  -8.464
REMARK INTRA:                  -0.899
REMARK UNBOUND:                -0.914
REMARK  Name = 
REMARK  8 active torsions:
REMARK  status: ('A' for Active; 'I' for Inactive)
REMARK    1  A    between atoms: C_1  and  O_2
REMARK    2  A    between atoms: O_2  and  C_3
REMARK    3  A    between atoms: C_5  and  C_6
REMARK    4  A    between atoms: C_6  and  C_7
REMARK    5  A    between atoms: C_6  and  C_8
REMARK    6  A    between atoms: C_8  and  N_9
REMARK    7  A    between atoms: C_13  and  C_14
REMARK    8  A    between atoms: C_20  and  N_21
REMARK                            x       y       z     vdW  Elec       q    Type
REMARK                         _______ _______ _______ _____ _____    ______ ____
ROOT
ATOM      1  C   UNL     1      49.015   8.279  13.433  0.00  0.00    +0.000 C 
ATOM      2  C   UNL     1      49.583   7.810  12.087  0.00  0.00    +0.000 C 
ENDROOT
BRANCH   1   5
ATOM      3  C   UNL     1      51.788   7.091  15.798  0.00  0.00    +0.000 A 
ATOM      4  C   UNL     1      51.133   7.733  14.750  0.00  0.00    +0.000 A 
ATOM      5  C   UNL     1      49.749   7.599  14.585  0.00  0.00    +0.000 A 
ATOM      6  C   UNL     1      49.041   6.796  15.494  0.00  0.00    +0.000 A 
ATOM      7  C   UNL     1      49.667   6.123  16.558  0.00  0.00    +0.000 A 
ATOM      8  C   UNL     1      51.049   6.311  16.697  0.00  0.00    +0.000 A 
BRANCH   7   9
ATOM      9  N   UNL     1      48.938   5.329  17.419  0.00  0.00    +0.000 N 
ATOM     10  C   UNL     1      48.796   5.655  18.846  0.00  0.00    +0.000 C 
ATOM     11  C   UNL     1      49.068   4.394  19.695  0.00  0.00    +0.000 C 
ATOM     12  N   UNL     1      48.218   3.242  19.324  0.00  0.00    +0.000 NA
ATOM     13  C   UNL     1      48.387   2.974  17.875  0.00  0.00    +0.000 C 
ATOM     14  C   UNL     1      48.112   4.202  16.968  0.00  0.00    +0.000 C 
ATOM     15  H   UNL     1      47.246   3.509  19.478  0.00  0.00    +0.000 HD
ENDBRANCH   7   9
BRANCH   3  17
ATOM     16  C   UNL     1      53.675   6.094  16.843  0.00  0.00    +0.000 C 
ATOM     17  O   UNL     1      53.136   7.138  16.039  0.00  0.00    +0.000 OA
ENDBRANCH   3  17
ENDBRANCH   1   5
BRANCH   1  18
ATOM     18  C   UNL     1      47.495   8.029  13.566  0.00  0.00    +0.000 C 
BRANCH  18  19
ATOM     19  N   UNL     1      46.835   7.911  12.259  0.00  0.00    +0.000 N 
ATOM     20  C   UNL     1      46.120   6.705  12.109  0.00  0.00    +0.000 A 
ATOM     21  C   UNL     1      45.501   6.449  10.889  0.00  0.00    +0.000 A 
ATOM     22  C   UNL     1      44.805   5.252  10.707  0.00  0.00    +0.000 A 
ATOM     23  C   UNL     1      44.730   4.330  11.752  0.00  0.00    +0.000 A 
ATOM     24  C   UNL     1      45.353   4.676  12.938  0.00  0.00    +0.000 A 
ATOM     25  N   UNL     1      46.035   5.832  13.133  0.00  0.00    +0.000 NA
ATOM     26  H   UNL     1      47.495   7.968  11.488  0.00  0.00    +0.000 HD
BRANCH  23  27
ATOM     27  C   UNL     1      44.012   3.049  11.545  0.00  0.00    +0.000 C 
ATOM     28  N   UNL     1      43.651   2.304  12.634  0.00  0.00    +0.000 N 
ATOM     29  O   UNL     1      43.748   2.649  10.419  0.00  0.00    +0.000 OA
ATOM     30  H   UNL     1      43.812   2.538  13.599  0.00  0.00    +0.000 HD
ATOM     31  H   UNL     1      43.166   1.436  12.441  0.00  0.00    +0.000 HD
ENDBRANCH  23  27
ENDBRANCH  18  19
ENDBRANCH   1  18
TORSDOF 6
ENDMDL
MODEL 9
REMARK VINA RESULT:    -6.229      3.652      6.499
REMARK INTER + INTRA:          -9.328
REMARK INTER:                  -8.412
REMARK INTRA:                  -0.916
REMARK UNBOUND:                -0.914
REMARK  Name = 
REMARK  8 active torsions:
REMARK  status: ('A' for Active; 'I' for Inactive)
REMARK    1  A    between atoms: C_1  and  O_2
REMARK    2  A    between atoms: O_2  and  C_3
REMARK    3  A    between atoms: C_5  and  C_6
REMARK    4  A    between atoms: C_6  and  C_7
REMARK    5  A    between atoms: C_6  and  C_8
REMARK    6  A    between atoms: C_8  and  N_9
REMARK    7  A    between atoms: C_13  and  C_14
REMARK    8  A    between atoms: C_20  and  N_21
REMARK                            x       y       z     vdW  Elec       q    Type
REMARK                         _______ _______ _______ _____ _____    ______ ____
ROOT
ATOM      1  C   UNL     1      48.556   8.312  14.113  0.00  0.00    +0.000 C 
ATOM      2  C   UNL     1      49.482   7.467  13.227  0.00  0.00    +0.000 C 
ENDROOT
BRANCH   1   5
ATOM      3  C   UNL     1      48.611   8.243  17.945  0.00  0.00    +0.000 A 
ATOM      4  C   UNL     1      48.546   8.711  16.635  0.00  0.00    +0.000 A 
ATOM      5  C   UNL     1      48.607   7.820  15.556  0.00  0.00    +0.000 A 
ATOM      6  C   UNL     1      48.744   6.449  15.827  0.00  0.00    +0.000 A 
ATOM      7  C   UNL     1      48.824   5.939  17.134  0.00  0.00    +0.000 A 
ATOM      8  C   UNL     1      48.731   6.867  18.180  0.00  0.00    +0.000 A 
BRANCH   7   9
ATOM      9  N   UNL     1      48.977   4.585  17.357  0.00  0.00    +0.000 N 
ATOM     10  C   UNL     1      50.131   4.043  18.089  0.00  0.00    +0.000 C 
ATOM     11  C   UNL     1      50.723   2.848  17.310  0.00  0.00    +0.000 C 
ATOM     12  N   UNL     1      49.731   1.790  17.018  0.00  0.00    +0.000 NA
ATOM     13  C   UNL     1      48.585   2.398  16.301  0.00  0.00    +0.000 C 
ATOM     14  C   UNL     1      47.938   3.597  17.042  0.00  0.00    +0.000 C 
ATOM     15  H   UNL     1      49.385   1.432  17.908  0.00  0.00    +0.000 HD
ENDBRANCH   7   9
BRANCH   3  17
ATOM     16  C   UNL     1      47.304   9.510  19.472  0.00  0.00    +0.000 C 
ATOM     17  O   UNL     1      48.581   9.026  19.069  0.00  0.00    +0.000 OA
ENDBRANCH   3  17
ENDBRANCH   1   5
BRANCH   1  18
ATOM     18  C   UNL     1      47.092   8.323  13.617  0.00  0.00    +0.000 C 
BRANCH  18  19
ATOM     19  N   UNL     1      46.978   7.917  12.211  0.00  0.00    +0.000 N 
ATOM     20  C   UNL     1      46.213   6.745  12.035  0.00  0.00    +0.000 A 
ATOM     21  C   UNL     1      46.083   6.225  10.751  0.00  0.00    +0.000 A 
ATOM     22  C   UNL     1      45.349   5.053  10.553  0.00  0.00    +0.000 A 
ATOM     23  C   UNL     1      44.747   4.422  11.643  0.00  0.00    +0.000 A 
ATOM     24  C   UNL     1      44.907   5.021  12.879  0.00  0.00    +0.000 A 
ATOM     25  N   UNL     1      45.617   6.157  13.092  0.00  0.00    +0.000 NA
ATOM     26  H   UNL     1      47.884   7.751  11.783  0.00  0.00    +0.000 HD
BRANCH  23  27
ATOM     27  C   UNL     1      43.991   3.164  11.431  0.00  0.00    +0.000 C 
ATOM     28  N   UNL     1      43.695   2.375  12.509  0.00  0.00    +0.000 N 
ATOM     29  O   UNL     1      43.638   2.821  10.310  0.00  0.00    +0.000 OA
ATOM     30  H   UNL     1      43.930   2.561  13.469  0.00  0.00    +0.000 HD
ATOM     31  H   UNL     1      43.180   1.525  12.313  0.00  0.00    +0.000 HD
ENDBRANCH  23  27
ENDBRANCH  18  19
ENDBRANCH   1  18
TORSDOF 6
ENDMDL
