MODEL 1
REMARK VINA RESULT:    -8.025      0.000      0.000
REMARK INTER + INTRA:         -16.481
REMARK INTER:                 -14.359
REMARK INTRA:                  -2.122
REMARK UNBOUND:                -2.122
REMARK  Name = 
REMARK  15 active torsions:
REMARK  status: ('A' for Active; 'I' for Inactive)
REMARK    1  A    between atoms: C_1  and  O_2
REMARK    2  A    between atoms: O_2  and  C_3
REMARK    3  A    between atoms: C_3  and  C_4
REMARK    4  A    between atoms: C_4  and  O_5
REMARK    5  A    between atoms: O_5  and  C_6
REMARK    6  A    between atoms: C_9  and  C_10
REMARK    7  A    between atoms: C_10  and  N_11
REMARK    8  A    between atoms: N_11  and  C_12
REMARK    9  A    between atoms: N_11  and  C_15
REMARK   10  A    between atoms: C_12  and  C_13
REMARK   11  A    between atoms: C_13  and  O_14
REMARK   12  A    between atoms: C_15  and  C_16
REMARK   13  A    between atoms: C_23  and  C_24
REMARK   14  A    between atoms: C_24  and  N_25
REMARK   15  A    between atoms: C_26  and  C_28
REMARK                            x       y       z     vdW  Elec       q    Type
REMARK                         _______ _______ _______ _____ _____    ______ ____
ROOT
ATOM      1  C   UNL     1      48.011   6.347  13.641  0.00  0.00    +0.000 A 
ATOM      2  C   UNL     1      47.699   7.396  12.767  0.00  0.00    +0.000 A 
ATOM      3  C   UNL     1      46.600   7.315  11.919  0.00  0.00    +0.000 A 
ATOM      4  C   UNL     1      45.829   6.153  11.873  0.00  0.00    +0.000 A 
ATOM      5  C   UNL     1      46.068   5.148  12.822  0.00  0.00    +0.000 A 
ATOM      6  C   UNL     1      47.126   5.259  13.750  0.00  0.00    +0.000 A 
ENDROOT
BRANCH   1   7
ATOM      7  O   UNL     1      49.150   6.315  14.411  0.00  0.00    +0.000 OA
BRANCH   7   8
ATOM      8  C   UNL     1      49.778   7.584  14.628  0.00  0.00    +0.000 C 
BRANCH   8   9
ATOM      9  C   UNL     1      50.091   7.779  16.105  0.00  0.00    +0.000 C 
BRANCH   9  11
ATOM     10  C   UNL     1      48.291   8.939  17.100  0.00  0.00    +0.000 C 
ATOM     11  O   UNL     1      48.874   7.668  16.846  0.00  0.00    +0.000 OA
ENDBRANCH   9  11
ENDBRANCH   8   9
ENDBRANCH   7   8
ENDBRANCH   1   7
BRANCH   4  12
ATOM     12  C   UNL     1      44.787   6.000  10.783  0.00  0.00    +0.000 C 
BRANCH  12  13
ATOM     13  N   UNL     1      44.413   4.573  10.532  0.00  0.00    +0.000 NA
BRANCH  13  14
ATOM     14  C   UNL     1      43.166   4.246  11.279  0.00  0.00    +0.000 C 
BRANCH  14  15
ATOM     15  C   UNL     1      42.432   5.437  11.926  0.00  0.00    +0.000 C 
BRANCH  15  16
ATOM     16  O   UNL     1      42.527   5.408  13.345  0.00  0.00    +0.000 OA
ATOM     17  H   UNL     1      42.613   4.469  13.589  0.00  0.00    +0.000 HD
ENDBRANCH  15  16
ENDBRANCH  14  15
ENDBRANCH  13  14
BRANCH  13  18
ATOM     18  C   UNL     1      44.236   4.349   9.083  0.00  0.00    +0.000 C 
BRANCH  18  19
ATOM     19  C   UNL     1      45.263   3.413   8.469  0.00  0.00    +0.000 A 
ATOM     20  C   UNL     1      45.279   2.053   8.787  0.00  0.00    +0.000 A 
ATOM     21  C   UNL     1      46.209   1.194   8.197  0.00  0.00    +0.000 A 
ATOM     22  C   UNL     1      47.137   1.698   7.285  0.00  0.00    +0.000 A 
ATOM     23  C   UNL     1      47.128   3.049   6.957  0.00  0.00    +0.000 A 
ATOM     24  C   UNL     1      46.195   3.910   7.540  0.00  0.00    +0.000 A 
ENDBRANCH  18  19
ENDBRANCH  13  18
ENDBRANCH  12  13
ENDBRANCH   4  12
BRANCH   6  25
ATOM     25  C   UNL     1      47.233   4.253  14.862  0.00  0.00    +0.000 C 
BRANCH  25  26
ATOM     26  N   UNL     1      47.663   4.798  16.126  0.00  0.00    +0.000 N 
ATOM     27  C   UNL     1      47.242   4.301  17.331  0.00  0.00    +0.000 C 
ATOM     28  O   UNL     1      46.531   3.306  17.425  0.00  0.00    +0.000 OA
ATOM     29  H   UNL     1      48.102   5.711  16.084  0.00  0.00    +0.000 HD
BRANCH  27  30
ATOM     30  C   UNL     1      47.752   4.999  18.520  0.00  0.00    +0.000 A 
ATOM     31  C   UNL     1      46.916   5.854  19.222  0.00  0.00    +0.000 A 
ATOM     32  S   UNL     1      47.639   6.518  20.619  0.00  0.00    +0.000 S 
ATOM     33  C   UNL     1      49.107   5.714  20.310  0.00  0.00    +0.000 A 
ATOM     34  N   UNL     1      50.167   5.847  21.153  0.00  0.00    +0.000 NA
ATOM     35  C   UNL     1      51.221   5.198  20.786  0.00  0.00    +0.000 A 
ATOM     36  N   UNL     1      51.318   4.441  19.646  0.00  0.00    +0.000 N 
ATOM     37  C   UNL     1      50.269   4.264  18.776  0.00  0.00    +0.000 A 
ATOM     38  O   UNL     1      50.377   3.553  17.783  0.00  0.00    +0.000 OA
ATOM     39  C   UNL     1      49.050   4.959  19.151  0.00  0.00    +0.000 A 
ATOM     40  H   UNL     1      52.175   3.961  19.417  0.00  0.00    +0.000 HD
ENDBRANCH  27  30
ENDBRANCH  25  26
ENDBRANCH   6  25
TORSDOF 14
ENDMDL
MODEL 2
REMARK VINA RESULT:    -7.831      1.918      2.625
REMARK INTER + INTRA:         -16.133
REMARK INTER:                 -14.722
REMARK INTRA:                  -1.411
REMARK UNBOUND:                -2.122
REMARK  Name = 
REMARK  15 active torsions:
REMARK  status: ('A' for Active; 'I' for Inactive)
REMARK    1  A    between atoms: C_1  and  O_2
REMARK    2  A    between atoms: O_2  and  C_3
REMARK    3  A    between atoms: C_3  and  C_4
REMARK    4  A    between atoms: C_4  and  O_5
REMARK    5  A    between atoms: O_5  and  C_6
REMARK    6  A    between atoms: C_9  and  C_10
REMARK    7  A    between atoms: C_10  and  N_11
REMARK    8  A    between atoms: N_11  and  C_12
REMARK    9  A    between atoms: N_11  and  C_15
REMARK   10  A    between atoms: C_12  and  C_13
REMARK   11  A    between atoms: C_13  and  O_14
REMARK   12  A    between atoms: C_15  and  C_16
REMARK   13  A    between atoms: C_23  and  C_24
REMARK   14  A    between atoms: C_24  and  N_25
REMARK   15  A    between atoms: C_26  and  C_28
REMARK                            x       y       z     vdW  Elec       q    Type
REMARK                         _______ _______ _______ _____ _____    ______ ____
ROOT
ATOM      1  C   UNL     1      48.016   6.332  13.656  0.00  0.00    +0.000 A 
ATOM      2  C   UNL     1      47.901   7.244  12.600  0.00  0.00    +0.000 A 
ATOM      3  C   UNL     1      46.859   7.150  11.686  0.00  0.00    +0.000 A 
ATOM      4  C   UNL     1      45.945   6.098  11.764  0.00  0.00    +0.000 A 
ATOM      5  C   UNL     1      45.989   5.251  12.882  0.00  0.00    +0.000 A 
ATOM      6  C   UNL     1      46.990   5.393  13.866  0.00  0.00    +0.000 A 
ENDROOT
BRANCH   1   7
ATOM      7  O   UNL     1      49.090   6.299  14.516  0.00  0.00    +0.000 OA
BRANCH   7   8
ATOM      8  C   UNL     1      49.456   7.561  15.087  0.00  0.00    +0.000 C 
BRANCH   8   9
ATOM      9  C   UNL     1      50.941   7.829  14.879  0.00  0.00    +0.000 C 
BRANCH   9  11
ATOM     10  C   UNL     1      51.437   8.463  12.659  0.00  0.00    +0.000 C 
ATOM     11  O   UNL     1      51.083   8.913  13.959  0.00  0.00    +0.000 OA
ENDBRANCH   9  11
ENDBRANCH   8   9
ENDBRANCH   7   8
ENDBRANCH   1   7
BRANCH   4  12
ATOM     12  C   UNL     1      44.964   5.883  10.629  0.00  0.00    +0.000 C 
BRANCH  12  13
ATOM     13  N   UNL     1      44.610   4.444  10.430  0.00  0.00    +0.000 NA
BRANCH  13  14
ATOM     14  C   UNL     1      43.410   4.108  11.246  0.00  0.00    +0.000 C 
BRANCH  14  15
ATOM     15  C   UNL     1      43.528   2.859  12.140  0.00  0.00    +0.000 C 
BRANCH  15  16
ATOM     16  O   UNL     1      42.839   1.744  11.586  0.00  0.00    +0.000 OA
ATOM     17  H   UNL     1      43.488   1.019  11.548  0.00  0.00    +0.000 HD
ENDBRANCH  15  16
ENDBRANCH  14  15
ENDBRANCH  13  14
BRANCH  13  18
ATOM     18  C   UNL     1      44.366   4.182   8.998  0.00  0.00    +0.000 C 
BRANCH  18  19
ATOM     19  C   UNL     1      45.394   3.272   8.348  0.00  0.00    +0.000 A 
ATOM     20  C   UNL     1      46.343   3.779   7.455  0.00  0.00    +0.000 A 
ATOM     21  C   UNL     1      47.302   2.940   6.884  0.00  0.00    +0.000 A 
ATOM     22  C   UNL     1      47.313   1.581   7.200  0.00  0.00    +0.000 A 
ATOM     23  C   UNL     1      46.376   1.066   8.090  0.00  0.00    +0.000 A 
ATOM     24  C   UNL     1      45.420   1.903   8.669  0.00  0.00    +0.000 A 
ENDBRANCH  18  19
ENDBRANCH  13  18
ENDBRANCH  12  13
ENDBRANCH   4  12
BRANCH   6  25
ATOM     25  C   UNL     1      46.893   4.588  15.132  0.00  0.00    +0.000 C 
BRANCH  25  26
ATOM     26  N   UNL     1      48.151   4.372  15.805  0.00  0.00    +0.000 N 
ATOM     27  C   UNL     1      48.292   4.466  17.164  0.00  0.00    +0.000 C 
ATOM     28  O   UNL     1      47.343   4.662  17.917  0.00  0.00    +0.000 OA
ATOM     29  H   UNL     1      48.972   4.383  15.211  0.00  0.00    +0.000 HD
BRANCH  27  30
ATOM     30  C   UNL     1      49.652   4.250  17.678  0.00  0.00    +0.000 A 
ATOM     31  C   UNL     1      50.263   5.239  18.433  0.00  0.00    +0.000 A 
ATOM     32  S   UNL     1      51.804   4.795  19.019  0.00  0.00    +0.000 S 
ATOM     33  C   UNL     1      51.721   3.278  18.250  0.00  0.00    +0.000 A 
ATOM     34  N   UNL     1      52.737   2.381  18.363  0.00  0.00    +0.000 NA
ATOM     35  C   UNL     1      52.550   1.281  17.714  0.00  0.00    +0.000 A 
ATOM     36  N   UNL     1      51.446   1.002  16.949  0.00  0.00    +0.000 N 
ATOM     37  C   UNL     1      50.387   1.870  16.820  0.00  0.00    +0.000 A 
ATOM     38  O   UNL     1      49.400   1.577  16.156  0.00  0.00    +0.000 OA
ATOM     39  C   UNL     1      50.539   3.118  17.547  0.00  0.00    +0.000 A 
ATOM     40  H   UNL     1      51.364   0.122  16.463  0.00  0.00    +0.000 HD
ENDBRANCH  27  30
ENDBRANCH  25  26
ENDBRANCH   6  25
TORSDOF 14
ENDMDL
MODEL 3
REMARK VINA RESULT:    -7.670      1.828      3.447
REMARK INTER + INTRA:         -15.845
REMARK INTER:                 -13.929
REMARK INTRA:                  -1.916
REMARK UNBOUND:                -2.122
REMARK  Name = 
REMARK  15 active torsions:
REMARK  status: ('A' for Active; 'I' for Inactive)
REMARK    1  A    between atoms: C_1  and  O_2
REMARK    2  A    between atoms: O_2  and  C_3
REMARK    3  A    between atoms: C_3  and  C_4
REMARK    4  A    between atoms: C_4  and  O_5
REMARK    5  A    between atoms: O_5  and  C_6
REMARK    6  A    between atoms: C_9  and  C_10
REMARK    7  A    between atoms: C_10  and  N_11
REMARK    8  A    between atoms: N_11  and  C_12
REMARK    9  A    between atoms: N_11  and  C_15
REMARK   10  A    between atoms: C_12  and  C_13
REMARK   11  A    between atoms: C_13  and  O_14
REMARK   12  A    between atoms: C_15  and  C_16
REMARK   13  A    between atoms: C_23  and  C_24
REMARK   14  A    between atoms: C_24  and  N_25
REMARK   15  A    between atoms: C_26  and  C_28
REMARK                            x       y       z     vdW  Elec       q    Type
REMARK                         _______ _______ _______ _____ _____    ______ ____
ROOT
ATOM      1  C   UNL     1      47.470   4.855  14.646  0.00  0.00    +0.000 A 
ATOM      2  C   UNL     1      46.799   3.790  14.032  0.00  0.00    +0.000 A 
ATOM      3  C   UNL     1      46.104   3.976  12.842  0.00  0.00    +0.000 A 
ATOM      4  C   UNL     1      46.004   5.248  12.276  0.00  0.00    +0.000 A 
ATOM      5  C   UNL     1      46.765   6.291  12.824  0.00  0.00    +0.000 A 
ATOM      6  C   UNL     1      47.548   6.091  13.981  0.00  0.00    +0.000 A 
ENDROOT
BRANCH   1   7
ATOM      7  O   UNL     1      48.068   4.762  15.883  0.00  0.00    +0.000 OA
BRANCH   7   8
ATOM      8  C   UNL     1      47.420   3.884  16.811  0.00  0.00    +0.000 C 
BRANCH   8   9
ATOM      9  C   UNL     1      48.442   2.991  17.501  0.00  0.00    +0.000 C 
BRANCH   9  11
ATOM     10  C   UNL     1      50.534   2.013  17.005  0.00  0.00    +0.000 C 
ATOM     11  O   UNL     1      49.255   2.373  16.501  0.00  0.00    +0.000 OA
ENDBRANCH   9  11
ENDBRANCH   8   9
ENDBRANCH   7   8
ENDBRANCH   1   7
BRANCH   4  12
ATOM     12  C   UNL     1      45.054   5.468  11.115  0.00  0.00    +0.000 C 
BRANCH  12  13
ATOM     13  N   UNL     1      44.360   4.214  10.685  0.00  0.00    +0.000 NA
BRANCH  13  14
ATOM     14  C   UNL     1      43.035   4.121  11.359  0.00  0.00    +0.000 C 
BRANCH  14  15
ATOM     15  C   UNL     1      42.487   5.432  11.957  0.00  0.00    +0.000 C 
BRANCH  15  16
ATOM     16  O   UNL     1      42.516   5.416  13.380  0.00  0.00    +0.000 OA
ATOM     17  H   UNL     1      43.330   4.942  13.626  0.00  0.00    +0.000 HD
ENDBRANCH  15  16
ENDBRANCH  14  15
ENDBRANCH  13  14
BRANCH  13  18
ATOM     18  C   UNL     1      44.209   4.204   9.216  0.00  0.00    +0.000 C 
BRANCH  18  19
ATOM     19  C   UNL     1      45.218   3.328   8.493  0.00  0.00    +0.000 A 
ATOM     20  C   UNL     1      46.080   3.864   7.533  0.00  0.00    +0.000 A 
ATOM     21  C   UNL     1      47.023   3.056   6.893  0.00  0.00    +0.000 A 
ATOM     22  C   UNL     1      47.103   1.699   7.209  0.00  0.00    +0.000 A 
ATOM     23  C   UNL     1      46.252   1.155   8.165  0.00  0.00    +0.000 A 
ATOM     24  C   UNL     1      45.313   1.962   8.812  0.00  0.00    +0.000 A 
ENDBRANCH  18  19
ENDBRANCH  13  18
ENDBRANCH  12  13
ENDBRANCH   4  12
BRANCH   6  25
ATOM     25  C   UNL     1      48.486   7.178  14.427  0.00  0.00    +0.000 C 
BRANCH  25  26
ATOM     26  N   UNL     1      48.095   7.848  15.643  0.00  0.00    +0.000 N 
ATOM     27  C   UNL     1      48.985   8.170  16.634  0.00  0.00    +0.000 C 
ATOM     28  O   UNL     1      50.193   7.985  16.525  0.00  0.00    +0.000 OA
ATOM     29  H   UNL     1      47.100   7.858  15.838  0.00  0.00    +0.000 HD
BRANCH  27  30
ATOM     30  C   UNL     1      48.408   8.820  17.819  0.00  0.00    +0.000 A 
ATOM     31  C   UNL     1      48.010  10.146  17.747  0.00  0.00    +0.000 A 
ATOM     32  S   UNL     1      47.287  10.720  19.183  0.00  0.00    +0.000 S 
ATOM     33  C   UNL     1      47.517   9.225  19.963  0.00  0.00    +0.000 A 
ATOM     34  N   UNL     1      47.100   9.033  21.244  0.00  0.00    +0.000 NA
ATOM     35  C   UNL     1      47.356   7.859  21.716  0.00  0.00    +0.000 A 
ATOM     36  N   UNL     1      48.004   6.863  21.029  0.00  0.00    +0.000 N 
ATOM     37  C   UNL     1      48.426   7.005  19.729  0.00  0.00    +0.000 A 
ATOM     38  O   UNL     1      48.973   6.085  19.132  0.00  0.00    +0.000 OA
ATOM     39  C   UNL     1      48.147   8.304  19.142  0.00  0.00    +0.000 A 
ATOM     40  H   UNL     1      48.175   5.968  21.460  0.00  0.00    +0.000 HD
ENDBRANCH  27  30
ENDBRANCH  25  26
ENDBRANCH   6  25
TORSDOF 14
ENDMDL
MODEL 4
REMARK VINA RESULT:    -7.313      1.956      3.517
REMARK INTER + INTRA:         -15.205
REMARK INTER:                 -13.282
REMARK INTRA:                  -1.924
REMARK UNBOUND:                -2.122
REMARK  Name = 
REMARK  15 active torsions:
REMARK  status: ('A' for Active; 'I' for Inactive)
REMARK    1  A    between atoms: C_1  and  O_2
REMARK    2  A    between atoms: O_2  and  C_3
REMARK    3  A    between atoms: C_3  and  C_4
REMARK    4  A    between atoms: C_4  and  O_5
REMARK    5  A    between atoms: O_5  and  C_6
REMARK    6  A    between atoms: C_9  and  C_10
REMARK    7  A    between atoms: C_10  and  N_11
REMARK    8  A    between atoms: N_11  and  C_12
REMARK    9  A    between atoms: N_11  and  C_15
REMARK   10  A    between atoms: C_12  and  C_13
REMARK   11  A    between atoms: C_13  and  O_14
REMARK   12  A    between atoms: C_15  and  C_16
REMARK   13  A    between atoms: C_23  and  C_24
REMARK   14  A    between atoms: C_24  and  N_25
REMARK   15  A    between atoms: C_26  and  C_28
REMARK                            x       y       z     vdW  Elec       q    Type
REMARK                         _______ _______ _______ _____ _____    ______ ____
ROOT
ATOM      1  C   UNL     1      47.426   4.839  14.705  0.00  0.00    +0.000 A 
ATOM      2  C   UNL     1      46.767   3.789  14.054  0.00  0.00    +0.000 A 
ATOM      3  C   UNL     1      46.115   3.997  12.844  0.00  0.00    +0.000 A 
ATOM      4  C   UNL     1      46.046   5.277  12.291  0.00  0.00    +0.000 A 
ATOM      5  C   UNL     1      46.798   6.305  12.878  0.00  0.00    +0.000 A 
ATOM      6  C   UNL     1      47.539   6.083  14.059  0.00  0.00    +0.000 A 
ENDROOT
BRANCH   1   7
ATOM      7  O   UNL     1      47.980   4.725  15.959  0.00  0.00    +0.000 OA
BRANCH   7   8
ATOM      8  C   UNL     1      47.311   3.818  16.844  0.00  0.00    +0.000 C 
BRANCH   8   9
ATOM      9  C   UNL     1      48.267   2.732  17.318  0.00  0.00    +0.000 C 
BRANCH   9  11
ATOM     10  C   UNL     1      50.500   1.992  17.118  0.00  0.00    +0.000 C 
ATOM     11  O   UNL     1      49.517   2.902  16.645  0.00  0.00    +0.000 OA
ENDBRANCH   9  11
ENDBRANCH   8   9
ENDBRANCH   7   8
ENDBRANCH   1   7
BRANCH   4  12
ATOM     12  C   UNL     1      45.139   5.521  11.101  0.00  0.00    +0.000 C 
BRANCH  12  13
ATOM     13  N   UNL     1      44.451   4.280  10.629  0.00  0.00    +0.000 NA
BRANCH  13  14
ATOM     14  C   UNL     1      43.105   4.185  11.258  0.00  0.00    +0.000 C 
BRANCH  14  15
ATOM     15  C   UNL     1      42.559   5.482  11.886  0.00  0.00    +0.000 C 
BRANCH  15  16
ATOM     16  O   UNL     1      42.557   5.422  13.308  0.00  0.00    +0.000 OA
ATOM     17  H   UNL     1      43.491   5.347  13.574  0.00  0.00    +0.000 HD
ENDBRANCH  15  16
ENDBRANCH  14  15
ENDBRANCH  13  14
BRANCH  13  18
ATOM     18  C   UNL     1      44.347   4.294   9.156  0.00  0.00    +0.000 C 
BRANCH  18  19
ATOM     19  C   UNL     1      45.334   3.377   8.454  0.00  0.00    +0.000 A 
ATOM     20  C   UNL     1      46.243   3.879   7.518  0.00  0.00    +0.000 A 
ATOM     21  C   UNL     1      47.165   3.033   6.897  0.00  0.00    +0.000 A 
ATOM     22  C   UNL     1      47.178   1.673   7.209  0.00  0.00    +0.000 A 
ATOM     23  C   UNL     1      46.282   1.163   8.142  0.00  0.00    +0.000 A 
ATOM     24  C   UNL     1      45.363   2.007   8.769  0.00  0.00    +0.000 A 
ENDBRANCH  18  19
ENDBRANCH  13  18
ENDBRANCH  12  13
ENDBRANCH   4  12
BRANCH   6  25
ATOM     25  C   UNL     1      48.471   7.155  14.551  0.00  0.00    +0.000 C 
BRANCH  25  26
ATOM     26  N   UNL     1      49.689   6.664  15.149  0.00  0.00    +0.000 N 
ATOM     27  C   UNL     1      50.303   7.289  16.202  0.00  0.00    +0.000 C 
ATOM     28  O   UNL     1      49.821   8.267  16.765  0.00  0.00    +0.000 OA
ATOM     29  H   UNL     1      50.196   5.974  14.607  0.00  0.00    +0.000 HD
BRANCH  27  30
ATOM     30  C   UNL     1      51.555   6.671  16.664  0.00  0.00    +0.000 A 
ATOM     31  C   UNL     1      52.729   6.896  15.960  0.00  0.00    +0.000 A 
ATOM     32  S   UNL     1      54.100   6.174  16.676  0.00  0.00    +0.000 S 
ATOM     33  C   UNL     1      53.164   5.506  17.931  0.00  0.00    +0.000 A 
ATOM     34  N   UNL     1      53.741   4.764  18.914  0.00  0.00    +0.000 NA
ATOM     35  C   UNL     1      52.910   4.304  19.790  0.00  0.00    +0.000 A 
ATOM     36  N   UNL     1      51.554   4.505  19.763  0.00  0.00    +0.000 N 
ATOM     37  C   UNL     1      50.930   5.262  18.800  0.00  0.00    +0.000 A 
ATOM     38  O   UNL     1      49.719   5.451  18.823  0.00  0.00    +0.000 OA
ATOM     39  C   UNL     1      51.821   5.819  17.799  0.00  0.00    +0.000 A 
ATOM     40  H   UNL     1      50.961   4.113  20.478  0.00  0.00    +0.000 HD
ENDBRANCH  27  30
ENDBRANCH  25  26
ENDBRANCH   6  25
TORSDOF 14
ENDMDL
MODEL 5
REMARK VINA RESULT:    -6.949      3.625      6.616
REMARK INTER + INTRA:         -14.556
REMARK INTER:                 -13.061
REMARK INTRA:                  -1.495
REMARK UNBOUND:                -2.122
REMARK  Name = 
REMARK  15 active torsions:
REMARK  status: ('A' for Active; 'I' for Inactive)
REMARK    1  A    between atoms: C_1  and  O_2
REMARK    2  A    between atoms: O_2  and  C_3
REMARK    3  A    between atoms: C_3  and  C_4
REMARK    4  A    between atoms: C_4  and  O_5
REMARK    5  A    between atoms: O_5  and  C_6
REMARK    6  A    between atoms: C_9  and  C_10
REMARK    7  A    between atoms: C_10  and  N_11
REMARK    8  A    between atoms: N_11  and  C_12
REMARK    9  A    between atoms: N_11  and  C_15
REMARK   10  A    between atoms: C_12  and  C_13
REMARK   11  A    between atoms: C_13  and  O_14
REMARK   12  A    between atoms: C_15  and  C_16
REMARK   13  A    between atoms: C_23  and  C_24
REMARK   14  A    between atoms: C_24  and  N_25
REMARK   15  A    between atoms: C_26  and  C_28
REMARK                            x       y       z     vdW  Elec       q    Type
REMARK                         _______ _______ _______ _____ _____    ______ ____
ROOT
ATOM      1  C   UNL     1      47.538   5.036  14.641  0.00  0.00    +0.000 A 
ATOM      2  C   UNL     1      46.746   3.985  14.165  0.00  0.00    +0.000 A 
ATOM      3  C   UNL     1      46.028   4.111  12.981  0.00  0.00    +0.000 A 
ATOM      4  C   UNL     1      46.030   5.318  12.281  0.00  0.00    +0.000 A 
ATOM      5  C   UNL     1      46.908   6.332  12.691  0.00  0.00    +0.000 A 
ATOM      6  C   UNL     1      47.710   6.181  13.842  0.00  0.00    +0.000 A 
ENDROOT
BRANCH   1   7
ATOM      7  O   UNL     1      48.170   5.017  15.864  0.00  0.00    +0.000 OA
BRANCH   7   8
ATOM      8  C   UNL     1      47.474   4.315  16.901  0.00  0.00    +0.000 C 
BRANCH   8   9
ATOM      9  C   UNL     1      48.429   3.403  17.660  0.00  0.00    +0.000 C 
BRANCH   9  11
ATOM     10  C   UNL     1      49.966   4.629  18.967  0.00  0.00    +0.000 C 
ATOM     11  O   UNL     1      48.699   3.987  18.936  0.00  0.00    +0.000 OA
ENDBRANCH   9  11
ENDBRANCH   8   9
ENDBRANCH   7   8
ENDBRANCH   1   7
BRANCH   4  12
ATOM     12  C   UNL     1      45.063   5.506  11.129  0.00  0.00    +0.000 C 
BRANCH  12  13
ATOM     13  N   UNL     1      44.382   4.236  10.727  0.00  0.00    +0.000 NA
BRANCH  13  14
ATOM     14  C   UNL     1      43.069   4.133  11.423  0.00  0.00    +0.000 C 
BRANCH  14  15
ATOM     15  C   UNL     1      42.455   5.460  11.910  0.00  0.00    +0.000 C 
BRANCH  15  16
ATOM     16  O   UNL     1      42.605   5.628  13.315  0.00  0.00    +0.000 OA
ATOM     17  H   UNL     1      42.834   4.749  13.667  0.00  0.00    +0.000 HD
ENDBRANCH  15  16
ENDBRANCH  14  15
ENDBRANCH  13  14
BRANCH  13  18
ATOM     18  C   UNL     1      44.208   4.204   9.261  0.00  0.00    +0.000 C 
BRANCH  18  19
ATOM     19  C   UNL     1      45.237   3.357   8.532  0.00  0.00    +0.000 A 
ATOM     20  C   UNL     1      46.116   3.929   7.608  0.00  0.00    +0.000 A 
ATOM     21  C   UNL     1      47.077   3.147   6.962  0.00  0.00    +0.000 A 
ATOM     22  C   UNL     1      47.160   1.782   7.235  0.00  0.00    +0.000 A 
ATOM     23  C   UNL     1      46.293   1.202   8.156  0.00  0.00    +0.000 A 
ATOM     24  C   UNL     1      45.335   1.982   8.809  0.00  0.00    +0.000 A 
ENDBRANCH  18  19
ENDBRANCH  13  18
ENDBRANCH  12  13
ENDBRANCH   4  12
BRANCH   6  25
ATOM     25  C   UNL     1      48.765   7.210  14.141  0.00  0.00    +0.000 C 
BRANCH  25  26
ATOM     26  N   UNL     1      48.989   8.164  13.083  0.00  0.00    +0.000 N 
ATOM     27  C   UNL     1      48.840   9.515  13.257  0.00  0.00    +0.000 C 
ATOM     28  O   UNL     1      48.582  10.018  14.345  0.00  0.00    +0.000 OA
ATOM     29  H   UNL     1      49.031   7.779  12.147  0.00  0.00    +0.000 HD
BRANCH  27  30
ATOM     30  C   UNL     1      49.076  10.339  12.062  0.00  0.00    +0.000 A 
ATOM     31  C   UNL     1      50.374  10.548  11.621  0.00  0.00    +0.000 A 
ATOM     32  S   UNL     1      50.466  11.456  10.179  0.00  0.00    +0.000 S 
ATOM     33  C   UNL     1      48.774  11.632  10.116  0.00  0.00    +0.000 A 
ATOM     34  N   UNL     1      48.179  12.310   9.098  0.00  0.00    +0.000 NA
ATOM     35  C   UNL     1      46.893  12.382   9.187  0.00  0.00    +0.000 A 
ATOM     36  N   UNL     1      46.148  11.851  10.209  0.00  0.00    +0.000 N 
ATOM     37  C   UNL     1      46.703  11.143  11.248  0.00  0.00    +0.000 A 
ATOM     38  O   UNL     1      46.007  10.652  12.129  0.00  0.00    +0.000 OA
ATOM     39  C   UNL     1      48.148  11.016  11.187  0.00  0.00    +0.000 A 
ATOM     40  H   UNL     1      45.144  11.947  10.219  0.00  0.00    +0.000 HD
ENDBRANCH  27  30
ENDBRANCH  25  26
ENDBRANCH   6  25
TORSDOF 14
ENDMDL
MODEL 6
REMARK VINA RESULT:    -6.817      2.438      4.267
REMARK INTER + INTRA:         -14.320
REMARK INTER:                 -12.362
REMARK INTRA:                  -1.958
REMARK UNBOUND:                -2.122
REMARK  Name = 
REMARK  15 active torsions:
REMARK  status: ('A' for Active; 'I' for Inactive)
REMARK    1  A    between atoms: C_1  and  O_2
REMARK    2  A    between atoms: O_2  and  C_3
REMARK    3  A    between atoms: C_3  and  C_4
REMARK    4  A    between atoms: C_4  and  O_5
REMARK    5  A    between atoms: O_5  and  C_6
REMARK    6  A    between atoms: C_9  and  C_10
REMARK    7  A    between atoms: C_10  and  N_11
REMARK    8  A    between atoms: N_11  and  C_12
REMARK    9  A    between atoms: N_11  and  C_15
REMARK   10  A    between atoms: C_12  and  C_13
REMARK   11  A    between atoms: C_13  and  O_14
REMARK   12  A    between atoms: C_15  and  C_16
REMARK   13  A    between atoms: C_23  and  C_24
REMARK   14  A    between atoms: C_24  and  N_25
REMARK   15  A    between atoms: C_26  and  C_28
REMARK                            x       y       z     vdW  Elec       q    Type
REMARK                         _______ _______ _______ _____ _____    ______ ____
ROOT
ATOM      1  C   UNL     1      47.927   5.622  14.282  0.00  0.00    +0.000 A 
ATOM      2  C   UNL     1      46.891   4.682  14.226  0.00  0.00    +0.000 A 
ATOM      3  C   UNL     1      46.008   4.655  13.152  0.00  0.00    +0.000 A 
ATOM      4  C   UNL     1      46.097   5.614  12.142  0.00  0.00    +0.000 A 
ATOM      5  C   UNL     1      47.198   6.484  12.136  0.00  0.00    +0.000 A 
ATOM      6  C   UNL     1      48.153   6.460  13.175  0.00  0.00    +0.000 A 
ENDROOT
BRANCH   1   7
ATOM      7  O   UNL     1      48.752   5.779  15.372  0.00  0.00    +0.000 OA
BRANCH   7   8
ATOM      8  C   UNL     1      48.131   5.559  16.645  0.00  0.00    +0.000 C 
BRANCH   8   9
ATOM      9  C   UNL     1      48.981   4.626  17.498  0.00  0.00    +0.000 C 
BRANCH   9  11
ATOM     10  C   UNL     1      48.720   2.405  16.740  0.00  0.00    +0.000 C 
ATOM     11  O   UNL     1      49.499   3.591  16.660  0.00  0.00    +0.000 OA
ENDBRANCH   9  11
ENDBRANCH   8   9
ENDBRANCH   7   8
ENDBRANCH   1   7
BRANCH   4  12
ATOM     12  C   UNL     1      44.990   5.708  11.111  0.00  0.00    +0.000 C 
BRANCH  12  13
ATOM     13  N   UNL     1      44.450   4.371  10.714  0.00  0.00    +0.000 NA
BRANCH  13  14
ATOM     14  C   UNL     1      43.146   4.138  11.394  0.00  0.00    +0.000 C 
BRANCH  14  15
ATOM     15  C   UNL     1      42.455   5.385  11.979  0.00  0.00    +0.000 C 
BRANCH  15  16
ATOM     16  O   UNL     1      42.529   5.413  13.400  0.00  0.00    +0.000 OA
ATOM     17  H   UNL     1      43.451   5.192  13.625  0.00  0.00    +0.000 HD
ENDBRANCH  15  16
ENDBRANCH  14  15
ENDBRANCH  13  14
BRANCH  13  18
ATOM     18  C   UNL     1      44.301   4.308   9.247  0.00  0.00    +0.000 C 
BRANCH  18  19
ATOM     19  C   UNL     1      45.304   3.399   8.558  0.00  0.00    +0.000 A 
ATOM     20  C   UNL     1      45.356   2.033   8.847  0.00  0.00    +0.000 A 
ATOM     21  C   UNL     1      46.263   1.199   8.189  0.00  0.00    +0.000 A 
ATOM     22  C   UNL     1      47.132   1.734   7.237  0.00  0.00    +0.000 A 
ATOM     23  C   UNL     1      47.087   3.091   6.938  0.00  0.00    +0.000 A 
ATOM     24  C   UNL     1      46.176   3.926   7.589  0.00  0.00    +0.000 A 
ENDBRANCH  18  19
ENDBRANCH  13  18
ENDBRANCH  12  13
ENDBRANCH   4  12
BRANCH   6  25
ATOM     25  C   UNL     1      49.407   7.277  13.036  0.00  0.00    +0.000 C 
BRANCH  25  26
ATOM     26  N   UNL     1      49.807   7.973  14.235  0.00  0.00    +0.000 N 
ATOM     27  C   UNL     1      50.343   9.233  14.220  0.00  0.00    +0.000 C 
ATOM     28  O   UNL     1      50.449   9.895  13.192  0.00  0.00    +0.000 OA
ATOM     29  H   UNL     1      49.894   7.399  15.066  0.00  0.00    +0.000 HD
BRANCH  27  30
ATOM     30  C   UNL     1      50.726   9.777  15.531  0.00  0.00    +0.000 A 
ATOM     31  C   UNL     1      52.038  10.169  15.751  0.00  0.00    +0.000 A 
ATOM     32  S   UNL     1      52.294  10.852  17.295  0.00  0.00    +0.000 S 
ATOM     33  C   UNL     1      50.667  10.611  17.733  0.00  0.00    +0.000 A 
ATOM     34  N   UNL     1      50.209  10.997  18.955  0.00  0.00    +0.000 NA
ATOM     35  C   UNL     1      48.961  10.736  19.160  0.00  0.00    +0.000 A 
ATOM     36  N   UNL     1      48.134  10.111  18.262  0.00  0.00    +0.000 N 
ATOM     37  C   UNL     1      48.548   9.721  17.011  0.00  0.00    +0.000 A 
ATOM     38  O   UNL     1      47.775   9.195  16.219  0.00  0.00    +0.000 OA
ATOM     39  C   UNL     1      49.941  10.007  16.720  0.00  0.00    +0.000 A 
ATOM     40  H   UNL     1      47.167   9.934  18.489  0.00  0.00    +0.000 HD
ENDBRANCH  27  30
ENDBRANCH  25  26
ENDBRANCH   6  25
TORSDOF 14
ENDMDL
MODEL 7
REMARK VINA RESULT:    -6.810      4.036      6.438
REMARK INTER + INTRA:         -14.305
REMARK INTER:                 -12.874
REMARK INTRA:                  -1.431
REMARK UNBOUND:                -2.122
REMARK  Name = 
REMARK  15 active torsions:
REMARK  status: ('A' for Active; 'I' for Inactive)
REMARK    1  A    between atoms: C_1  and  O_2
REMARK    2  A    between atoms: O_2  and  C_3
REMARK    3  A    between atoms: C_3  and  C_4
REMARK    4  A    between atoms: C_4  and  O_5
REMARK    5  A    between atoms: O_5  and  C_6
REMARK    6  A    between atoms: C_9  and  C_10
REMARK    7  A    between atoms: C_10  and  N_11
REMARK    8  A    between atoms: N_11  and  C_12
REMARK    9  A    between atoms: N_11  and  C_15
REMARK   10  A    between atoms: C_12  and  C_13
REMARK   11  A    between atoms: C_13  and  O_14
REMARK   12  A    between atoms: C_15  and  C_16
REMARK   13  A    between atoms: C_23  and  C_24
REMARK   14  A    between atoms: C_24  and  N_25
REMARK   15  A    between atoms: C_26  and  C_28
REMARK                            x       y       z     vdW  Elec       q    Type
REMARK                         _______ _______ _______ _____ _____    ______ ____
ROOT
ATOM      1  C   UNL     1      47.608   5.361  14.457  0.00  0.00    +0.000 A 
ATOM      2  C   UNL     1      46.979   4.227  13.930  0.00  0.00    +0.000 A 
ATOM      3  C   UNL     1      46.214   4.309  12.772  0.00  0.00    +0.000 A 
ATOM      4  C   UNL     1      46.001   5.541  12.154  0.00  0.00    +0.000 A 
ATOM      5  C   UNL     1      46.718   6.657  12.611  0.00  0.00    +0.000 A 
ATOM      6  C   UNL     1      47.570   6.566  13.732  0.00  0.00    +0.000 A 
ENDROOT
BRANCH   1   7
ATOM      7  O   UNL     1      48.273   5.369  15.662  0.00  0.00    +0.000 OA
BRANCH   7   8
ATOM      8  C   UNL     1      47.719   4.516  16.672  0.00  0.00    +0.000 C 
BRANCH   8   9
ATOM      9  C   UNL     1      48.828   3.783  17.417  0.00  0.00    +0.000 C 
BRANCH   9  11
ATOM     10  C   UNL     1      50.404   2.042  17.173  0.00  0.00    +0.000 C 
ATOM     11  O   UNL     1      49.453   2.867  16.515  0.00  0.00    +0.000 OA
ENDBRANCH   9  11
ENDBRANCH   8   9
ENDBRANCH   7   8
ENDBRANCH   1   7
BRANCH   4  12
ATOM     12  C   UNL     1      44.981   5.642  11.037  0.00  0.00    +0.000 C 
BRANCH  12  13
ATOM     13  N   UNL     1      44.398   4.317  10.659  0.00  0.00    +0.000 NA
BRANCH  13  14
ATOM     14  C   UNL     1      43.091   4.132  11.348  0.00  0.00    +0.000 C 
BRANCH  14  15
ATOM     15  C   UNL     1      42.448   5.404  11.934  0.00  0.00    +0.000 C 
BRANCH  15  16
ATOM     16  O   UNL     1      42.536   5.436  13.354  0.00  0.00    +0.000 OA
ATOM     17  H   UNL     1      43.486   5.474  13.564  0.00  0.00    +0.000 HD
ENDBRANCH  15  16
ENDBRANCH  14  15
ENDBRANCH  13  14
BRANCH  13  18
ATOM     18  C   UNL     1      44.239   4.240   9.194  0.00  0.00    +0.000 C 
BRANCH  18  19
ATOM     19  C   UNL     1      45.261   3.353   8.503  0.00  0.00    +0.000 A 
ATOM     20  C   UNL     1      46.171   3.882   7.584  0.00  0.00    +0.000 A 
ATOM     21  C   UNL     1      47.124   3.064   6.974  0.00  0.00    +0.000 A 
ATOM     22  C   UNL     1      47.168   1.703   7.279  0.00  0.00    +0.000 A 
ATOM     23  C   UNL     1      46.271   1.166   8.196  0.00  0.00    +0.000 A 
ATOM     24  C   UNL     1      45.320   1.982   8.812  0.00  0.00    +0.000 A 
ENDBRANCH  18  19
ENDBRANCH  13  18
ENDBRANCH  12  13
ENDBRANCH   4  12
BRANCH   6  25
ATOM     25  C   UNL     1      48.456   7.731  14.076  0.00  0.00    +0.000 C 
BRANCH  25  26
ATOM     26  N   UNL     1      48.892   8.509  12.943  0.00  0.00    +0.000 N 
ATOM     27  C   UNL     1      50.005   9.307  12.974  0.00  0.00    +0.000 C 
ATOM     28  O   UNL     1      50.757   9.357  13.941  0.00  0.00    +0.000 OA
ATOM     29  H   UNL     1      48.210   8.625  12.202  0.00  0.00    +0.000 HD
BRANCH  27  30
ATOM     30  C   UNL     1      50.283  10.057  11.740  0.00  0.00    +0.000 A 
ATOM     31  C   UNL     1      49.463  11.119  11.386  0.00  0.00    +0.000 A 
ATOM     32  S   UNL     1      49.973  11.931   9.973  0.00  0.00    +0.000 S 
ATOM     33  C   UNL     1      51.285  10.866   9.767  0.00  0.00    +0.000 A 
ATOM     34  N   UNL     1      52.150  11.017   8.728  0.00  0.00    +0.000 NA
ATOM     35  C   UNL     1      53.086  10.128   8.683  0.00  0.00    +0.000 A 
ATOM     36  N   UNL     1      53.227   9.094   9.573  0.00  0.00    +0.000 N 
ATOM     37  C   UNL     1      52.389   8.914  10.648  0.00  0.00    +0.000 A 
ATOM     38  O   UNL     1      52.562   7.999  11.445  0.00  0.00    +0.000 OA
ATOM     39  C   UNL     1      51.327   9.897  10.756  0.00  0.00    +0.000 A 
ATOM     40  H   UNL     1      53.982   8.431   9.478  0.00  0.00    +0.000 HD
ENDBRANCH  27  30
ENDBRANCH  25  26
ENDBRANCH   6  25
TORSDOF 14
ENDMDL
MODEL 8
REMARK VINA RESULT:    -6.671      2.128      2.589
REMARK INTER + INTRA:         -14.058
REMARK INTER:                 -12.630
REMARK INTRA:                  -1.427
REMARK UNBOUND:                -2.122
REMARK  Name = 
REMARK  15 active torsions:
REMARK  status: ('A' for Active; 'I' for Inactive)
REMARK    1  A    between atoms: C_1  and  O_2
REMARK    2  A    between atoms: O_2  and  C_3
REMARK    3  A    between atoms: C_3  and  C_4
REMARK    4  A    between atoms: C_4  and  O_5
REMARK    5  A    between atoms: O_5  and  C_6
REMARK    6  A    between atoms: C_9  and  C_10
REMARK    7  A    between atoms: C_10  and  N_11
REMARK    8  A    between atoms: N_11  and  C_12
REMARK    9  A    between atoms: N_11  and  C_15
REMARK   10  A    between atoms: C_12  and  C_13
REMARK   11  A    between atoms: C_13  and  O_14
REMARK   12  A    between atoms: C_15  and  C_16
REMARK   13  A    between atoms: C_23  and  C_24
REMARK   14  A    between atoms: C_24  and  N_25
REMARK   15  A    between atoms: C_26  and  C_28
REMARK                            x       y       z     vdW  Elec       q    Type
REMARK                         _______ _______ _______ _____ _____    ______ ____
ROOT
ATOM      1  C   UNL     1      48.115   6.393  13.869  0.00  0.00    +0.000 A 
ATOM      2  C   UNL     1      47.929   7.206  12.744  0.00  0.00    +0.000 A 
ATOM      3  C   UNL     1      46.926   6.931  11.822  0.00  0.00    +0.000 A 
ATOM      4  C   UNL     1      46.129   5.794  11.966  0.00  0.00    +0.000 A 
ATOM      5  C   UNL     1      46.236   5.042  13.145  0.00  0.00    +0.000 A 
ATOM      6  C   UNL     1      47.191   5.366  14.133  0.00  0.00    +0.000 A 
ENDROOT
BRANCH   1   7
ATOM      7  O   UNL     1      49.165   6.541  14.746  0.00  0.00    +0.000 OA
BRANCH   7   8
ATOM      8  C   UNL     1      49.729   7.856  14.810  0.00  0.00    +0.000 C 
BRANCH   8   9
ATOM      9  C   UNL     1      51.203   7.787  15.186  0.00  0.00    +0.000 C 
BRANCH   9  11
ATOM     10  C   UNL     1      50.313   9.516  16.524  0.00  0.00    +0.000 C 
ATOM     11  O   UNL     1      51.439   8.689  16.269  0.00  0.00    +0.000 OA
ENDBRANCH   9  11
ENDBRANCH   8   9
ENDBRANCH   7   8
ENDBRANCH   1   7
BRANCH   4  12
ATOM     12  C   UNL     1      45.205   5.390  10.834  0.00  0.00    +0.000 C 
BRANCH  12  13
ATOM     13  N   UNL     1      45.451   3.996  10.351  0.00  0.00    +0.000 NA
BRANCH  13  14
ATOM     14  C   UNL     1      44.859   3.024  11.312  0.00  0.00    +0.000 C 
BRANCH  14  15
ATOM     15  C   UNL     1      43.323   3.051  11.443  0.00  0.00    +0.000 C 
BRANCH  15  16
ATOM     16  O   UNL     1      42.783   1.745  11.604  0.00  0.00    +0.000 OA
ATOM     17  H   UNL     1      41.815   1.849  11.575  0.00  0.00    +0.000 HD
ENDBRANCH  15  16
ENDBRANCH  14  15
ENDBRANCH  13  14
BRANCH  13  18
ATOM     18  C   UNL     1      44.876   3.824   9.003  0.00  0.00    +0.000 C 
BRANCH  18  19
ATOM     19  C   UNL     1      45.730   2.990   8.064  0.00  0.00    +0.000 A 
ATOM     20  C   UNL     1      46.253   3.536   6.889  0.00  0.00    +0.000 A 
ATOM     21  C   UNL     1      47.060   2.769   6.045  0.00  0.00    +0.000 A 
ATOM     22  C   UNL     1      47.344   1.443   6.373  0.00  0.00    +0.000 A 
ATOM     23  C   UNL     1      46.832   0.889   7.541  0.00  0.00    +0.000 A 
ATOM     24  C   UNL     1      46.030   1.655   8.391  0.00  0.00    +0.000 A 
ENDBRANCH  18  19
ENDBRANCH  13  18
ENDBRANCH  12  13
ENDBRANCH   4  12
BRANCH   6  25
ATOM     25  C   UNL     1      47.150   4.651  15.455  0.00  0.00    +0.000 C 
BRANCH  25  26
ATOM     26  N   UNL     1      48.435   4.211  15.940  0.00  0.00    +0.000 N 
ATOM     27  C   UNL     1      48.574   3.286  16.940  0.00  0.00    +0.000 C 
ATOM     28  O   UNL     1      47.618   2.703  17.442  0.00  0.00    +0.000 OA
ATOM     29  H   UNL     1      49.225   4.789  15.675  0.00  0.00    +0.000 HD
BRANCH  27  30
ATOM     30  C   UNL     1      49.957   2.979  17.334  0.00  0.00    +0.000 A 
ATOM     31  C   UNL     1      50.422   1.676  17.241  0.00  0.00    +0.000 A 
ATOM     32  S   UNL     1      52.069   1.509  17.659  0.00  0.00    +0.000 S 
ATOM     33  C   UNL     1      52.205   3.168  18.015  0.00  0.00    +0.000 A 
ATOM     34  N   UNL     1      53.387   3.699  18.427  0.00  0.00    +0.000 NA
ATOM     35  C   UNL     1      53.342   4.964  18.681  0.00  0.00    +0.000 A 
ATOM     36  N   UNL     1      52.218   5.744  18.575  0.00  0.00    +0.000 N 
ATOM     37  C   UNL     1      51.007   5.255  18.146  0.00  0.00    +0.000 A 
ATOM     38  O   UNL     1      50.029   5.985  18.030  0.00  0.00    +0.000 OA
ATOM     39  C   UNL     1      51.007   3.838  17.829  0.00  0.00    +0.000 A 
ATOM     40  H   UNL     1      52.251   6.728  18.793  0.00  0.00    +0.000 HD
ENDBRANCH  27  30
ENDBRANCH  25  26
ENDBRANCH   6  25
TORSDOF 14
ENDMDL
MODEL 9
REMARK VINA RESULT:    -6.565      2.020      6.437
REMARK INTER + INTRA:         -13.869
REMARK INTER:                 -11.309
REMARK INTRA:                  -2.560
REMARK UNBOUND:                -2.122
REMARK  Name = 
REMARK  15 active torsions:
REMARK  status: ('A' for Active; 'I' for Inactive)
REMARK    1  A    between atoms: C_1  and  O_2
REMARK    2  A    between atoms: O_2  and  C_3
REMARK    3  A    between atoms: C_3  and  C_4
REMARK    4  A    between atoms: C_4  and  O_5
REMARK    5  A    between atoms: O_5  and  C_6
REMARK    6  A    between atoms: C_9  and  C_10
REMARK    7  A    between atoms: C_10  and  N_11
REMARK    8  A    between atoms: N_11  and  C_12
REMARK    9  A    between atoms: N_11  and  C_15
REMARK   10  A    between atoms: C_12  and  C_13
REMARK   11  A    between atoms: C_13  and  O_14
REMARK   12  A    between atoms: C_15  and  C_16
REMARK   13  A    between atoms: C_23  and  C_24
REMARK   14  A    between atoms: C_24  and  N_25
REMARK   15  A    between atoms: C_26  and  C_28
REMARK                            x       y       z     vdW  Elec       q    Type
REMARK                         _______ _______ _______ _____ _____    ______ ____
ROOT
ATOM      1  C   UNL     1      45.254   5.152  12.922  0.00  0.00    +0.000 A 
ATOM      2  C   UNL     1      45.009   6.014  11.847  0.00  0.00    +0.000 A 
ATOM      3  C   UNL     1      45.909   7.021  11.520  0.00  0.00    +0.000 A 
ATOM      4  C   UNL     1      47.043   7.236  12.306  0.00  0.00    +0.000 A 
ATOM      5  C   UNL     1      47.350   6.307  13.311  0.00  0.00    +0.000 A 
ATOM      6  C   UNL     1      46.488   5.226  13.593  0.00  0.00    +0.000 A 
ENDROOT
BRANCH   1   7
ATOM      7  O   UNL     1      44.346   4.220  13.370  0.00  0.00    +0.000 OA
BRANCH   7   8
ATOM      8  C   UNL     1      43.209   4.017  12.522  0.00  0.00    +0.000 C 
BRANCH   8   9
ATOM      9  C   UNL     1      43.396   2.770  11.669  0.00  0.00    +0.000 C 
BRANCH   9  11
ATOM     10  C   UNL     1      44.664   2.545   9.690  0.00  0.00    +0.000 C 
ATOM     11  O   UNL     1      43.547   3.170  10.305  0.00  0.00    +0.000 OA
ENDBRANCH   9  11
ENDBRANCH   8   9
ENDBRANCH   7   8
ENDBRANCH   1   7
BRANCH   4  12
ATOM     12  C   UNL     1      47.882   8.476  12.071  0.00  0.00    +0.000 C 
BRANCH  12  13
ATOM     13  N   UNL     1      49.173   8.458  12.827  0.00  0.00    +0.000 NA
BRANCH  13  14
ATOM     14  C   UNL     1      50.242   9.087  12.003  0.00  0.00    +0.000 C 
BRANCH  14  15
ATOM     15  C   UNL     1      51.541   8.274  11.844  0.00  0.00    +0.000 C 
BRANCH  15  16
ATOM     16  O   UNL     1      51.380   7.194  10.931  0.00  0.00    +0.000 OA
ATOM     17  H   UNL     1      50.585   7.401  10.408  0.00  0.00    +0.000 HD
ENDBRANCH  15  16
ENDBRANCH  14  15
ENDBRANCH  13  14
BRANCH  13  18
ATOM     18  C   UNL     1      49.011   9.164  14.113  0.00  0.00    +0.000 C 
BRANCH  18  19
ATOM     19  C   UNL     1      49.815   8.568  15.255  0.00  0.00    +0.000 A 
ATOM     20  C   UNL     1      50.299   7.258  15.189  0.00  0.00    +0.000 A 
ATOM     21  C   UNL     1      51.061   6.727  16.232  0.00  0.00    +0.000 A 
ATOM     22  C   UNL     1      51.339   7.507  17.355  0.00  0.00    +0.000 A 
ATOM     23  C   UNL     1      50.867   8.813  17.431  0.00  0.00    +0.000 A 
ATOM     24  C   UNL     1      50.110   9.349  16.386  0.00  0.00    +0.000 A 
ENDBRANCH  18  19
ENDBRANCH  13  18
ENDBRANCH  12  13
ENDBRANCH   4  12
BRANCH   6  25
ATOM     25  C   UNL     1      46.942   4.157  14.548  0.00  0.00    +0.000 C 
BRANCH  25  26
ATOM     26  N   UNL     1      47.518   4.652  15.775  0.00  0.00    +0.000 N 
ATOM     27  C   UNL     1      47.176   4.161  17.007  0.00  0.00    +0.000 C 
ATOM     28  O   UNL     1      46.415   3.211  17.154  0.00  0.00    +0.000 OA
ATOM     29  H   UNL     1      48.008   5.537  15.703  0.00  0.00    +0.000 HD
BRANCH  27  30
ATOM     30  C   UNL     1      47.835   4.806  18.152  0.00  0.00    +0.000 A 
ATOM     31  C   UNL     1      47.115   5.682  18.951  0.00  0.00    +0.000 A 
ATOM     32  S   UNL     1      48.004   6.277  20.282  0.00  0.00    +0.000 S 
ATOM     33  C   UNL     1      49.393   5.412  19.813  0.00  0.00    +0.000 A 
ATOM     34  N   UNL     1      50.535   5.474  20.548  0.00  0.00    +0.000 NA
ATOM     35  C   UNL     1      51.516   4.785  20.066  0.00  0.00    +0.000 A 
ATOM     36  N   UNL     1      51.462   4.052  18.908  0.00  0.00    +0.000 N 
ATOM     37  C   UNL     1      50.325   3.946  18.143  0.00  0.00    +0.000 A 
ATOM     38  O   UNL     1      50.299   3.255  17.131  0.00  0.00    +0.000 OA
ATOM     39  C   UNL     1      49.185   4.689  18.650  0.00  0.00    +0.000 A 
ATOM     40  H   UNL     1      52.268   3.538  18.586  0.00  0.00    +0.000 HD
ENDBRANCH  27  30
ENDBRANCH  25  26
ENDBRANCH   6  25
TORSDOF 14
ENDMDL
