MODEL 1
REMARK VINA RESULT:    -6.348      0.000      0.000
REMARK INTER + INTRA:         -10.764
REMARK INTER:                  -8.946
REMARK INTRA:                  -1.818
REMARK UNBOUND:                -1.818
REMARK  Name = 
REMARK  9 active torsions:
REMARK  status: ('A' for Active; 'I' for Inactive)
REMARK    1  A    between atoms: C_1  and  C_2
REMARK    2  A    between atoms: C_2  and  C_3
REMARK    3  A    between atoms: C_2  and  C_4
REMARK    4  A    between atoms: C_4  and  C_5
REMARK    5  A    between atoms: C_5  and  N_6
REMARK    6  A    between atoms: C_5  and  C_19
REMARK    7  A    between atoms: C_7  and  C_9
REMARK    8  A    between atoms: C_22  and  C_23
REMARK    9  A    between atoms: C_23  and  N_24
REMARK                            x       y       z     vdW  Elec       q    Type
REMARK                         _______ _______ _______ _____ _____    ______ ____
ROOT
ATOM      1  C   UNL     1      47.781   8.593  14.327  0.00  0.00    +0.000 C 
ENDROOT
BRANCH   1   2
ATOM      2  C   UNL     1      46.890   7.926  13.280  0.00  0.00    +0.000 A 
ATOM      3  C   UNL     1      47.221   6.626  12.867  0.00  0.00    +0.000 A 
ATOM      4  C   UNL     1      46.445   5.944  11.924  0.00  0.00    +0.000 A 
ATOM      5  C   UNL     1      45.312   6.535  11.353  0.00  0.00    +0.000 A 
ATOM      6  C   UNL     1      45.009   7.856  11.720  0.00  0.00    +0.000 A 
ATOM      7  C   UNL     1      45.797   8.548  12.661  0.00  0.00    +0.000 A 
BRANCH   5   8
ATOM      8  C   UNL     1      44.526   5.794  10.294  0.00  0.00    +0.000 C 
BRANCH   8   9
ATOM      9  N   UNL     1      43.519   4.809  10.688  0.00  0.00    +0.000 NA
ATOM     10  C   UNL     1      42.628   5.170  11.791  0.00  0.00    +0.000 C 
ATOM     11  C   UNL     1      43.110   4.713  13.177  0.00  0.00    +0.000 C 
ATOM     12  O   UNL     1      43.414   3.313  13.198  0.00  0.00    +0.000 OA
ATOM     13  C   UNL     1      44.392   2.980  12.204  0.00  0.00    +0.000 C 
ATOM     14  C   UNL     1      43.946   3.411  10.797  0.00  0.00    +0.000 C 
ENDBRANCH   8   9
ENDBRANCH   5   8
ENDBRANCH   1   2
BRANCH   1  15
ATOM     15  N   UNL     1      48.508   7.551  15.034  0.00  0.00    +0.000 N 
ATOM     16  C   UNL     1      48.813   7.597  16.369  0.00  0.00    +0.000 C 
ATOM     17  O   UNL     1      48.397   8.491  17.102  0.00  0.00    +0.000 OA
ATOM     18  H   UNL     1      48.930   6.846  14.444  0.00  0.00    +0.000 HD
BRANCH  16  19
ATOM     19  C   UNL     1      49.657   6.507  16.888  0.00  0.00    +0.000 A 
ATOM     20  C   UNL     1      50.912   6.798  17.409  0.00  0.00    +0.000 A 
ATOM     21  S   UNL     1      51.757   5.431  17.982  0.00  0.00    +0.000 S 
ATOM     22  C   UNL     1      50.482   4.393  17.549  0.00  0.00    +0.000 A 
ATOM     23  N   UNL     1      50.570   3.053  17.772  0.00  0.00    +0.000 NA
ATOM     24  C   UNL     1      49.538   2.378  17.395  0.00  0.00    +0.000 A 
ATOM     25  N   UNL     1      48.431   2.918  16.806  0.00  0.00    +0.000 N 
ATOM     26  C   UNL     1      48.306   4.260  16.538  0.00  0.00    +0.000 A 
ATOM     27  O   UNL     1      47.304   4.694  15.975  0.00  0.00    +0.000 OA
ATOM     28  C   UNL     1      49.427   5.078  16.968  0.00  0.00    +0.000 A 
ATOM     29  H   UNL     1      47.654   2.339  16.521  0.00  0.00    +0.000 HD
ENDBRANCH  16  19
ENDBRANCH   1  15
BRANCH   1  30
ATOM     30  C   UNL     1      48.776   9.665  13.816  0.00  0.00    +0.000 C 
BRANCH  30  32
ATOM     31  C   UNL     1      48.846  10.542  11.396  0.00  0.00    +0.000 C 
ATOM     32  C   UNL     1      49.312   9.467  12.382  0.00  0.00    +0.000 C 
ATOM     33  C   UNL     1      50.845   9.419  12.398  0.00  0.00    +0.000 C 
ENDBRANCH  30  32
ENDBRANCH   1  30
TORSDOF 7
ENDMDL
MODEL 2
REMARK VINA RESULT:    -6.059      1.534      1.703
REMARK INTER + INTRA:         -10.355
REMARK INTER:                  -8.926
REMARK INTRA:                  -1.430
REMARK UNBOUND:                -1.818
REMARK  Name = 
REMARK  9 active torsions:
REMARK  status: ('A' for Active; 'I' for Inactive)
REMARK    1  A    between atoms: C_1  and  C_2
REMARK    2  A    between atoms: C_2  and  C_3
REMARK    3  A    between atoms: C_2  and  C_4
REMARK    4  A    between atoms: C_4  and  C_5
REMARK    5  A    between atoms: C_5  and  N_6
REMARK    6  A    between atoms: C_5  and  C_19
REMARK    7  A    between atoms: C_7  and  C_9
REMARK    8  A    between atoms: C_22  and  C_23
REMARK    9  A    between atoms: C_23  and  N_24
REMARK                            x       y       z     vdW  Elec       q    Type
REMARK                         _______ _______ _______ _____ _____    ______ ____
ROOT
ATOM      1  C   UNL     1      47.866   8.813  13.830  0.00  0.00    +0.000 C 
ENDROOT
BRANCH   1   2
ATOM      2  C   UNL     1      46.912   8.068  12.899  0.00  0.00    +0.000 A 
ATOM      3  C   UNL     1      47.237   6.750  12.541  0.00  0.00    +0.000 A 
ATOM      4  C   UNL     1      46.406   5.998  11.704  0.00  0.00    +0.000 A 
ATOM      5  C   UNL     1      45.221   6.534  11.189  0.00  0.00    +0.000 A 
ATOM      6  C   UNL     1      44.918   7.870  11.497  0.00  0.00    +0.000 A 
ATOM      7  C   UNL     1      45.761   8.632  12.330  0.00  0.00    +0.000 A 
BRANCH   5   8
ATOM      8  C   UNL     1      44.371   5.715  10.241  0.00  0.00    +0.000 C 
BRANCH   8   9
ATOM      9  N   UNL     1      43.341   4.822  10.771  0.00  0.00    +0.000 NA
ATOM     10  C   UNL     1      42.537   5.319  11.888  0.00  0.00    +0.000 C 
ATOM     11  C   UNL     1      43.077   4.947  13.278  0.00  0.00    +0.000 C 
ATOM     12  O   UNL     1      43.310   3.538  13.397  0.00  0.00    +0.000 OA
ATOM     13  C   UNL     1      44.209   3.074  12.382  0.00  0.00    +0.000 C 
ATOM     14  C   UNL     1      43.702   3.415  10.971  0.00  0.00    +0.000 C 
ENDBRANCH   8   9
ENDBRANCH   5   8
ENDBRANCH   1   2
BRANCH   1  15
ATOM     15  N   UNL     1      47.830   8.164  15.131  0.00  0.00    +0.000 N 
ATOM     16  C   UNL     1      48.208   8.766  16.302  0.00  0.00    +0.000 C 
ATOM     17  O   UNL     1      48.512   9.955  16.354  0.00  0.00    +0.000 OA
ATOM     18  H   UNL     1      47.661   7.166  15.108  0.00  0.00    +0.000 HD
BRANCH  16  19
ATOM     19  C   UNL     1      48.215   7.916  17.506  0.00  0.00    +0.000 A 
ATOM     20  C   UNL     1      47.832   8.454  18.728  0.00  0.00    +0.000 A 
ATOM     21  S   UNL     1      47.880   7.341  20.019  0.00  0.00    +0.000 S 
ATOM     22  C   UNL     1      48.425   6.096  18.997  0.00  0.00    +0.000 A 
ATOM     23  N   UNL     1      48.672   4.850  19.490  0.00  0.00    +0.000 NA
ATOM     24  C   UNL     1      49.082   4.000  18.613  0.00  0.00    +0.000 A 
ATOM     25  N   UNL     1      49.280   4.282  17.291  0.00  0.00    +0.000 N 
ATOM     26  C   UNL     1      49.068   5.529  16.753  0.00  0.00    +0.000 A 
ATOM     27  O   UNL     1      49.292   5.743  15.564  0.00  0.00    +0.000 OA
ATOM     28  C   UNL     1      48.575   6.524  17.689  0.00  0.00    +0.000 A 
ATOM     29  H   UNL     1      49.613   3.577  16.649  0.00  0.00    +0.000 HD
ENDBRANCH  16  19
ENDBRANCH   1  15
BRANCH   1  30
ATOM     30  C   UNL     1      49.335   8.951  13.360  0.00  0.00    +0.000 C 
BRANCH  30  32
ATOM     31  C   UNL     1      49.856  10.566  11.423  0.00  0.00    +0.000 C 
ATOM     32  C   UNL     1      49.550   9.125  11.841  0.00  0.00    +0.000 C 
ATOM     33  C   UNL     1      50.678   8.204  11.361  0.00  0.00    +0.000 C 
ENDBRANCH  30  32
ENDBRANCH   1  30
TORSDOF 7
ENDMDL
MODEL 3
REMARK VINA RESULT:    -5.995      2.193      5.923
REMARK INTER + INTRA:         -10.266
REMARK INTER:                  -8.715
REMARK INTRA:                  -1.551
REMARK UNBOUND:                -1.818
REMARK  Name = 
REMARK  9 active torsions:
REMARK  status: ('A' for Active; 'I' for Inactive)
REMARK    1  A    between atoms: C_1  and  C_2
REMARK    2  A    between atoms: C_2  and  C_3
REMARK    3  A    between atoms: C_2  and  C_4
REMARK    4  A    between atoms: C_4  and  C_5
REMARK    5  A    between atoms: C_5  and  N_6
REMARK    6  A    between atoms: C_5  and  C_19
REMARK    7  A    between atoms: C_7  and  C_9
REMARK    8  A    between atoms: C_22  and  C_23
REMARK    9  A    between atoms: C_23  and  N_24
REMARK                            x       y       z     vdW  Elec       q    Type
REMARK                         _______ _______ _______ _____ _____    ______ ____
ROOT
ATOM      1  C   UNL     1      46.330   5.619  13.217  0.00  0.00    +0.000 C 
ENDROOT
BRANCH   1   2
ATOM      2  C   UNL     1      46.765   6.994  12.718  0.00  0.00    +0.000 A 
ATOM      3  C   UNL     1      48.073   7.133  12.228  0.00  0.00    +0.000 A 
ATOM      4  C   UNL     1      48.540   8.358  11.739  0.00  0.00    +0.000 A 
ATOM      5  C   UNL     1      47.721   9.493  11.727  0.00  0.00    +0.000 A 
ATOM      6  C   UNL     1      46.432   9.375  12.268  0.00  0.00    +0.000 A 
ATOM      7  C   UNL     1      45.965   8.144  12.771  0.00  0.00    +0.000 A 
BRANCH   5   8
ATOM      8  C   UNL     1      48.273  10.817  11.245  0.00  0.00    +0.000 C 
BRANCH   8   9
ATOM      9  N   UNL     1      49.145  11.605  12.116  0.00  0.00    +0.000 NA
ATOM     10  C   UNL     1      50.581  11.561  11.839  0.00  0.00    +0.000 C 
ATOM     11  C   UNL     1      51.350  10.489  12.626  0.00  0.00    +0.000 C 
ATOM     12  O   UNL     1      51.100  10.582  14.034  0.00  0.00    +0.000 OA
ATOM     13  C   UNL     1      49.698  10.487  14.318  0.00  0.00    +0.000 C 
ATOM     14  C   UNL     1      48.888  11.551  13.558  0.00  0.00    +0.000 C 
ENDBRANCH   8   9
ENDBRANCH   5   8
ENDBRANCH   1   2
BRANCH   1  15
ATOM     15  N   UNL     1      46.947   5.389  14.514  0.00  0.00    +0.000 N 
ATOM     16  C   UNL     1      47.344   4.160  14.970  0.00  0.00    +0.000 C 
ATOM     17  O   UNL     1      47.302   3.158  14.261  0.00  0.00    +0.000 OA
ATOM     18  H   UNL     1      46.921   6.178  15.147  0.00  0.00    +0.000 HD
BRANCH  16  19
ATOM     19  C   UNL     1      47.842   4.103  16.356  0.00  0.00    +0.000 A 
ATOM     20  C   UNL     1      47.306   3.174  17.240  0.00  0.00    +0.000 A 
ATOM     21  S   UNL     1      47.999   3.225  18.798  0.00  0.00    +0.000 S 
ATOM     22  C   UNL     1      49.037   4.496  18.356  0.00  0.00    +0.000 A 
ATOM     23  N   UNL     1      49.911   5.025  19.256  0.00  0.00    +0.000 NA
ATOM     24  C   UNL     1      50.638   5.985  18.796  0.00  0.00    +0.000 A 
ATOM     25  N   UNL     1      50.564   6.473  17.522  0.00  0.00    +0.000 N 
ATOM     26  C   UNL     1      49.681   5.989  16.587  0.00  0.00    +0.000 A 
ATOM     27  O   UNL     1      49.628   6.483  15.464  0.00  0.00    +0.000 OA
ATOM     28  C   UNL     1      48.854   4.884  17.039  0.00  0.00    +0.000 A 
ATOM     29  H   UNL     1      51.153   7.235  17.218  0.00  0.00    +0.000 HD
ENDBRANCH  16  19
ENDBRANCH   1  15
BRANCH   1  30
ATOM     30  C   UNL     1      44.806   5.361  13.314  0.00  0.00    +0.000 C 
BRANCH  30  32
ATOM     31  C   UNL     1      43.912   3.203  12.230  0.00  0.00    +0.000 C 
ATOM     32  C   UNL     1      44.146   4.709  12.080  0.00  0.00    +0.000 C 
ATOM     33  C   UNL     1      42.815   5.404  11.769  0.00  0.00    +0.000 C 
ENDBRANCH  30  32
ENDBRANCH   1  30
TORSDOF 7
ENDMDL
MODEL 4
REMARK VINA RESULT:    -5.867      3.839      8.255
REMARK INTER + INTRA:         -10.085
REMARK INTER:                  -8.890
REMARK INTRA:                  -1.195
REMARK UNBOUND:                -1.818
REMARK  Name = 
REMARK  9 active torsions:
REMARK  status: ('A' for Active; 'I' for Inactive)
REMARK    1  A    between atoms: C_1  and  C_2
REMARK    2  A    between atoms: C_2  and  C_3
REMARK    3  A    between atoms: C_2  and  C_4
REMARK    4  A    between atoms: C_4  and  C_5
REMARK    5  A    between atoms: C_5  and  N_6
REMARK    6  A    between atoms: C_5  and  C_19
REMARK    7  A    between atoms: C_7  and  C_9
REMARK    8  A    between atoms: C_22  and  C_23
REMARK    9  A    between atoms: C_23  and  N_24
REMARK                            x       y       z     vdW  Elec       q    Type
REMARK                         _______ _______ _______ _____ _____    ______ ____
ROOT
ATOM      1  C   UNL     1      45.125   5.731  10.824  0.00  0.00    +0.000 C 
ENDROOT
BRANCH   1   2
ATOM      2  C   UNL     1      45.839   5.375  12.126  0.00  0.00    +0.000 A 
ATOM      3  C   UNL     1      45.465   4.189  12.778  0.00  0.00    +0.000 A 
ATOM      4  C   UNL     1      46.082   3.788  13.967  0.00  0.00    +0.000 A 
ATOM      5  C   UNL     1      47.094   4.556  14.554  0.00  0.00    +0.000 A 
ATOM      6  C   UNL     1      47.434   5.771  13.937  0.00  0.00    +0.000 A 
ATOM      7  C   UNL     1      46.803   6.182  12.746  0.00  0.00    +0.000 A 
BRANCH   5   8
ATOM      8  C   UNL     1      47.704   4.124  15.870  0.00  0.00    +0.000 C 
BRANCH   8   9
ATOM      9  N   UNL     1      48.114   5.130  16.849  0.00  0.00    +0.000 NA
ATOM     10  C   UNL     1      49.529   5.501  16.872  0.00  0.00    +0.000 C 
ATOM     11  C   UNL     1      50.384   4.696  17.863  0.00  0.00    +0.000 C 
ATOM     12  O   UNL     1      49.825   4.715  19.183  0.00  0.00    +0.000 OA
ATOM     13  C   UNL     1      48.480   4.221  19.182  0.00  0.00    +0.000 C 
ATOM     14  C   UNL     1      47.584   5.006  18.210  0.00  0.00    +0.000 C 
ENDBRANCH   8   9
ENDBRANCH   5   8
ENDBRANCH   1   2
BRANCH   1  15
ATOM     15  N   UNL     1      44.842   7.157  10.837  0.00  0.00    +0.000 N 
ATOM     16  C   UNL     1      43.609   7.694  11.094  0.00  0.00    +0.000 C 
ATOM     17  O   UNL     1      42.656   7.001  11.442  0.00  0.00    +0.000 OA
ATOM     18  H   UNL     1      45.584   7.745  10.477  0.00  0.00    +0.000 HD
BRANCH  16  19
ATOM     19  C   UNL     1      43.484   9.155  10.948  0.00  0.00    +0.000 A 
ATOM     20  C   UNL     1      42.351   9.692  10.348  0.00  0.00    +0.000 A 
ATOM     21  S   UNL     1      42.352  11.396  10.269  0.00  0.00    +0.000 S 
ATOM     22  C   UNL     1      43.872  11.485  11.026  0.00  0.00    +0.000 A 
ATOM     23  N   UNL     1      44.462  12.689  11.261  0.00  0.00    +0.000 NA
ATOM     24  C   UNL     1      45.612  12.619  11.837  0.00  0.00    +0.000 A 
ATOM     25  N   UNL     1      46.234  11.455  12.190  0.00  0.00    +0.000 N 
ATOM     26  C   UNL     1      45.690  10.215  11.951  0.00  0.00    +0.000 A 
ATOM     27  O   UNL     1      46.302   9.195  12.257  0.00  0.00    +0.000 OA
ATOM     28  C   UNL     1      44.377  10.231  11.329  0.00  0.00    +0.000 A 
ATOM     29  H   UNL     1      47.142  11.459  12.631  0.00  0.00    +0.000 HD
ENDBRANCH  16  19
ENDBRANCH   1  15
BRANCH   1  30
ATOM     30  C   UNL     1      45.849   5.357   9.506  0.00  0.00    +0.000 C 
BRANCH  30  32
ATOM     31  C   UNL     1      46.058   3.670   7.573  0.00  0.00    +0.000 C 
ATOM     32  C   UNL     1      45.139   4.321   8.610  0.00  0.00    +0.000 C 
ATOM     33  C   UNL     1      44.495   3.231   9.477  0.00  0.00    +0.000 C 
ENDBRANCH  30  32
ENDBRANCH   1  30
TORSDOF 7
ENDMDL
MODEL 5
REMARK VINA RESULT:    -5.602      1.640      2.267
REMARK INTER + INTRA:          -9.711
REMARK INTER:                  -8.131
REMARK INTRA:                  -1.581
REMARK UNBOUND:                -1.818
REMARK  Name = 
REMARK  9 active torsions:
REMARK  status: ('A' for Active; 'I' for Inactive)
REMARK    1  A    between atoms: C_1  and  C_2
REMARK    2  A    between atoms: C_2  and  C_3
REMARK    3  A    between atoms: C_2  and  C_4
REMARK    4  A    between atoms: C_4  and  C_5
REMARK    5  A    between atoms: C_5  and  N_6
REMARK    6  A    between atoms: C_5  and  C_19
REMARK    7  A    between atoms: C_7  and  C_9
REMARK    8  A    between atoms: C_22  and  C_23
REMARK    9  A    between atoms: C_23  and  N_24
REMARK                            x       y       z     vdW  Elec       q    Type
REMARK                         _______ _______ _______ _____ _____    ______ ____
ROOT
ATOM      1  C   UNL     1      49.207   8.161  13.580  0.00  0.00    +0.000 C 
ENDROOT
BRANCH   1   2
ATOM      2  C   UNL     1      47.828   7.862  12.997  0.00  0.00    +0.000 A 
ATOM      3  C   UNL     1      47.733   6.869  12.010  0.00  0.00    +0.000 A 
ATOM      4  C   UNL     1      46.503   6.527  11.438  0.00  0.00    +0.000 A 
ATOM      5  C   UNL     1      45.321   7.167  11.827  0.00  0.00    +0.000 A 
ATOM      6  C   UNL     1      45.416   8.200  12.773  0.00  0.00    +0.000 A 
ATOM      7  C   UNL     1      46.657   8.553  13.340  0.00  0.00    +0.000 A 
BRANCH   5   8
ATOM      8  C   UNL     1      44.013   6.815  11.150  0.00  0.00    +0.000 C 
BRANCH   8   9
ATOM      9  N   UNL     1      43.313   5.583  11.512  0.00  0.00    +0.000 NA
ATOM     10  C   UNL     1      43.287   5.222  12.930  0.00  0.00    +0.000 C 
ATOM     11  C   UNL     1      44.426   4.289  13.371  0.00  0.00    +0.000 C 
ATOM     12  O   UNL     1      44.506   3.122  12.543  0.00  0.00    +0.000 OA
ATOM     13  C   UNL     1      44.669   3.475  11.164  0.00  0.00    +0.000 C 
ATOM     14  C   UNL     1      43.544   4.402  10.675  0.00  0.00    +0.000 C 
ENDBRANCH   8   9
ENDBRANCH   5   8
ENDBRANCH   1   2
BRANCH   1  15
ATOM     15  N   UNL     1      49.533   7.114  14.535  0.00  0.00    +0.000 N 
ATOM     16  C   UNL     1      49.246   7.176  15.873  0.00  0.00    +0.000 C 
ATOM     17  O   UNL     1      48.586   8.093  16.355  0.00  0.00    +0.000 OA
ATOM     18  H   UNL     1      50.144   6.388  14.183  0.00  0.00    +0.000 HD
BRANCH  16  19
ATOM     19  C   UNL     1      49.756   6.074  16.707  0.00  0.00    +0.000 A 
ATOM     20  C   UNL     1      48.862   5.258  17.389  0.00  0.00    +0.000 A 
ATOM     21  S   UNL     1      49.608   4.021  18.297  0.00  0.00    +0.000 S 
ATOM     22  C   UNL     1      51.159   4.533  17.822  0.00  0.00    +0.000 A 
ATOM     23  N   UNL     1      52.271   3.883  18.264  0.00  0.00    +0.000 NA
ATOM     24  C   UNL     1      53.383   4.372  17.834  0.00  0.00    +0.000 A 
ATOM     25  N   UNL     1      53.487   5.458  17.011  0.00  0.00    +0.000 N 
ATOM     26  C   UNL     1      52.395   6.160  16.558  0.00  0.00    +0.000 A 
ATOM     27  O   UNL     1      52.541   7.150  15.847  0.00  0.00    +0.000 OA
ATOM     28  C   UNL     1      51.110   5.637  16.987  0.00  0.00    +0.000 A 
ATOM     29  H   UNL     1      54.387   5.804  16.712  0.00  0.00    +0.000 HD
ENDBRANCH  16  19
ENDBRANCH   1  15
BRANCH   1  30
ATOM     30  C   UNL     1      50.371   8.325  12.572  0.00  0.00    +0.000 C 
BRANCH  30  32
ATOM     31  C   UNL     1      49.533  10.403  11.303  0.00  0.00    +0.000 C 
ATOM     32  C   UNL     1      50.671   9.766  12.107  0.00  0.00    +0.000 C 
ATOM     33  C   UNL     1      50.999  10.650  13.316  0.00  0.00    +0.000 C 
ENDBRANCH  30  32
ENDBRANCH   1  30
TORSDOF 7
ENDMDL
MODEL 6
REMARK VINA RESULT:    -5.528      2.046      2.616
REMARK INTER + INTRA:          -9.608
REMARK INTER:                  -8.791
REMARK INTRA:                  -0.817
REMARK UNBOUND:                -1.818
REMARK  Name = 
REMARK  9 active torsions:
REMARK  status: ('A' for Active; 'I' for Inactive)
REMARK    1  A    between atoms: C_1  and  C_2
REMARK    2  A    between atoms: C_2  and  C_3
REMARK    3  A    between atoms: C_2  and  C_4
REMARK    4  A    between atoms: C_4  and  C_5
REMARK    5  A    between atoms: C_5  and  N_6
REMARK    6  A    between atoms: C_5  and  C_19
REMARK    7  A    between atoms: C_7  and  C_9
REMARK    8  A    between atoms: C_22  and  C_23
REMARK    9  A    between atoms: C_23  and  N_24
REMARK                            x       y       z     vdW  Elec       q    Type
REMARK                         _______ _______ _______ _____ _____    ______ ____
ROOT
ATOM      1  C   UNL     1      48.124   8.788  14.284  0.00  0.00    +0.000 C 
ENDROOT
BRANCH   1   2
ATOM      2  C   UNL     1      47.198   8.102  13.284  0.00  0.00    +0.000 A 
ATOM      3  C   UNL     1      47.754   7.146  12.420  0.00  0.00    +0.000 A 
ATOM      4  C   UNL     1      46.967   6.463  11.487  0.00  0.00    +0.000 A 
ATOM      5  C   UNL     1      45.595   6.713  11.376  0.00  0.00    +0.000 A 
ATOM      6  C   UNL     1      45.042   7.709  12.197  0.00  0.00    +0.000 A 
ATOM      7  C   UNL     1      45.837   8.405  13.129  0.00  0.00    +0.000 A 
BRANCH   5   8
ATOM      8  C   UNL     1      44.780   6.000  10.318  0.00  0.00    +0.000 C 
BRANCH   8   9
ATOM      9  N   UNL     1      44.032   4.792  10.664  0.00  0.00    +0.000 NA
ATOM     10  C   UNL     1      42.855   4.958  11.518  0.00  0.00    +0.000 C 
ATOM     11  C   UNL     1      43.130   4.795  13.021  0.00  0.00    +0.000 C 
ATOM     12  O   UNL     1      43.805   3.564  13.307  0.00  0.00    +0.000 OA
ATOM     13  C   UNL     1      45.030   3.462  12.571  0.00  0.00    +0.000 C 
ATOM     14  C   UNL     1      44.801   3.608  11.058  0.00  0.00    +0.000 C 
ENDBRANCH   8   9
ENDBRANCH   5   8
ENDBRANCH   1   2
BRANCH   1  15
ATOM     15  N   UNL     1      48.095   8.030  15.525  0.00  0.00    +0.000 N 
ATOM     16  C   UNL     1      48.907   6.960  15.792  0.00  0.00    +0.000 C 
ATOM     17  O   UNL     1      49.809   6.621  15.030  0.00  0.00    +0.000 OA
ATOM     18  H   UNL     1      47.313   8.235  16.134  0.00  0.00    +0.000 HD
BRANCH  16  19
ATOM     19  C   UNL     1      48.656   6.243  17.054  0.00  0.00    +0.000 A 
ATOM     20  C   UNL     1      48.807   4.862  17.101  0.00  0.00    +0.000 A 
ATOM     21  S   UNL     1      48.495   4.184  18.635  0.00  0.00    +0.000 S 
ATOM     22  C   UNL     1      48.135   5.708  19.296  0.00  0.00    +0.000 A 
ATOM     23  N   UNL     1      47.778   5.832  20.604  0.00  0.00    +0.000 NA
ATOM     24  C   UNL     1      47.528   7.039  20.980  0.00  0.00    +0.000 A 
ATOM     25  N   UNL     1      47.591   8.134  20.165  0.00  0.00    +0.000 N 
ATOM     26  C   UNL     1      47.923   8.056  18.834  0.00  0.00    +0.000 A 
ATOM     27  O   UNL     1      47.934   9.065  18.133  0.00  0.00    +0.000 OA
ATOM     28  C   UNL     1      48.244   6.722  18.359  0.00  0.00    +0.000 A 
ATOM     29  H   UNL     1      47.375   9.058  20.511  0.00  0.00    +0.000 HD
ENDBRANCH  16  19
ENDBRANCH   1  15
BRANCH   1  30
ATOM     30  C   UNL     1      49.594   9.002  13.842  0.00  0.00    +0.000 C 
BRANCH  30  32
ATOM     31  C   UNL     1      49.850  10.095  11.525  0.00  0.00    +0.000 C 
ATOM     32  C   UNL     1      49.882  10.291  13.043  0.00  0.00    +0.000 C 
ATOM     33  C   UNL     1      48.886  11.388  13.438  0.00  0.00    +0.000 C 
ENDBRANCH  30  32
ENDBRANCH   1  30
TORSDOF 7
ENDMDL
MODEL 7
REMARK VINA RESULT:    -5.373      3.303      7.397
REMARK INTER + INTRA:          -9.390
REMARK INTER:                  -8.451
REMARK INTRA:                  -0.939
REMARK UNBOUND:                -1.818
REMARK  Name = 
REMARK  9 active torsions:
REMARK  status: ('A' for Active; 'I' for Inactive)
REMARK    1  A    between atoms: C_1  and  C_2
REMARK    2  A    between atoms: C_2  and  C_3
REMARK    3  A    between atoms: C_2  and  C_4
REMARK    4  A    between atoms: C_4  and  C_5
REMARK    5  A    between atoms: C_5  and  N_6
REMARK    6  A    between atoms: C_5  and  C_19
REMARK    7  A    between atoms: C_7  and  C_9
REMARK    8  A    between atoms: C_22  and  C_23
REMARK    9  A    between atoms: C_23  and  N_24
REMARK                            x       y       z     vdW  Elec       q    Type
REMARK                         _______ _______ _______ _____ _____    ______ ____
ROOT
ATOM      1  C   UNL     1      48.761   7.506  15.454  0.00  0.00    +0.000 C 
ENDROOT
BRANCH   1   2
ATOM      2  C   UNL     1      49.754   8.242  14.558  0.00  0.00    +0.000 A 
ATOM      3  C   UNL     1      51.109   7.890  14.649  0.00  0.00    +0.000 A 
ATOM      4  C   UNL     1      52.077   8.509  13.851  0.00  0.00    +0.000 A 
ATOM      5  C   UNL     1      51.729   9.507  12.933  0.00  0.00    +0.000 A 
ATOM      6  C   UNL     1      50.383   9.904  12.877  0.00  0.00    +0.000 A 
ATOM      7  C   UNL     1      49.410   9.289  13.691  0.00  0.00    +0.000 A 
BRANCH   5   8
ATOM      8  C   UNL     1      52.805  10.198  12.124  0.00  0.00    +0.000 C 
BRANCH   8   9
ATOM      9  N   UNL     1      53.292   9.588  10.887  0.00  0.00    +0.000 NA
ATOM     10  C   UNL     1      52.295   8.976  10.007  0.00  0.00    +0.000 C 
ATOM     11  C   UNL     1      52.070   7.475  10.245  0.00  0.00    +0.000 C 
ATOM     12  O   UNL     1      53.301   6.742  10.216  0.00  0.00    +0.000 OA
ATOM     13  C   UNL     1      54.232   7.256  11.177  0.00  0.00    +0.000 C 
ATOM     14  C   UNL     1      54.497   8.757  10.970  0.00  0.00    +0.000 C 
ENDBRANCH   8   9
ENDBRANCH   5   8
ENDBRANCH   1   2
BRANCH   1  15
ATOM     15  N   UNL     1      47.601   7.153  14.653  0.00  0.00    +0.000 N 
ATOM     16  C   UNL     1      47.647   6.356  13.539  0.00  0.00    +0.000 C 
ATOM     17  O   UNL     1      48.678   5.786  13.190  0.00  0.00    +0.000 OA
ATOM     18  H   UNL     1      46.757   7.670  14.868  0.00  0.00    +0.000 HD
BRANCH  16  19
ATOM     19  C   UNL     1      46.390   6.203  12.787  0.00  0.00    +0.000 A 
ATOM     20  C   UNL     1      45.789   7.319  12.218  0.00  0.00    +0.000 A 
ATOM     21  S   UNL     1      44.351   6.973  11.369  0.00  0.00    +0.000 S 
ATOM     22  C   UNL     1      44.468   5.317  11.735  0.00  0.00    +0.000 A 
ATOM     23  N   UNL     1      43.524   4.439  11.297  0.00  0.00    +0.000 NA
ATOM     24  C   UNL     1      43.728   3.215  11.645  0.00  0.00    +0.000 A 
ATOM     25  N   UNL     1      44.782   2.788  12.401  0.00  0.00    +0.000 N 
ATOM     26  C   UNL     1      45.746   3.640  12.887  0.00  0.00    +0.000 A 
ATOM     27  O   UNL     1      46.658   3.214  13.591  0.00  0.00    +0.000 OA
ATOM     28  C   UNL     1      45.586   5.031  12.502  0.00  0.00    +0.000 A 
ATOM     29  H   UNL     1      44.887   1.816  12.653  0.00  0.00    +0.000 HD
ENDBRANCH  16  19
ENDBRANCH   1  15
BRANCH   1  30
ATOM     30  C   UNL     1      49.285   6.247  16.190  0.00  0.00    +0.000 C 
BRANCH  30  32
ATOM     31  C   UNL     1      47.699   4.302  16.763  0.00  0.00    +0.000 C 
ATOM     32  C   UNL     1      48.330   5.618  17.226  0.00  0.00    +0.000 C 
ATOM     33  C   UNL     1      49.068   5.391  18.551  0.00  0.00    +0.000 C 
ENDBRANCH  30  32
ENDBRANCH   1  30
TORSDOF 7
ENDMDL
MODEL 8
REMARK VINA RESULT:    -5.246      5.721      8.864
REMARK INTER + INTRA:          -9.210
REMARK INTER:                  -8.550
REMARK INTRA:                  -0.660
REMARK UNBOUND:                -1.818
REMARK  Name = 
REMARK  9 active torsions:
REMARK  status: ('A' for Active; 'I' for Inactive)
REMARK    1  A    between atoms: C_1  and  C_2
REMARK    2  A    between atoms: C_2  and  C_3
REMARK    3  A    between atoms: C_2  and  C_4
REMARK    4  A    between atoms: C_4  and  C_5
REMARK    5  A    between atoms: C_5  and  N_6
REMARK    6  A    between atoms: C_5  and  C_19
REMARK    7  A    between atoms: C_7  and  C_9
REMARK    8  A    between atoms: C_22  and  C_23
REMARK    9  A    between atoms: C_23  and  N_24
REMARK                            x       y       z     vdW  Elec       q    Type
REMARK                         _______ _______ _______ _____ _____    ______ ____
ROOT
ATOM      1  C   UNL     1      44.177  10.852  11.365  0.00  0.00    +0.000 C 
ENDROOT
BRANCH   1   2
ATOM      2  C   UNL     1      44.721   9.476  11.740  0.00  0.00    +0.000 A 
ATOM      3  C   UNL     1      44.344   8.381  10.947  0.00  0.00    +0.000 A 
ATOM      4  C   UNL     1      44.813   7.092  11.217  0.00  0.00    +0.000 A 
ATOM      5  C   UNL     1      45.673   6.844  12.293  0.00  0.00    +0.000 A 
ATOM      6  C   UNL     1      46.009   7.925  13.124  0.00  0.00    +0.000 A 
ATOM      7  C   UNL     1      45.527   9.222  12.859  0.00  0.00    +0.000 A 
BRANCH   5   8
ATOM      8  C   UNL     1      46.119   5.429  12.594  0.00  0.00    +0.000 C 
BRANCH   8   9
ATOM      9  N   UNL     1      45.126   4.405  12.917  0.00  0.00    +0.000 NA
ATOM     10  C   UNL     1      45.135   3.187  12.105  0.00  0.00    +0.000 C 
ATOM     11  C   UNL     1      44.191   3.221  10.894  0.00  0.00    +0.000 C 
ATOM     12  O   UNL     1      42.855   3.578  11.272  0.00  0.00    +0.000 OA
ATOM     13  C   UNL     1      42.829   4.841  11.949  0.00  0.00    +0.000 C 
ATOM     14  C   UNL     1      43.754   4.850  13.177  0.00  0.00    +0.000 C 
ENDBRANCH   8   9
ENDBRANCH   5   8
ENDBRANCH   1   2
BRANCH   1  15
ATOM     15  N   UNL     1      42.889  11.025  12.018  0.00  0.00    +0.000 N 
ATOM     16  C   UNL     1      41.799  11.606  11.426  0.00  0.00    +0.000 C 
ATOM     17  O   UNL     1      41.799  11.936  10.243  0.00  0.00    +0.000 OA
ATOM     18  H   UNL     1      42.883  10.837  13.012  0.00  0.00    +0.000 HD
BRANCH  16  19
ATOM     19  C   UNL     1      40.614  11.802  12.280  0.00  0.00    +0.000 A 
ATOM     20  C   UNL     1      40.766  12.328  13.557  0.00  0.00    +0.000 A 
ATOM     21  S   UNL     1      39.300  12.506  14.411  0.00  0.00    +0.000 S 
ATOM     22  C   UNL     1      38.403  11.878  13.110  0.00  0.00    +0.000 A 
ATOM     23  N   UNL     1      37.049  11.754  13.195  0.00  0.00    +0.000 NA
ATOM     24  C   UNL     1      36.490  11.261  12.143  0.00  0.00    +0.000 A 
ATOM     25  N   UNL     1      37.159  10.871  11.018  0.00  0.00    +0.000 N 
ATOM     26  C   UNL     1      38.526  10.954  10.896  0.00  0.00    +0.000 A 
ATOM     27  O   UNL     1      39.086  10.558   9.877  0.00  0.00    +0.000 OA
ATOM     28  C   UNL     1      39.210  11.529  12.040  0.00  0.00    +0.000 A 
ATOM     29  H   UNL     1      36.670  10.482  10.225  0.00  0.00    +0.000 HD
ENDBRANCH  16  19
ENDBRANCH   1  15
BRANCH   1  30
ATOM     30  C   UNL     1      45.083  12.070  11.676  0.00  0.00    +0.000 C 
BRANCH  30  32
ATOM     31  C   UNL     1      47.452  11.786  10.706  0.00  0.00    +0.000 C 
ATOM     32  C   UNL     1      46.088  12.469  10.573  0.00  0.00    +0.000 C 
ATOM     33  C   UNL     1      45.497  12.166   9.191  0.00  0.00    +0.000 C 
ENDBRANCH  30  32
ENDBRANCH   1  30
TORSDOF 7
ENDMDL
MODEL 9
REMARK VINA RESULT:    -5.041      2.137      2.749
REMARK INTER + INTRA:          -8.921
REMARK INTER:                  -7.475
REMARK INTRA:                  -1.446
REMARK UNBOUND:                -1.818
REMARK  Name = 
REMARK  9 active torsions:
REMARK  status: ('A' for Active; 'I' for Inactive)
REMARK    1  A    between atoms: C_1  and  C_2
REMARK    2  A    between atoms: C_2  and  C_3
REMARK    3  A    between atoms: C_2  and  C_4
REMARK    4  A    between atoms: C_4  and  C_5
REMARK    5  A    between atoms: C_5  and  N_6
REMARK    6  A    between atoms: C_5  and  C_19
REMARK    7  A    between atoms: C_7  and  C_9
REMARK    8  A    between atoms: C_22  and  C_23
REMARK    9  A    between atoms: C_23  and  N_24
REMARK                            x       y       z     vdW  Elec       q    Type
REMARK                         _______ _______ _______ _____ _____    ______ ____
ROOT
ATOM      1  C   UNL     1      48.243   8.700  15.185  0.00  0.00    +0.000 C 
ENDROOT
BRANCH   1   2
ATOM      2  C   UNL     1      47.579   7.986  14.010  0.00  0.00    +0.000 A 
ATOM      3  C   UNL     1      47.889   6.633  13.802  0.00  0.00    +0.000 A 
ATOM      4  C   UNL     1      47.309   5.907  12.757  0.00  0.00    +0.000 A 
ATOM      5  C   UNL     1      46.401   6.504  11.875  0.00  0.00    +0.000 A 
ATOM      6  C   UNL     1      46.131   7.872  12.043  0.00  0.00    +0.000 A 
ATOM      7  C   UNL     1      46.723   8.607  13.089  0.00  0.00    +0.000 A 
BRANCH   5   8
ATOM      8  C   UNL     1      45.834   5.708  10.720  0.00  0.00    +0.000 C 
BRANCH   8   9
ATOM      9  N   UNL     1      44.420   5.335  10.715  0.00  0.00    +0.000 NA
ATOM     10  C   UNL     1      43.779   5.132  12.015  0.00  0.00    +0.000 C 
ATOM     11  C   UNL     1      43.799   3.681  12.517  0.00  0.00    +0.000 C 
ATOM     12  O   UNL     1      43.277   2.773  11.539  0.00  0.00    +0.000 OA
ATOM     13  C   UNL     1      43.996   2.874  10.303  0.00  0.00    +0.000 C 
ATOM     14  C   UNL     1      43.993   4.312   9.757  0.00  0.00    +0.000 C 
ENDBRANCH   8   9
ENDBRANCH   5   8
ENDBRANCH   1   2
BRANCH   1  15
ATOM     15  N   UNL     1      48.560   7.708  16.199  0.00  0.00    +0.000 N 
ATOM     16  C   UNL     1      48.436   7.919  17.547  0.00  0.00    +0.000 C 
ATOM     17  O   UNL     1      47.940   8.946  18.002  0.00  0.00    +0.000 OA
ATOM     18  H   UNL     1      49.044   6.886  15.859  0.00  0.00    +0.000 HD
BRANCH  16  19
ATOM     19  C   UNL     1      48.915   6.839  18.428  0.00  0.00    +0.000 A 
ATOM     20  C   UNL     1      48.106   5.734  18.663  0.00  0.00    +0.000 A 
ATOM     21  S   UNL     1      48.809   4.568  19.691  0.00  0.00    +0.000 S 
ATOM     22  C   UNL     1      50.220   5.499  19.872  0.00  0.00    +0.000 A 
ATOM     23  N   UNL     1      51.247   5.059  20.650  0.00  0.00    +0.000 NA
ATOM     24  C   UNL     1      52.257   5.859  20.706  0.00  0.00    +0.000 A 
ATOM     25  N   UNL     1      52.331   7.063  20.064  0.00  0.00    +0.000 N 
ATOM     26  C   UNL     1      51.310   7.559  19.288  0.00  0.00    +0.000 A 
ATOM     27  O   UNL     1      51.409   8.662  18.758  0.00  0.00    +0.000 OA
ATOM     28  C   UNL     1      50.155   6.687  19.163  0.00  0.00    +0.000 A 
ATOM     29  H   UNL     1      53.144   7.654  20.152  0.00  0.00    +0.000 HD
ENDBRANCH  16  19
ENDBRANCH   1  15
BRANCH   1  30
ATOM     30  C   UNL     1      49.506   9.540  14.868  0.00  0.00    +0.000 C 
BRANCH  30  32
ATOM     31  C   UNL     1      50.538  10.475  12.702  0.00  0.00    +0.000 C 
ATOM     32  C   UNL     1      50.212   9.229  13.531  0.00  0.00    +0.000 C 
ATOM     33  C   UNL     1      51.499   8.437  13.789  0.00  0.00    +0.000 C 
ENDBRANCH  30  32
ENDBRANCH   1  30
TORSDOF 7
ENDMDL
