MODEL 1
REMARK VINA RESULT:    -8.298      0.000      0.000
REMARK INTER + INTRA:         -11.290
REMARK INTER:                 -10.724
REMARK INTRA:                  -0.566
REMARK UNBOUND:                -0.566
REMARK  Name = 
REMARK  5 active torsions:
REMARK  status: ('A' for Active; 'I' for Inactive)
REMARK    1  A    between atoms: N_2  and  C_4
REMARK    2  A    between atoms: C_8  and  C_9
REMARK    3  A    between atoms: C_9  and  O_10
REMARK    4  A    between atoms: O_10  and  C_11
REMARK    5  A    between atoms: C_16  and  C_17
REMARK                            x       y       z     vdW  Elec       q    Type
REMARK                         _______ _______ _______ _____ _____    ______ ____
ROOT
ATOM      1  C   UNL     1      44.763   4.977  10.242  0.00  0.00    +0.000 A 
ATOM      2  C   UNL     1      43.943   4.125  10.974  0.00  0.00    +0.000 A 
ATOM      3  C   UNL     1      43.880   2.784  10.625  0.00  0.00    +0.000 A 
ATOM      4  F   UNL     1      43.111   1.952  11.341  0.00  0.00    +0.000 F 
ATOM      5  C   UNL     1      44.606   2.282   9.546  0.00  0.00    +0.000 A 
ATOM      6  C   UNL     1      45.420   3.127   8.773  0.00  0.00    +0.000 A 
ATOM      7  C   UNL     1      45.477   4.482   9.146  0.00  0.00    +0.000 A 
ENDROOT
BRANCH   6   8
ATOM      8  C   UNL     1      46.193   2.629   7.616  0.00  0.00    +0.000 A 
ATOM      9  C   UNL     1      46.303   3.354   6.422  0.00  0.00    +0.000 A 
ATOM     10  C   UNL     1      47.049   2.857   5.354  0.00  0.00    +0.000 A 
ATOM     11  C   UNL     1      47.664   1.626   5.499  0.00  0.00    +0.000 A 
ATOM     12  N   UNL     1      47.580   0.878   6.615  0.00  0.00    +0.000 NA
ATOM     13  C   UNL     1      46.857   1.397   7.637  0.00  0.00    +0.000 A 
ENDBRANCH   6   8
BRANCH   1  14
ATOM     14  O   UNL     1      44.798   6.278  10.658  0.00  0.00    +0.000 OA
BRANCH  14  15
ATOM     15  C   UNL     1      44.455   6.485  12.034  0.00  0.00    +0.000 C 
BRANCH  15  20
ATOM     16  C   UNL     1      47.011   5.090  14.447  0.00  0.00    +0.000 A 
ATOM     17  C   UNL     1      47.984   6.088  14.397  0.00  0.00    +0.000 A 
ATOM     18  C   UNL     1      47.736   7.169  13.576  0.00  0.00    +0.000 A 
ATOM     19  N   UNL     1      46.614   7.304  12.839  0.00  0.00    +0.000 NA
ATOM     20  C   UNL     1      45.674   6.327  12.912  0.00  0.00    +0.000 A 
ATOM     21  C   UNL     1      45.845   5.193  13.692  0.00  0.00    +0.000 A 
BRANCH  16  23
ATOM     22  O   UNL     1      46.861   3.999  16.482  0.00  0.00    +0.000 OA
ATOM     23  N   UNL     1      47.214   3.917  15.298  0.00  0.00    +0.000 N 
ATOM     24  O   UNL     1      47.729   2.913  14.784  0.00  0.00    +0.000 OA
ENDBRANCH  16  23
ENDBRANCH  15  20
ENDBRANCH  14  15
ENDBRANCH   1  14
TORSDOF 5
ENDMDL
MODEL 2
REMARK VINA RESULT:    -7.791      1.501      2.152
REMARK INTER + INTRA:         -10.634
REMARK INTER:                  -9.843
REMARK INTRA:                  -0.792
REMARK UNBOUND:                -0.566
REMARK  Name = 
REMARK  5 active torsions:
REMARK  status: ('A' for Active; 'I' for Inactive)
REMARK    1  A    between atoms: N_2  and  C_4
REMARK    2  A    between atoms: C_8  and  C_9
REMARK    3  A    between atoms: C_9  and  O_10
REMARK    4  A    between atoms: O_10  and  C_11
REMARK    5  A    between atoms: C_16  and  C_17
REMARK                            x       y       z     vdW  Elec       q    Type
REMARK                         _______ _______ _______ _____ _____    ______ ____
ROOT
ATOM      1  C   UNL     1      45.286   6.478  11.521  0.00  0.00    +0.000 A 
ATOM      2  C   UNL     1      43.933   6.466  11.840  0.00  0.00    +0.000 A 
ATOM      3  C   UNL     1      43.110   5.513  11.258  0.00  0.00    +0.000 A 
ATOM      4  F   UNL     1      41.810   5.480  11.579  0.00  0.00    +0.000 F 
ATOM      5  C   UNL     1      43.611   4.584  10.348  0.00  0.00    +0.000 A 
ATOM      6  C   UNL     1      44.969   4.591   9.987  0.00  0.00    +0.000 A 
ATOM      7  C   UNL     1      45.789   5.561  10.593  0.00  0.00    +0.000 A 
ENDROOT
BRANCH   6   8
ATOM      8  C   UNL     1      45.529   3.628   9.017  0.00  0.00    +0.000 A 
ATOM      9  C   UNL     1      46.143   4.036   7.826  0.00  0.00    +0.000 A 
ATOM     10  C   UNL     1      46.668   3.099   6.938  0.00  0.00    +0.000 A 
ATOM     11  C   UNL     1      46.557   1.757   7.257  0.00  0.00    +0.000 A 
ATOM     12  N   UNL     1      45.963   1.305   8.378  0.00  0.00    +0.000 NA
ATOM     13  C   UNL     1      45.474   2.244   9.224  0.00  0.00    +0.000 A 
ENDBRANCH   6   8
BRANCH   1  14
ATOM     14  O   UNL     1      46.042   7.426  12.152  0.00  0.00    +0.000 OA
BRANCH  14  15
ATOM     15  C   UNL     1      47.436   7.113  12.266  0.00  0.00    +0.000 C 
BRANCH  15  20
ATOM     16  C   UNL     1      47.788   4.996  15.380  0.00  0.00    +0.000 A 
ATOM     17  C   UNL     1      48.497   5.869  16.205  0.00  0.00    +0.000 A 
ATOM     18  C   UNL     1      48.812   7.109  15.689  0.00  0.00    +0.000 A 
ATOM     19  N   UNL     1      48.464   7.511  14.448  0.00  0.00    +0.000 NA
ATOM     20  C   UNL     1      47.762   6.651  13.666  0.00  0.00    +0.000 A 
ATOM     21  C   UNL     1      47.421   5.375  14.091  0.00  0.00    +0.000 A 
BRANCH  16  23
ATOM     22  O   UNL     1      46.629   3.599  16.814  0.00  0.00    +0.000 OA
ATOM     23  N   UNL     1      47.424   3.666  15.868  0.00  0.00    +0.000 N 
ATOM     24  O   UNL     1      47.936   2.686  15.307  0.00  0.00    +0.000 OA
ENDBRANCH  16  23
ENDBRANCH  15  20
ENDBRANCH  14  15
ENDBRANCH   1  14
TORSDOF 5
ENDMDL
MODEL 3
REMARK VINA RESULT:    -7.589      3.113      6.952
REMARK INTER + INTRA:         -10.374
REMARK INTER:                  -9.646
REMARK INTRA:                  -0.728
REMARK UNBOUND:                -0.566
REMARK  Name = 
REMARK  5 active torsions:
REMARK  status: ('A' for Active; 'I' for Inactive)
REMARK    1  A    between atoms: N_2  and  C_4
REMARK    2  A    between atoms: C_8  and  C_9
REMARK    3  A    between atoms: C_9  and  O_10
REMARK    4  A    between atoms: O_10  and  C_11
REMARK    5  A    between atoms: C_16  and  C_17
REMARK                            x       y       z     vdW  Elec       q    Type
REMARK                         _______ _______ _______ _____ _____    ______ ____
ROOT
ATOM      1  C   UNL     1      45.156   3.839  11.920  0.00  0.00    +0.000 A 
ATOM      2  C   UNL     1      45.933   3.178  12.865  0.00  0.00    +0.000 A 
ATOM      3  C   UNL     1      46.757   3.919  13.699  0.00  0.00    +0.000 A 
ATOM      4  F   UNL     1      47.490   3.291  14.628  0.00  0.00    +0.000 F 
ATOM      5  C   UNL     1      46.836   5.306  13.592  0.00  0.00    +0.000 A 
ATOM      6  C   UNL     1      46.082   5.996  12.628  0.00  0.00    +0.000 A 
ATOM      7  C   UNL     1      45.247   5.229  11.795  0.00  0.00    +0.000 A 
ENDROOT
BRANCH   6   8
ATOM      8  C   UNL     1      46.152   7.465  12.480  0.00  0.00    +0.000 A 
ATOM      9  C   UNL     1      45.133   8.205  11.866  0.00  0.00    +0.000 A 
ATOM     10  C   UNL     1      45.229   9.590  11.753  0.00  0.00    +0.000 A 
ATOM     11  C   UNL     1      46.359  10.214  12.251  0.00  0.00    +0.000 A 
ATOM     12  N   UNL     1      47.377   9.554  12.837  0.00  0.00    +0.000 NA
ATOM     13  C   UNL     1      47.245   8.209  12.940  0.00  0.00    +0.000 A 
ENDBRANCH   6   8
BRANCH   1  14
ATOM     14  O   UNL     1      44.347   3.050  11.152  0.00  0.00    +0.000 OA
BRANCH  14  15
ATOM     15  C   UNL     1      44.000   3.599   9.874  0.00  0.00    +0.000 C 
BRANCH  15  20
ATOM     16  C   UNL     1      46.574   2.037   7.585  0.00  0.00    +0.000 A 
ATOM     17  C   UNL     1      47.136   3.178   7.013  0.00  0.00    +0.000 A 
ATOM     18  C   UNL     1      46.639   4.399   7.423  0.00  0.00    +0.000 A 
ATOM     19  N   UNL     1      45.657   4.535   8.339  0.00  0.00    +0.000 NA
ATOM     20  C   UNL     1      45.133   3.411   8.893  0.00  0.00    +0.000 A 
ATOM     21  C   UNL     1      45.552   2.141   8.526  0.00  0.00    +0.000 A 
BRANCH  16  23
ATOM     22  O   UNL     1      47.709   0.626   6.145  0.00  0.00    +0.000 OA
ATOM     23  N   UNL     1      47.056   0.713   7.193  0.00  0.00    +0.000 N 
ATOM     24  O   UNL     1      46.780  -0.244   7.932  0.00  0.00    +0.000 OA
ENDBRANCH  16  23
ENDBRANCH  15  20
ENDBRANCH  14  15
ENDBRANCH   1  14
TORSDOF 5
ENDMDL
MODEL 4
REMARK VINA RESULT:    -7.502      2.419      3.501
REMARK INTER + INTRA:         -10.261
REMARK INTER:                  -9.728
REMARK INTRA:                  -0.534
REMARK UNBOUND:                -0.566
REMARK  Name = 
REMARK  5 active torsions:
REMARK  status: ('A' for Active; 'I' for Inactive)
REMARK    1  A    between atoms: N_2  and  C_4
REMARK    2  A    between atoms: C_8  and  C_9
REMARK    3  A    between atoms: C_9  and  O_10
REMARK    4  A    between atoms: O_10  and  C_11
REMARK    5  A    between atoms: C_16  and  C_17
REMARK                            x       y       z     vdW  Elec       q    Type
REMARK                         _______ _______ _______ _____ _____    ______ ____
ROOT
ATOM      1  C   UNL     1      44.879   4.490  12.978  0.00  0.00    +0.000 A 
ATOM      2  C   UNL     1      43.620   5.079  12.961  0.00  0.00    +0.000 A 
ATOM      3  C   UNL     1      42.912   5.125  11.770  0.00  0.00    +0.000 A 
ATOM      4  F   UNL     1      41.688   5.669  11.752  0.00  0.00    +0.000 F 
ATOM      5  C   UNL     1      43.447   4.611  10.590  0.00  0.00    +0.000 A 
ATOM      6  C   UNL     1      44.728   4.035  10.573  0.00  0.00    +0.000 A 
ATOM      7  C   UNL     1      45.429   3.991  11.792  0.00  0.00    +0.000 A 
ENDROOT
BRANCH   6   8
ATOM      8  C   UNL     1      45.329   3.492   9.337  0.00  0.00    +0.000 A 
ATOM      9  C   UNL     1      45.787   4.318   8.302  0.00  0.00    +0.000 A 
ATOM     10  C   UNL     1      46.357   3.770   7.154  0.00  0.00    +0.000 A 
ATOM     11  C   UNL     1      46.446   2.392   7.058  0.00  0.00    +0.000 A 
ATOM     12  N   UNL     1      46.009   1.549   8.012  0.00  0.00    +0.000 NA
ATOM     13  C   UNL     1      45.471   2.117   9.119  0.00  0.00    +0.000 A 
ENDBRANCH   6   8
BRANCH   1  14
ATOM     14  O   UNL     1      45.509   4.454  14.190  0.00  0.00    +0.000 OA
BRANCH  14  15
ATOM     15  C   UNL     1      46.940   4.467  14.132  0.00  0.00    +0.000 C 
BRANCH  15  20
ATOM     16  C   UNL     1      47.884   4.273  17.789  0.00  0.00    +0.000 A 
ATOM     17  C   UNL     1      48.548   3.048  17.818  0.00  0.00    +0.000 A 
ATOM     18  C   UNL     1      48.654   2.359  16.628  0.00  0.00    +0.000 A 
ATOM     19  N   UNL     1      48.160   2.813  15.457  0.00  0.00    +0.000 NA
ATOM     20  C   UNL     1      47.528   4.015  15.448  0.00  0.00    +0.000 A 
ATOM     21  C   UNL     1      47.353   4.767  16.600  0.00  0.00    +0.000 A 
BRANCH  16  23
ATOM     22  O   UNL     1      46.952   6.009  19.002  0.00  0.00    +0.000 OA
ATOM     23  N   UNL     1      47.738   5.053  19.018  0.00  0.00    +0.000 N 
ATOM     24  O   UNL     1      48.412   4.711  20.002  0.00  0.00    +0.000 OA
ENDBRANCH  16  23
ENDBRANCH  15  20
ENDBRANCH  14  15
ENDBRANCH   1  14
TORSDOF 5
ENDMDL
MODEL 5
REMARK VINA RESULT:    -7.487      2.019      2.821
REMARK INTER + INTRA:         -10.241
REMARK INTER:                  -9.456
REMARK INTRA:                  -0.786
REMARK UNBOUND:                -0.566
REMARK  Name = 
REMARK  5 active torsions:
REMARK  status: ('A' for Active; 'I' for Inactive)
REMARK    1  A    between atoms: N_2  and  C_4
REMARK    2  A    between atoms: C_8  and  C_9
REMARK    3  A    between atoms: C_9  and  O_10
REMARK    4  A    between atoms: O_10  and  C_11
REMARK    5  A    between atoms: C_16  and  C_17
REMARK                            x       y       z     vdW  Elec       q    Type
REMARK                         _______ _______ _______ _____ _____    ______ ____
ROOT
ATOM      1  C   UNL     1      44.820   5.208  10.574  0.00  0.00    +0.000 A 
ATOM      2  C   UNL     1      43.931   4.439  11.316  0.00  0.00    +0.000 A 
ATOM      3  C   UNL     1      43.743   3.107  10.976  0.00  0.00    +0.000 A 
ATOM      4  F   UNL     1      42.907   2.353  11.702  0.00  0.00    +0.000 F 
ATOM      5  C   UNL     1      44.412   2.536   9.895  0.00  0.00    +0.000 A 
ATOM      6  C   UNL     1      45.295   3.298   9.111  0.00  0.00    +0.000 A 
ATOM      7  C   UNL     1      45.478   4.644   9.476  0.00  0.00    +0.000 A 
ENDROOT
BRANCH   6   8
ATOM      8  C   UNL     1      46.010   2.725   7.952  0.00  0.00    +0.000 A 
ATOM      9  C   UNL     1      46.258   3.463   6.787  0.00  0.00    +0.000 A 
ATOM     10  C   UNL     1      46.945   2.892   5.717  0.00  0.00    +0.000 A 
ATOM     11  C   UNL     1      47.362   1.578   5.829  0.00  0.00    +0.000 A 
ATOM     12  N   UNL     1      47.137   0.815   6.916  0.00  0.00    +0.000 NA
ATOM     13  C   UNL     1      46.478   1.406   7.942  0.00  0.00    +0.000 A 
ENDBRANCH   6   8
BRANCH   1  14
ATOM     14  O   UNL     1      44.977   6.503  10.982  0.00  0.00    +0.000 OA
BRANCH  14  15
ATOM     15  C   UNL     1      45.119   6.680  12.396  0.00  0.00    +0.000 C 
BRANCH  15  20
ATOM     16  C   UNL     1      48.794   7.571  12.371  0.00  0.00    +0.000 A 
ATOM     17  C   UNL     1      49.194   7.048  13.600  0.00  0.00    +0.000 A 
ATOM     18  C   UNL     1      48.230   6.423  14.363  0.00  0.00    +0.000 A 
ATOM     19  N   UNL     1      46.943   6.292  13.978  0.00  0.00    +0.000 NA
ATOM     20  C   UNL     1      46.577   6.797  12.772  0.00  0.00    +0.000 A 
ATOM     21  C   UNL     1      47.472   7.462  11.946  0.00  0.00    +0.000 A 
BRANCH  16  23
ATOM     22  O   UNL     1      50.674   7.559  11.021  0.00  0.00    +0.000 OA
ATOM     23  N   UNL     1      49.770   8.246  11.514  0.00  0.00    +0.000 N 
ATOM     24  O   UNL     1      49.634   9.466  11.335  0.00  0.00    +0.000 OA
ENDBRANCH  16  23
ENDBRANCH  15  20
ENDBRANCH  14  15
ENDBRANCH   1  14
TORSDOF 5
ENDMDL
MODEL 6
REMARK VINA RESULT:    -7.399      3.126      7.365
REMARK INTER + INTRA:         -10.128
REMARK INTER:                  -9.604
REMARK INTRA:                  -0.524
REMARK UNBOUND:                -0.566
REMARK  Name = 
REMARK  5 active torsions:
REMARK  status: ('A' for Active; 'I' for Inactive)
REMARK    1  A    between atoms: N_2  and  C_4
REMARK    2  A    between atoms: C_8  and  C_9
REMARK    3  A    between atoms: C_9  and  O_10
REMARK    4  A    between atoms: O_10  and  C_11
REMARK    5  A    between atoms: C_16  and  C_17
REMARK                            x       y       z     vdW  Elec       q    Type
REMARK                         _______ _______ _______ _____ _____    ______ ____
ROOT
ATOM      1  C   UNL     1      45.131   4.285  11.875  0.00  0.00    +0.000 A 
ATOM      2  C   UNL     1      44.983   5.592  11.424  0.00  0.00    +0.000 A 
ATOM      3  C   UNL     1      45.638   6.615  12.094  0.00  0.00    +0.000 A 
ATOM      4  F   UNL     1      45.520   7.874  11.650  0.00  0.00    +0.000 F 
ATOM      5  C   UNL     1      46.421   6.359  13.218  0.00  0.00    +0.000 A 
ATOM      6  C   UNL     1      46.565   5.051  13.711  0.00  0.00    +0.000 A 
ATOM      7  C   UNL     1      45.899   4.025  13.015  0.00  0.00    +0.000 A 
ENDROOT
BRANCH   6   8
ATOM      8  C   UNL     1      47.378   4.748  14.907  0.00  0.00    +0.000 A 
ATOM      9  C   UNL     1      47.328   3.504  15.550  0.00  0.00    +0.000 A 
ATOM     10  C   UNL     1      48.117   3.251  16.671  0.00  0.00    +0.000 A 
ATOM     11  C   UNL     1      48.938   4.262  17.139  0.00  0.00    +0.000 A 
ATOM     12  N   UNL     1      49.014   5.481  16.573  0.00  0.00    +0.000 NA
ATOM     13  C   UNL     1      48.243   5.688  15.478  0.00  0.00    +0.000 A 
ENDBRANCH   6   8
BRANCH   1  14
ATOM     14  O   UNL     1      44.482   3.324  11.152  0.00  0.00    +0.000 OA
BRANCH  14  15
ATOM     15  C   UNL     1      44.086   3.721   9.833  0.00  0.00    +0.000 C 
BRANCH  15  20
ATOM     16  C   UNL     1      46.511   1.937   7.545  0.00  0.00    +0.000 A 
ATOM     17  C   UNL     1      47.142   3.024   6.940  0.00  0.00    +0.000 A 
ATOM     18  C   UNL     1      46.736   4.284   7.329  0.00  0.00    +0.000 A 
ATOM     19  N   UNL     1      45.780   4.508   8.255  0.00  0.00    +0.000 NA
ATOM     20  C   UNL     1      45.188   3.435   8.841  0.00  0.00    +0.000 A 
ATOM     21  C   UNL     1      45.514   2.131   8.498  0.00  0.00    +0.000 A 
BRANCH  16  23
ATOM     22  O   UNL     1      46.731  -0.317   8.020  0.00  0.00    +0.000 OA
ATOM     23  N   UNL     1      46.896   0.574   7.177  0.00  0.00    +0.000 N 
ATOM     24  O   UNL     1      47.366   0.394   6.043  0.00  0.00    +0.000 OA
ENDBRANCH  16  23
ENDBRANCH  15  20
ENDBRANCH  14  15
ENDBRANCH   1  14
TORSDOF 5
ENDMDL
MODEL 7
REMARK VINA RESULT:    -7.174      2.957      6.712
REMARK INTER + INTRA:          -9.838
REMARK INTER:                  -8.909
REMARK INTRA:                  -0.928
REMARK UNBOUND:                -0.566
REMARK  Name = 
REMARK  5 active torsions:
REMARK  status: ('A' for Active; 'I' for Inactive)
REMARK    1  A    between atoms: N_2  and  C_4
REMARK    2  A    between atoms: C_8  and  C_9
REMARK    3  A    between atoms: C_9  and  O_10
REMARK    4  A    between atoms: O_10  and  C_11
REMARK    5  A    between atoms: C_16  and  C_17
REMARK                            x       y       z     vdW  Elec       q    Type
REMARK                         _______ _______ _______ _____ _____    ______ ____
ROOT
ATOM      1  C   UNL     1      45.081   5.680  12.749  0.00  0.00    +0.000 A 
ATOM      2  C   UNL     1      45.569   4.721  13.629  0.00  0.00    +0.000 A 
ATOM      3  C   UNL     1      46.875   4.825  14.085  0.00  0.00    +0.000 A 
ATOM      4  F   UNL     1      47.344   3.918  14.952  0.00  0.00    +0.000 F 
ATOM      5  C   UNL     1      47.709   5.858  13.661  0.00  0.00    +0.000 A 
ATOM      6  C   UNL     1      47.249   6.825  12.751  0.00  0.00    +0.000 A 
ATOM      7  C   UNL     1      45.920   6.707  12.305  0.00  0.00    +0.000 A 
ENDROOT
BRANCH   6   8
ATOM      8  C   UNL     1      48.111   7.925  12.273  0.00  0.00    +0.000 A 
ATOM      9  C   UNL     1      47.652   9.245  12.168  0.00  0.00    +0.000 A 
ATOM     10  C   UNL     1      48.497  10.259  11.721  0.00  0.00    +0.000 A 
ATOM     11  C   UNL     1      49.794   9.928  11.372  0.00  0.00    +0.000 A 
ATOM     12  N   UNL     1      50.286   8.675  11.436  0.00  0.00    +0.000 NA
ATOM     13  C   UNL     1      49.441   7.717  11.886  0.00  0.00    +0.000 A 
ENDBRANCH   6   8
BRANCH   1  14
ATOM     14  O   UNL     1      43.778   5.532  12.364  0.00  0.00    +0.000 OA
BRANCH  14  15
ATOM     15  C   UNL     1      43.549   5.622  10.952  0.00  0.00    +0.000 C 
BRANCH  15  20
ATOM     16  C   UNL     1      45.372   3.236   8.653  0.00  0.00    +0.000 A 
ATOM     17  C   UNL     1      44.906   2.011   9.131  0.00  0.00    +0.000 A 
ATOM     18  C   UNL     1      44.010   2.044  10.180  0.00  0.00    +0.000 A 
ATOM     19  N   UNL     1      43.568   3.185  10.748  0.00  0.00    +0.000 NA
ATOM     20  C   UNL     1      44.024   4.367  10.258  0.00  0.00    +0.000 A 
ATOM     21  C   UNL     1      44.943   4.432   9.222  0.00  0.00    +0.000 A 
BRANCH  16  23
ATOM     22  O   UNL     1      46.917   2.220   7.262  0.00  0.00    +0.000 OA
ATOM     23  N   UNL     1      46.323   3.270   7.542  0.00  0.00    +0.000 N 
ATOM     24  O   UNL     1      46.480   4.348   6.949  0.00  0.00    +0.000 OA
ENDBRANCH  16  23
ENDBRANCH  15  20
ENDBRANCH  14  15
ENDBRANCH   1  14
TORSDOF 5
ENDMDL
MODEL 8
REMARK VINA RESULT:    -6.875      3.049      4.514
REMARK INTER + INTRA:          -9.450
REMARK INTER:                  -8.835
REMARK INTRA:                  -0.616
REMARK UNBOUND:                -0.566
REMARK  Name = 
REMARK  5 active torsions:
REMARK  status: ('A' for Active; 'I' for Inactive)
REMARK    1  A    between atoms: N_2  and  C_4
REMARK    2  A    between atoms: C_8  and  C_9
REMARK    3  A    between atoms: C_9  and  O_10
REMARK    4  A    between atoms: O_10  and  C_11
REMARK    5  A    between atoms: C_16  and  C_17
REMARK                            x       y       z     vdW  Elec       q    Type
REMARK                         _______ _______ _______ _____ _____    ______ ____
ROOT
ATOM      1  C   UNL     1      47.544   7.406  12.766  0.00  0.00    +0.000 A 
ATOM      2  C   UNL     1      46.745   8.532  12.928  0.00  0.00    +0.000 A 
ATOM      3  C   UNL     1      45.475   8.544  12.371  0.00  0.00    +0.000 A 
ATOM      4  F   UNL     1      44.689   9.615  12.545  0.00  0.00    +0.000 F 
ATOM      5  C   UNL     1      44.996   7.460  11.636  0.00  0.00    +0.000 A 
ATOM      6  C   UNL     1      45.794   6.321  11.434  0.00  0.00    +0.000 A 
ATOM      7  C   UNL     1      47.077   6.324  12.012  0.00  0.00    +0.000 A 
ENDROOT
BRANCH   6   8
ATOM      8  C   UNL     1      45.322   5.161  10.651  0.00  0.00    +0.000 A 
ATOM      9  C   UNL     1      45.510   5.065   9.266  0.00  0.00    +0.000 A 
ATOM     10  C   UNL     1      45.059   3.950   8.562  0.00  0.00    +0.000 A 
ATOM     11  C   UNL     1      44.410   2.949   9.262  0.00  0.00    +0.000 A 
ATOM     12  N   UNL     1      44.185   2.994  10.589  0.00  0.00    +0.000 NA
ATOM     13  C   UNL     1      44.648   4.086  11.243  0.00  0.00    +0.000 A 
ENDBRANCH   6   8
BRANCH   1  14
ATOM     14  O   UNL     1      48.772   7.451  13.365  0.00  0.00    +0.000 OA
BRANCH  14  15
ATOM     15  C   UNL     1      48.790   8.045  14.668  0.00  0.00    +0.000 C 
BRANCH  15  20
ATOM     16  C   UNL     1      48.169   4.804  16.515  0.00  0.00    +0.000 A 
ATOM     17  C   UNL     1      48.831   5.061  17.715  0.00  0.00    +0.000 A 
ATOM     18  C   UNL     1      49.438   6.293  17.849  0.00  0.00    +0.000 A 
ATOM     19  N   UNL     1      49.414   7.244  16.892  0.00  0.00    +0.000 NA
ATOM     20  C   UNL     1      48.751   6.979  15.737  0.00  0.00    +0.000 A 
ATOM     21  C   UNL     1      48.132   5.760  15.503  0.00  0.00    +0.000 A 
BRANCH  16  23
ATOM     22  O   UNL     1      46.696   3.144  17.170  0.00  0.00    +0.000 OA
ATOM     23  N   UNL     1      47.505   3.517  16.310  0.00  0.00    +0.000 N 
ATOM     24  O   UNL     1      47.794   2.875  15.289  0.00  0.00    +0.000 OA
ENDBRANCH  16  23
ENDBRANCH  15  20
ENDBRANCH  14  15
ENDBRANCH   1  14
TORSDOF 5
ENDMDL
MODEL 9
REMARK VINA RESULT:    -6.863      4.639      9.460
REMARK INTER + INTRA:          -9.436
REMARK INTER:                  -8.909
REMARK INTRA:                  -0.526
REMARK UNBOUND:                -0.566
REMARK  Name = 
REMARK  5 active torsions:
REMARK  status: ('A' for Active; 'I' for Inactive)
REMARK    1  A    between atoms: N_2  and  C_4
REMARK    2  A    between atoms: C_8  and  C_9
REMARK    3  A    between atoms: C_9  and  O_10
REMARK    4  A    between atoms: O_10  and  C_11
REMARK    5  A    between atoms: C_16  and  C_17
REMARK                            x       y       z     vdW  Elec       q    Type
REMARK                         _______ _______ _______ _____ _____    ______ ____
ROOT
ATOM      1  C   UNL     1      47.390   3.804  16.396  0.00  0.00    +0.000 A 
ATOM      2  C   UNL     1      48.394   2.855  16.239  0.00  0.00    +0.000 A 
ATOM      3  C   UNL     1      49.302   2.656  17.268  0.00  0.00    +0.000 A 
ATOM      4  F   UNL     1      50.257   1.726  17.134  0.00  0.00    +0.000 F 
ATOM      5  C   UNL     1      49.238   3.402  18.444  0.00  0.00    +0.000 A 
ATOM      6  C   UNL     1      48.250   4.386  18.618  0.00  0.00    +0.000 A 
ATOM      7  C   UNL     1      47.334   4.570  17.566  0.00  0.00    +0.000 A 
ENDROOT
BRANCH   6   8
ATOM      8  C   UNL     1      48.162   5.201  19.847  0.00  0.00    +0.000 A 
ATOM      9  C   UNL     1      47.560   6.466  19.864  0.00  0.00    +0.000 A 
ATOM     10  C   UNL     1      47.487   7.203  21.045  0.00  0.00    +0.000 A 
ATOM     11  C   UNL     1      48.034   6.660  22.194  0.00  0.00    +0.000 A 
ATOM     12  N   UNL     1      48.640   5.457  22.234  0.00  0.00    +0.000 NA
ATOM     13  C   UNL     1      48.682   4.764  21.071  0.00  0.00    +0.000 A 
ENDBRANCH   6   8
BRANCH   1  14
ATOM     14  O   UNL     1      46.515   3.929  15.354  0.00  0.00    +0.000 OA
BRANCH  14  15
ATOM     15  C   UNL     1      46.962   4.767  14.282  0.00  0.00    +0.000 C 
BRANCH  15  20
ATOM     16  C   UNL     1      44.294   4.033  11.704  0.00  0.00    +0.000 A 
ATOM     17  C   UNL     1      43.822   5.320  11.449  0.00  0.00    +0.000 A 
ATOM     18  C   UNL     1      44.417   6.358  12.137  0.00  0.00    +0.000 A 
ATOM     19  N   UNL     1      45.420   6.187  13.023  0.00  0.00    +0.000 NA
ATOM     20  C   UNL     1      45.875   4.927  13.246  0.00  0.00    +0.000 A 
ATOM     21  C   UNL     1      45.323   3.820  12.619  0.00  0.00    +0.000 A 
BRANCH  16  23
ATOM     22  O   UNL     1      44.020   2.714   9.823  0.00  0.00    +0.000 OA
ATOM     23  N   UNL     1      43.705   2.889  11.007  0.00  0.00    +0.000 N 
ATOM     24  O   UNL     1      42.924   2.166  11.643  0.00  0.00    +0.000 OA
ENDBRANCH  16  23
ENDBRANCH  15  20
ENDBRANCH  14  15
ENDBRANCH   1  14
TORSDOF 5
ENDMDL
