MODEL 1
REMARK VINA RESULT:    -8.569      0.000      0.000
REMARK INTER + INTRA:         -14.486
REMARK INTER:                 -13.327
REMARK INTRA:                  -1.159
REMARK UNBOUND:                -1.159
REMARK  Name = 
REMARK  11 active torsions:
REMARK  status: ('A' for Active; 'I' for Inactive)
REMARK    1  A    between atoms: C_1  and  C_2
REMARK    2  A    between atoms: C_5  and  C_6
REMARK    3  A    between atoms: N_8  and  C_9
REMARK    4  A    between atoms: C_9  and  C_10
REMARK    5  A    between atoms: C_13  and  C_14
REMARK    6  A    between atoms: C_14  and  N_15
REMARK    7  A    between atoms: N_15  and  C_16
REMARK    8  A    between atoms: N_15  and  C_19
REMARK    9  A    between atoms: C_16  and  C_17
REMARK   10  A    between atoms: C_17  and  O_18
REMARK   11  A    between atoms: C_19  and  C_20
REMARK                            x       y       z     vdW  Elec       q    Type
REMARK                         _______ _______ _______ _____ _____    ______ ____
ROOT
ATOM      1  C   UNL     1      48.103   6.517  13.691  0.00  0.00    +0.000 A 
ATOM      2  C   UNL     1      47.166   5.497  13.907  0.00  0.00    +0.000 A 
ATOM      3  C   UNL     1      46.167   5.238  12.965  0.00  0.00    +0.000 A 
ATOM      4  C   UNL     1      46.085   5.997  11.790  0.00  0.00    +0.000 A 
ATOM      5  C   UNL     1      47.086   6.940  11.524  0.00  0.00    +0.000 A 
ATOM      6  C   UNL     1      48.088   7.196  12.465  0.00  0.00    +0.000 A 
ENDROOT
BRANCH   1   7
ATOM      7  C   UNL     1      49.115   6.864  14.755  0.00  0.00    +0.000 C 
BRANCH   7  10
ATOM      8  C   UNL     1      49.797   5.650  16.805  0.00  0.00    +0.000 C 
ATOM      9  O   UNL     1      50.997   5.760  16.571  0.00  0.00    +0.000 OA
ATOM     10  N   UNL     1      48.829   6.168  15.979  0.00  0.00    +0.000 N 
ATOM     11  H   UNL     1      47.857   6.089  16.247  0.00  0.00    +0.000 HD
BRANCH   8  16
ATOM     12  C   UNL     1      49.850   7.745  22.283  0.00  0.00    +0.000 C 
ATOM     13  C   UNL     1      49.462   6.577  21.429  0.00  0.00    +0.000 A 
ATOM     14  C   UNL     1      49.683   6.581  20.047  0.00  0.00    +0.000 A 
ATOM     15  C   UNL     1      49.279   5.431  19.354  0.00  0.00    +0.000 A 
ATOM     16  C   UNL     1      49.285   4.957  17.989  0.00  0.00    +0.000 A 
ATOM     17  C   UNL     1      48.715   3.698  18.048  0.00  0.00    +0.000 A 
ATOM     18 CL   UNL     1      48.381   2.493  16.889  0.00  0.00    +0.000 Cl
ATOM     19  N   UNL     1      48.368   3.391  19.322  0.00  0.00    +0.000 N 
ATOM     20  C   UNL     1      48.703   4.430  20.129  0.00  0.00    +0.000 A 
ATOM     21  N   UNL     1      48.500   4.458  21.454  0.00  0.00    +0.000 NA
ATOM     22  N   UNL     1      48.886   5.542  22.095  0.00  0.00    +0.000 NA
ATOM     23  H   UNL     1      47.940   2.535  19.636  0.00  0.00    +0.000 HD
ENDBRANCH   8  16
ENDBRANCH   7  10
ENDBRANCH   1   7
BRANCH   4  24
ATOM     24  C   UNL     1      44.891   5.855  10.863  0.00  0.00    +0.000 C 
BRANCH  24  25
ATOM     25  N   UNL     1      44.482   4.444  10.634  0.00  0.00    +0.000 NA
BRANCH  25  26
ATOM     26  C   UNL     1      43.229   4.134  11.369  0.00  0.00    +0.000 C 
BRANCH  26  27
ATOM     27  C   UNL     1      42.493   5.349  11.965  0.00  0.00    +0.000 C 
BRANCH  27  28
ATOM     28  O   UNL     1      42.591   5.342  13.389  0.00  0.00    +0.000 OA
ATOM     29  H   UNL     1      41.752   4.992  13.733  0.00  0.00    +0.000 HD
ENDBRANCH  27  28
ENDBRANCH  26  27
ENDBRANCH  25  26
BRANCH  25  30
ATOM     30  C   UNL     1      44.283   4.208   9.186  0.00  0.00    +0.000 C 
BRANCH  30  31
ATOM     31  C   UNL     1      45.330   3.340   8.525  0.00  0.00    +0.000 A 
ATOM     32  C   UNL     1      45.409   1.968   8.805  0.00  0.00    +0.000 A 
ATOM     33  C   UNL     1      46.330   1.162   8.135  0.00  0.00    +0.000 A 
ATOM     34  C   UNL     1      47.183   1.719   7.182  0.00  0.00    +0.000 A 
ATOM     35  C   UNL     1      47.125   3.084   6.908  0.00  0.00    +0.000 A 
ATOM     36  C   UNL     1      46.203   3.891   7.575  0.00  0.00    +0.000 A 
ENDBRANCH  30  31
ENDBRANCH  25  30
ENDBRANCH  24  25
ENDBRANCH   4  24
TORSDOF 10
ENDMDL
MODEL 2
REMARK VINA RESULT:    -8.014      2.262      2.751
REMARK INTER + INTRA:         -13.624
REMARK INTER:                 -12.356
REMARK INTRA:                  -1.268
REMARK UNBOUND:                -1.159
REMARK  Name = 
REMARK  11 active torsions:
REMARK  status: ('A' for Active; 'I' for Inactive)
REMARK    1  A    between atoms: C_1  and  C_2
REMARK    2  A    between atoms: C_5  and  C_6
REMARK    3  A    between atoms: N_8  and  C_9
REMARK    4  A    between atoms: C_9  and  C_10
REMARK    5  A    between atoms: C_13  and  C_14
REMARK    6  A    between atoms: C_14  and  N_15
REMARK    7  A    between atoms: N_15  and  C_16
REMARK    8  A    between atoms: N_15  and  C_19
REMARK    9  A    between atoms: C_16  and  C_17
REMARK   10  A    between atoms: C_17  and  O_18
REMARK   11  A    between atoms: C_19  and  C_20
REMARK                            x       y       z     vdW  Elec       q    Type
REMARK                         _______ _______ _______ _____ _____    ______ ____
ROOT
ATOM      1  C   UNL     1      47.675   7.394  13.847  0.00  0.00    +0.000 A 
ATOM      2  C   UNL     1      47.636   6.115  13.274  0.00  0.00    +0.000 A 
ATOM      3  C   UNL     1      46.638   5.778  12.357  0.00  0.00    +0.000 A 
ATOM      4  C   UNL     1      45.658   6.713  11.997  0.00  0.00    +0.000 A 
ATOM      5  C   UNL     1      45.763   8.023  12.484  0.00  0.00    +0.000 A 
ATOM      6  C   UNL     1      46.765   8.361  13.399  0.00  0.00    +0.000 A 
ENDROOT
BRANCH   1   7
ATOM      7  C   UNL     1      48.690   7.723  14.915  0.00  0.00    +0.000 C 
BRANCH   7  10
ATOM      8  C   UNL     1      49.085   6.202  16.832  0.00  0.00    +0.000 C 
ATOM      9  O   UNL     1      48.477   6.912  17.628  0.00  0.00    +0.000 OA
ATOM     10  N   UNL     1      49.220   6.523  15.503  0.00  0.00    +0.000 N 
ATOM     11  H   UNL     1      49.690   5.877  14.884  0.00  0.00    +0.000 HD
BRANCH   8  16
ATOM     12  C   UNL     1      54.833   5.399  17.678  0.00  0.00    +0.000 C 
ATOM     13  C   UNL     1      53.493   4.729  17.696  0.00  0.00    +0.000 A 
ATOM     14  C   UNL     1      52.322   5.434  17.394  0.00  0.00    +0.000 A 
ATOM     15  C   UNL     1      51.129   4.699  17.443  0.00  0.00    +0.000 A 
ATOM     16  C   UNL     1      49.722   4.945  17.226  0.00  0.00    +0.000 A 
ATOM     17  C   UNL     1      49.109   3.726  17.457  0.00  0.00    +0.000 A 
ATOM     18 CL   UNL     1      47.496   3.179  17.394  0.00  0.00    +0.000 Cl
ATOM     19  N   UNL     1      50.027   2.788  17.797  0.00  0.00    +0.000 N 
ATOM     20  C   UNL     1      51.259   3.360  17.793  0.00  0.00    +0.000 A 
ATOM     21  N   UNL     1      52.397   2.713  18.084  0.00  0.00    +0.000 NA
ATOM     22  N   UNL     1      53.512   3.412  18.031  0.00  0.00    +0.000 NA
ATOM     23  H   UNL     1      49.844   1.821  18.011  0.00  0.00    +0.000 HD
ENDBRANCH   8  16
ENDBRANCH   7  10
ENDBRANCH   1   7
BRANCH   4  24
ATOM     24  C   UNL     1      44.463   6.294  11.160  0.00  0.00    +0.000 C 
BRANCH  24  25
ATOM     25  N   UNL     1      44.363   4.823  10.961  0.00  0.00    +0.000 NA
BRANCH  25  26
ATOM     26  C   UNL     1      43.301   4.247  11.825  0.00  0.00    +0.000 C 
BRANCH  26  27
ATOM     27  C   UNL     1      43.620   2.872  12.440  0.00  0.00    +0.000 C 
BRANCH  27  28
ATOM     28  O   UNL     1      42.990   1.833  11.693  0.00  0.00    +0.000 OA
ATOM     29  H   UNL     1      42.689   2.223  10.854  0.00  0.00    +0.000 HD
ENDBRANCH  27  28
ENDBRANCH  26  27
ENDBRANCH  25  26
BRANCH  25  30
ATOM     30  C   UNL     1      44.068   4.528   9.542  0.00  0.00    +0.000 C 
BRANCH  30  31
ATOM     31  C   UNL     1      45.075   3.640   8.845  0.00  0.00    +0.000 A 
ATOM     32  C   UNL     1      45.098   2.257   9.080  0.00  0.00    +0.000 A 
ATOM     33  C   UNL     1      45.981   1.436   8.378  0.00  0.00    +0.000 A 
ATOM     34  C   UNL     1      46.852   1.988   7.438  0.00  0.00    +0.000 A 
ATOM     35  C   UNL     1      46.849   3.362   7.209  0.00  0.00    +0.000 A 
ATOM     36  C   UNL     1      45.965   4.185   7.908  0.00  0.00    +0.000 A 
ENDBRANCH  30  31
ENDBRANCH  25  30
ENDBRANCH  24  25
ENDBRANCH   4  24
TORSDOF 10
ENDMDL
MODEL 3
REMARK VINA RESULT:    -7.653      2.293      3.241
REMARK INTER + INTRA:         -13.062
REMARK INTER:                 -11.878
REMARK INTRA:                  -1.184
REMARK UNBOUND:                -1.159
REMARK  Name = 
REMARK  11 active torsions:
REMARK  status: ('A' for Active; 'I' for Inactive)
REMARK    1  A    between atoms: C_1  and  C_2
REMARK    2  A    between atoms: C_5  and  C_6
REMARK    3  A    between atoms: N_8  and  C_9
REMARK    4  A    between atoms: C_9  and  C_10
REMARK    5  A    between atoms: C_13  and  C_14
REMARK    6  A    between atoms: C_14  and  N_15
REMARK    7  A    between atoms: N_15  and  C_16
REMARK    8  A    between atoms: N_15  and  C_19
REMARK    9  A    between atoms: C_16  and  C_17
REMARK   10  A    between atoms: C_17  and  O_18
REMARK   11  A    between atoms: C_19  and  C_20
REMARK                            x       y       z     vdW  Elec       q    Type
REMARK                         _______ _______ _______ _____ _____    ______ ____
ROOT
ATOM      1  C   UNL     1      47.799   8.159  13.135  0.00  0.00    +0.000 A 
ATOM      2  C   UNL     1      48.119   7.267  12.102  0.00  0.00    +0.000 A 
ATOM      3  C   UNL     1      47.111   6.618  11.386  0.00  0.00    +0.000 A 
ATOM      4  C   UNL     1      45.762   6.847  11.691  0.00  0.00    +0.000 A 
ATOM      5  C   UNL     1      45.442   7.820  12.647  0.00  0.00    +0.000 A 
ATOM      6  C   UNL     1      46.451   8.472  13.361  0.00  0.00    +0.000 A 
ENDROOT
BRANCH   1   7
ATOM      7  C   UNL     1      48.888   8.779  13.977  0.00  0.00    +0.000 C 
BRANCH   7  10
ATOM      8  C   UNL     1      48.570   8.618  16.429  0.00  0.00    +0.000 C 
ATOM      9  O   UNL     1      48.014   9.709  16.512  0.00  0.00    +0.000 OA
ATOM     10  N   UNL     1      49.010   8.098  15.236  0.00  0.00    +0.000 N 
ATOM     11  H   UNL     1      49.418   7.173  15.222  0.00  0.00    +0.000 HD
BRANCH   8  16
ATOM     12  C   UNL     1      48.159   2.769  16.545  0.00  0.00    +0.000 C 
ATOM     13  C   UNL     1      48.463   3.985  17.365  0.00  0.00    +0.000 A 
ATOM     14  C   UNL     1      48.421   5.268  16.806  0.00  0.00    +0.000 A 
ATOM     15  C   UNL     1      48.724   6.328  17.672  0.00  0.00    +0.000 A 
ATOM     16  C   UNL     1      48.815   7.769  17.595  0.00  0.00    +0.000 A 
ATOM     17  C   UNL     1      49.170   8.170  18.871  0.00  0.00    +0.000 A 
ATOM     18 CL   UNL     1      49.454   9.684  19.601  0.00  0.00    +0.000 Cl
ATOM     19  N   UNL     1      49.302   7.097  19.689  0.00  0.00    +0.000 N 
ATOM     20  C   UNL     1      49.035   5.970  18.979  0.00  0.00    +0.000 A 
ATOM     21  N   UNL     1      49.073   4.729  19.484  0.00  0.00    +0.000 NA
ATOM     22  N   UNL     1      48.784   3.741  18.663  0.00  0.00    +0.000 NA
ATOM     23  H   UNL     1      49.549   7.115  20.666  0.00  0.00    +0.000 HD
ENDBRANCH   8  16
ENDBRANCH   7  10
ENDBRANCH   1   7
BRANCH   4  24
ATOM     24  C   UNL     1      44.674   6.000  11.056  0.00  0.00    +0.000 C 
BRANCH  24  25
ATOM     25  N   UNL     1      45.090   4.596  10.794  0.00  0.00    +0.000 NA
BRANCH  25  26
ATOM     26  C   UNL     1      44.706   3.714  11.925  0.00  0.00    +0.000 C 
BRANCH  26  27
ATOM     27  C   UNL     1      43.233   3.265  11.944  0.00  0.00    +0.000 C 
BRANCH  27  28
ATOM     28  O   UNL     1      43.134   1.867  11.677  0.00  0.00    +0.000 OA
ATOM     29  H   UNL     1      42.705   1.769  10.810  0.00  0.00    +0.000 HD
ENDBRANCH  27  28
ENDBRANCH  26  27
ENDBRANCH  25  26
BRANCH  25  30
ATOM     30  C   UNL     1      44.460   4.112   9.546  0.00  0.00    +0.000 C 
BRANCH  30  31
ATOM     31  C   UNL     1      45.362   3.299   8.642  0.00  0.00    +0.000 A 
ATOM     32  C   UNL     1      46.158   3.924   7.671  0.00  0.00    +0.000 A 
ATOM     33  C   UNL     1      47.042   3.173   6.893  0.00  0.00    +0.000 A 
ATOM     34  C   UNL     1      47.135   1.794   7.075  0.00  0.00    +0.000 A 
ATOM     35  C   UNL     1      46.337   1.161   8.026  0.00  0.00    +0.000 A 
ATOM     36  C   UNL     1      45.455   1.909   8.807  0.00  0.00    +0.000 A 
ENDBRANCH  30  31
ENDBRANCH  25  30
ENDBRANCH  24  25
ENDBRANCH   4  24
TORSDOF 10
ENDMDL
MODEL 4
REMARK VINA RESULT:    -7.625      2.520      3.298
REMARK INTER + INTRA:         -13.019
REMARK INTER:                 -11.853
REMARK INTRA:                  -1.166
REMARK UNBOUND:                -1.159
REMARK  Name = 
REMARK  11 active torsions:
REMARK  status: ('A' for Active; 'I' for Inactive)
REMARK    1  A    between atoms: C_1  and  C_2
REMARK    2  A    between atoms: C_5  and  C_6
REMARK    3  A    between atoms: N_8  and  C_9
REMARK    4  A    between atoms: C_9  and  C_10
REMARK    5  A    between atoms: C_13  and  C_14
REMARK    6  A    between atoms: C_14  and  N_15
REMARK    7  A    between atoms: N_15  and  C_16
REMARK    8  A    between atoms: N_15  and  C_19
REMARK    9  A    between atoms: C_16  and  C_17
REMARK   10  A    between atoms: C_17  and  O_18
REMARK   11  A    between atoms: C_19  and  C_20
REMARK                            x       y       z     vdW  Elec       q    Type
REMARK                         _______ _______ _______ _____ _____    ______ ____
ROOT
ATOM      1  C   UNL     1      47.247   4.546  14.787  0.00  0.00    +0.000 A 
ATOM      2  C   UNL     1      46.723   3.492  14.025  0.00  0.00    +0.000 A 
ATOM      3  C   UNL     1      46.158   3.735  12.770  0.00  0.00    +0.000 A 
ATOM      4  C   UNL     1      46.105   5.038  12.255  0.00  0.00    +0.000 A 
ATOM      5  C   UNL     1      46.727   6.072  12.968  0.00  0.00    +0.000 A 
ATOM      6  C   UNL     1      47.295   5.827  14.221  0.00  0.00    +0.000 A 
ENDROOT
BRANCH   1   7
ATOM      7  C   UNL     1      47.761   4.298  16.185  0.00  0.00    +0.000 C 
BRANCH   7  10
ATOM      8  C   UNL     1      48.331   5.681  18.160  0.00  0.00    +0.000 C 
ATOM      9  O   UNL     1      49.139   4.869  18.600  0.00  0.00    +0.000 OA
ATOM     10  N   UNL     1      47.635   5.479  16.993  0.00  0.00    +0.000 N 
ATOM     11  H   UNL     1      47.017   6.204  16.654  0.00  0.00    +0.000 HD
BRANCH   8  16
ATOM     12  C   UNL     1      48.956  11.036  15.850  0.00  0.00    +0.000 C 
ATOM     13  C   UNL     1      48.546  10.278  17.075  0.00  0.00    +0.000 A 
ATOM     14  C   UNL     1      48.580   8.879  17.111  0.00  0.00    +0.000 A 
ATOM     15  C   UNL     1      48.175   8.282  18.313  0.00  0.00    +0.000 A 
ATOM     16  C   UNL     1      48.034   6.943  18.839  0.00  0.00    +0.000 A 
ATOM     17  C   UNL     1      47.572   7.117  20.132  0.00  0.00    +0.000 A 
ATOM     18 CL   UNL     1      47.178   6.051  21.402  0.00  0.00    +0.000 Cl
ATOM     19  N   UNL     1      47.421   8.435  20.411  0.00  0.00    +0.000 N 
ATOM     20  C   UNL     1      47.782   9.158  19.320  0.00  0.00    +0.000 A 
ATOM     21  N   UNL     1      47.756  10.496  19.254  0.00  0.00    +0.000 NA
ATOM     22  N   UNL     1      48.142  11.047  18.121  0.00  0.00    +0.000 NA
ATOM     23  H   UNL     1      47.104   8.830  21.282  0.00  0.00    +0.000 HD
ENDBRANCH   8  16
ENDBRANCH   7  10
ENDBRANCH   1   7
BRANCH   4  24
ATOM     24  C   UNL     1      45.319   5.335  10.991  0.00  0.00    +0.000 C 
BRANCH  24  25
ATOM     25  N   UNL     1      44.415   4.228  10.580  0.00  0.00    +0.000 NA
BRANCH  25  26
ATOM     26  C   UNL     1      43.052   4.428  11.136  0.00  0.00    +0.000 C 
BRANCH  26  27
ATOM     27  C   UNL     1      42.821   5.770  11.856  0.00  0.00    +0.000 C 
BRANCH  27  28
ATOM     28  O   UNL     1      42.741   5.572  13.267  0.00  0.00    +0.000 OA
ATOM     29  H   UNL     1      42.150   4.815  13.418  0.00  0.00    +0.000 HD
ENDBRANCH  27  28
ENDBRANCH  26  27
ENDBRANCH  25  26
BRANCH  25  30
ATOM     30  C   UNL     1      44.346   4.159   9.103  0.00  0.00    +0.000 C 
BRANCH  30  31
ATOM     31  C   UNL     1      45.397   3.287   8.450  0.00  0.00    +0.000 A 
ATOM     32  C   UNL     1      45.467   1.914   8.729  0.00  0.00    +0.000 A 
ATOM     33  C   UNL     1      46.392   1.106   8.065  0.00  0.00    +0.000 A 
ATOM     34  C   UNL     1      47.256   1.661   7.122  0.00  0.00    +0.000 A 
ATOM     35  C   UNL     1      47.205   3.026   6.850  0.00  0.00    +0.000 A 
ATOM     36  C   UNL     1      46.280   3.837   7.509  0.00  0.00    +0.000 A 
ENDBRANCH  30  31
ENDBRANCH  25  30
ENDBRANCH  24  25
ENDBRANCH   4  24
TORSDOF 10
ENDMDL
MODEL 5
REMARK VINA RESULT:    -7.599      2.630      3.208
REMARK INTER + INTRA:         -12.979
REMARK INTER:                 -11.580
REMARK INTRA:                  -1.399
REMARK UNBOUND:                -1.159
REMARK  Name = 
REMARK  11 active torsions:
REMARK  status: ('A' for Active; 'I' for Inactive)
REMARK    1  A    between atoms: C_1  and  C_2
REMARK    2  A    between atoms: C_5  and  C_6
REMARK    3  A    between atoms: N_8  and  C_9
REMARK    4  A    between atoms: C_9  and  C_10
REMARK    5  A    between atoms: C_13  and  C_14
REMARK    6  A    between atoms: C_14  and  N_15
REMARK    7  A    between atoms: N_15  and  C_16
REMARK    8  A    between atoms: N_15  and  C_19
REMARK    9  A    between atoms: C_16  and  C_17
REMARK   10  A    between atoms: C_17  and  O_18
REMARK   11  A    between atoms: C_19  and  C_20
REMARK                            x       y       z     vdW  Elec       q    Type
REMARK                         _______ _______ _______ _____ _____    ______ ____
ROOT
ATOM      1  C   UNL     1      47.403   7.777  12.910  0.00  0.00    +0.000 A 
ATOM      2  C   UNL     1      46.221   8.498  12.682  0.00  0.00    +0.000 A 
ATOM      3  C   UNL     1      45.121   7.886  12.075  0.00  0.00    +0.000 A 
ATOM      4  C   UNL     1      45.183   6.543  11.682  0.00  0.00    +0.000 A 
ATOM      5  C   UNL     1      46.322   5.795  12.009  0.00  0.00    +0.000 A 
ATOM      6  C   UNL     1      47.421   6.406  12.620  0.00  0.00    +0.000 A 
ENDROOT
BRANCH   1   7
ATOM      7  C   UNL     1      48.624   8.467  13.468  0.00  0.00    +0.000 C 
BRANCH   7  10
ATOM      8  C   UNL     1      49.690   7.840  15.615  0.00  0.00    +0.000 C 
ATOM      9  O   UNL     1      49.330   8.864  16.189  0.00  0.00    +0.000 OA
ATOM     10  N   UNL     1      49.377   7.574  14.304  0.00  0.00    +0.000 N 
ATOM     11  H   UNL     1      49.659   6.692  13.898  0.00  0.00    +0.000 HD
BRANCH   8  16
ATOM     12  C   UNL     1      47.639   2.751  17.688  0.00  0.00    +0.000 C 
ATOM     13  C   UNL     1      48.867   3.594  17.525  0.00  0.00    +0.000 A 
ATOM     14  C   UNL     1      48.813   4.844  16.897  0.00  0.00    +0.000 A 
ATOM     15  C   UNL     1      50.026   5.541  16.805  0.00  0.00    +0.000 A 
ATOM     16  C   UNL     1      50.486   6.805  16.277  0.00  0.00    +0.000 A 
ATOM     17  C   UNL     1      51.843   6.830  16.548  0.00  0.00    +0.000 A 
ATOM     18 CL   UNL     1      53.086   7.962  16.269  0.00  0.00    +0.000 Cl
ATOM     19  N   UNL     1      52.223   5.693  17.181  0.00  0.00    +0.000 N 
ATOM     20  C   UNL     1      51.134   4.898  17.346  0.00  0.00    +0.000 A 
ATOM     21  N   UNL     1      51.155   3.696  17.938  0.00  0.00    +0.000 NA
ATOM     22  N   UNL     1      50.009   3.051  18.022  0.00  0.00    +0.000 NA
ATOM     23  H   UNL     1      53.153   5.463  17.492  0.00  0.00    +0.000 HD
ENDBRANCH   8  16
ENDBRANCH   7  10
ENDBRANCH   1   7
BRANCH   4  24
ATOM     24  C   UNL     1      44.072   5.932  10.848  0.00  0.00    +0.000 C 
BRANCH  24  25
ATOM     25  N   UNL     1      44.260   4.481  10.580  0.00  0.00    +0.000 NA
BRANCH  25  26
ATOM     26  C   UNL     1      43.267   3.674  11.333  0.00  0.00    +0.000 C 
BRANCH  26  27
ATOM     27  C   UNL     1      43.785   3.031  12.634  0.00  0.00    +0.000 C 
BRANCH  27  28
ATOM     28  O   UNL     1      45.164   2.687  12.505  0.00  0.00    +0.000 OA
ATOM     29  H   UNL     1      45.277   1.804  12.896  0.00  0.00    +0.000 HD
ENDBRANCH  27  28
ENDBRANCH  26  27
ENDBRANCH  25  26
BRANCH  25  30
ATOM     30  C   UNL     1      44.122   4.217   9.130  0.00  0.00    +0.000 C 
BRANCH  30  31
ATOM     31  C   UNL     1      45.218   3.369   8.522  0.00  0.00    +0.000 A 
ATOM     32  C   UNL     1      45.288   1.992   8.778  0.00  0.00    +0.000 A 
ATOM     33  C   UNL     1      46.258   1.206   8.154  0.00  0.00    +0.000 A 
ATOM     34  C   UNL     1      47.168   1.789   7.272  0.00  0.00    +0.000 A 
ATOM     35  C   UNL     1      47.118   3.159   7.023  0.00  0.00    +0.000 A 
ATOM     36  C   UNL     1      46.147   3.946   7.644  0.00  0.00    +0.000 A 
ENDBRANCH  30  31
ENDBRANCH  25  30
ENDBRANCH  24  25
ENDBRANCH   4  24
TORSDOF 10
ENDMDL
MODEL 6
REMARK VINA RESULT:    -7.113      1.567      1.731
REMARK INTER + INTRA:         -12.222
REMARK INTER:                 -10.807
REMARK INTRA:                  -1.415
REMARK UNBOUND:                -1.159
REMARK  Name = 
REMARK  11 active torsions:
REMARK  status: ('A' for Active; 'I' for Inactive)
REMARK    1  A    between atoms: C_1  and  C_2
REMARK    2  A    between atoms: C_5  and  C_6
REMARK    3  A    between atoms: N_8  and  C_9
REMARK    4  A    between atoms: C_9  and  C_10
REMARK    5  A    between atoms: C_13  and  C_14
REMARK    6  A    between atoms: C_14  and  N_15
REMARK    7  A    between atoms: N_15  and  C_16
REMARK    8  A    between atoms: N_15  and  C_19
REMARK    9  A    between atoms: C_16  and  C_17
REMARK   10  A    between atoms: C_17  and  O_18
REMARK   11  A    between atoms: C_19  and  C_20
REMARK                            x       y       z     vdW  Elec       q    Type
REMARK                         _______ _______ _______ _____ _____    ______ ____
ROOT
ATOM      1  C   UNL     1      47.984   7.160  13.683  0.00  0.00    +0.000 A 
ATOM      2  C   UNL     1      47.043   8.160  13.398  0.00  0.00    +0.000 A 
ATOM      3  C   UNL     1      45.920   7.876  12.615  0.00  0.00    +0.000 A 
ATOM      4  C   UNL     1      45.720   6.589  12.100  0.00  0.00    +0.000 A 
ATOM      5  C   UNL     1      46.601   5.566  12.477  0.00  0.00    +0.000 A 
ATOM      6  C   UNL     1      47.721   5.849  13.263  0.00  0.00    +0.000 A 
ENDROOT
BRANCH   1   7
ATOM      7  C   UNL     1      49.247   7.492  14.439  0.00  0.00    +0.000 C 
BRANCH   7  10
ATOM      8  C   UNL     1      48.877   7.060  16.851  0.00  0.00    +0.000 C 
ATOM      9  O   UNL     1      48.283   8.118  17.035  0.00  0.00    +0.000 OA
ATOM     10  N   UNL     1      49.362   6.684  15.622  0.00  0.00    +0.000 N 
ATOM     11  H   UNL     1      49.801   5.779  15.519  0.00  0.00    +0.000 HD
BRANCH   8  16
ATOM     12  C   UNL     1      52.772   7.701  21.188  0.00  0.00    +0.000 C 
ATOM     13  C   UNL     1      51.731   6.793  20.610  0.00  0.00    +0.000 A 
ATOM     14  C   UNL     1      51.018   7.142  19.458  0.00  0.00    +0.000 A 
ATOM     15  C   UNL     1      50.070   6.211  19.011  0.00  0.00    +0.000 A 
ATOM     16  C   UNL     1      49.122   6.098  17.926  0.00  0.00    +0.000 A 
ATOM     17  C   UNL     1      48.508   4.873  18.119  0.00  0.00    +0.000 A 
ATOM     18 CL   UNL     1      47.307   4.004  17.276  0.00  0.00    +0.000 Cl
ATOM     19  N   UNL     1      49.004   4.258  19.221  0.00  0.00    +0.000 N 
ATOM     20  C   UNL     1      49.953   5.055  19.776  0.00  0.00    +0.000 A 
ATOM     21  N   UNL     1      50.648   4.750  20.881  0.00  0.00    +0.000 NA
ATOM     22  N   UNL     1      51.538   5.631  21.290  0.00  0.00    +0.000 NA
ATOM     23  H   UNL     1      48.731   3.357  19.577  0.00  0.00    +0.000 HD
ENDBRANCH   8  16
ENDBRANCH   7  10
ENDBRANCH   1   7
BRANCH   4  24
ATOM     24  C   UNL     1      44.617   6.325  11.091  0.00  0.00    +0.000 C 
BRANCH  24  25
ATOM     25  N   UNL     1      44.312   4.880  10.909  0.00  0.00    +0.000 NA
BRANCH  25  26
ATOM     26  C   UNL     1      43.129   4.487  11.717  0.00  0.00    +0.000 C 
BRANCH  26  27
ATOM     27  C   UNL     1      43.433   3.653  12.975  0.00  0.00    +0.000 C 
BRANCH  27  28
ATOM     28  O   UNL     1      44.215   2.508  12.638  0.00  0.00    +0.000 OA
ATOM     29  H   UNL     1      43.847   1.753  13.128  0.00  0.00    +0.000 HD
ENDBRANCH  27  28
ENDBRANCH  26  27
ENDBRANCH  25  26
BRANCH  25  30
ATOM     30  C   UNL     1      44.057   4.598   9.479  0.00  0.00    +0.000 C 
BRANCH  30  31
ATOM     31  C   UNL     1      45.081   3.710   8.805  0.00  0.00    +0.000 A 
ATOM     32  C   UNL     1      45.082   2.324   9.020  0.00  0.00    +0.000 A 
ATOM     33  C   UNL     1      45.983   1.505   8.336  0.00  0.00    +0.000 A 
ATOM     34  C   UNL     1      46.891   2.063   7.437  0.00  0.00    +0.000 A 
ATOM     35  C   UNL     1      46.909   3.440   7.229  0.00  0.00    +0.000 A 
ATOM     36  C   UNL     1      46.008   4.261   7.908  0.00  0.00    +0.000 A 
ENDBRANCH  30  31
ENDBRANCH  25  30
ENDBRANCH  24  25
ENDBRANCH   4  24
TORSDOF 10
ENDMDL
MODEL 7
REMARK VINA RESULT:    -7.082      3.312      3.835
REMARK INTER + INTRA:         -12.174
REMARK INTER:                 -11.285
REMARK INTRA:                  -0.889
REMARK UNBOUND:                -1.159
REMARK  Name = 
REMARK  11 active torsions:
REMARK  status: ('A' for Active; 'I' for Inactive)
REMARK    1  A    between atoms: C_1  and  C_2
REMARK    2  A    between atoms: C_5  and  C_6
REMARK    3  A    between atoms: N_8  and  C_9
REMARK    4  A    between atoms: C_9  and  C_10
REMARK    5  A    between atoms: C_13  and  C_14
REMARK    6  A    between atoms: C_14  and  N_15
REMARK    7  A    between atoms: N_15  and  C_16
REMARK    8  A    between atoms: N_15  and  C_19
REMARK    9  A    between atoms: C_16  and  C_17
REMARK   10  A    between atoms: C_17  and  O_18
REMARK   11  A    between atoms: C_19  and  C_20
REMARK                            x       y       z     vdW  Elec       q    Type
REMARK                         _______ _______ _______ _____ _____    ______ ____
ROOT
ATOM      1  C   UNL     1      47.594   5.699  14.475  0.00  0.00    +0.000 A 
ATOM      2  C   UNL     1      46.913   4.543  14.065  0.00  0.00    +0.000 A 
ATOM      3  C   UNL     1      46.251   4.508  12.835  0.00  0.00    +0.000 A 
ATOM      4  C   UNL     1      46.254   5.629  11.994  0.00  0.00    +0.000 A 
ATOM      5  C   UNL     1      47.025   6.742  12.355  0.00  0.00    +0.000 A 
ATOM      6  C   UNL     1      47.691   6.776  13.584  0.00  0.00    +0.000 A 
ENDROOT
BRANCH   1   7
ATOM      7  C   UNL     1      48.219   5.772  15.847  0.00  0.00    +0.000 C 
BRANCH   7  10
ATOM      8  C   UNL     1      48.735   7.515  17.531  0.00  0.00    +0.000 C 
ATOM      9  O   UNL     1      48.917   6.706  18.436  0.00  0.00    +0.000 OA
ATOM     10  N   UNL     1      48.406   7.138  16.252  0.00  0.00    +0.000 N 
ATOM     11  H   UNL     1      48.315   7.846  15.536  0.00  0.00    +0.000 HD
BRANCH   8  16
ATOM     12  C   UNL     1      45.360  10.765  21.060  0.00  0.00    +0.000 C 
ATOM     13  C   UNL     1      46.505  10.803  20.094  0.00  0.00    +0.000 A 
ATOM     14  C   UNL     1      46.970   9.640  19.470  0.00  0.00    +0.000 A 
ATOM     15  C   UNL     1      48.046   9.801  18.586  0.00  0.00    +0.000 A 
ATOM     16  C   UNL     1      48.853   8.961  17.732  0.00  0.00    +0.000 A 
ATOM     17  C   UNL     1      49.754   9.824  17.134  0.00  0.00    +0.000 A 
ATOM     18 CL   UNL     1      51.011   9.626  15.999  0.00  0.00    +0.000 Cl
ATOM     19  N   UNL     1      49.554  11.094  17.563  0.00  0.00    +0.000 N 
ATOM     20  C   UNL     1      48.521  11.101  18.445  0.00  0.00    +0.000 A 
ATOM     21  N   UNL     1      48.057  12.196  19.062  0.00  0.00    +0.000 NA
ATOM     22  N   UNL     1      47.044  12.034  19.888  0.00  0.00    +0.000 NA
ATOM     23  H   UNL     1      50.071  11.911  17.278  0.00  0.00    +0.000 HD
ENDBRANCH   8  16
ENDBRANCH   7  10
ENDBRANCH   1   7
BRANCH   4  24
ATOM     24  C   UNL     1      45.376   5.666  10.757  0.00  0.00    +0.000 C 
BRANCH  24  25
ATOM     25  N   UNL     1      44.712   4.368  10.461  0.00  0.00    +0.000 NA
BRANCH  25  26
ATOM     26  C   UNL     1      43.374   4.303  11.104  0.00  0.00    +0.000 C 
BRANCH  26  27
ATOM     27  C   UNL     1      43.182   3.161  12.120  0.00  0.00    +0.000 C 
BRANCH  27  28
ATOM     28  O   UNL     1      43.162   1.899  11.454  0.00  0.00    +0.000 OA
ATOM     29  H   UNL     1      43.448   2.053  10.538  0.00  0.00    +0.000 HD
ENDBRANCH  27  28
ENDBRANCH  26  27
ENDBRANCH  25  26
BRANCH  25  30
ATOM     30  C   UNL     1      44.571   4.199   8.997  0.00  0.00    +0.000 C 
BRANCH  30  31
ATOM     31  C   UNL     1      45.570   3.259   8.358  0.00  0.00    +0.000 A 
ATOM     32  C   UNL     1      45.554   1.887   8.649  0.00  0.00    +0.000 A 
ATOM     33  C   UNL     1      46.431   1.017   7.999  0.00  0.00    +0.000 A 
ATOM     34  C   UNL     1      47.333   1.510   7.056  0.00  0.00    +0.000 A 
ATOM     35  C   UNL     1      47.368   2.873   6.771  0.00  0.00    +0.000 A 
ATOM     36  C   UNL     1      46.491   3.745   7.418  0.00  0.00    +0.000 A 
ENDBRANCH  30  31
ENDBRANCH  25  30
ENDBRANCH  24  25
ENDBRANCH   4  24
TORSDOF 10
ENDMDL
MODEL 8
REMARK VINA RESULT:    -7.000      2.591      9.679
REMARK INTER + INTRA:         -12.047
REMARK INTER:                 -10.508
REMARK INTRA:                  -1.539
REMARK UNBOUND:                -1.159
REMARK  Name = 
REMARK  11 active torsions:
REMARK  status: ('A' for Active; 'I' for Inactive)
REMARK    1  A    between atoms: C_1  and  C_2
REMARK    2  A    between atoms: C_5  and  C_6
REMARK    3  A    between atoms: N_8  and  C_9
REMARK    4  A    between atoms: C_9  and  C_10
REMARK    5  A    between atoms: C_13  and  C_14
REMARK    6  A    between atoms: C_14  and  N_15
REMARK    7  A    between atoms: N_15  and  C_16
REMARK    8  A    between atoms: N_15  and  C_19
REMARK    9  A    between atoms: C_16  and  C_17
REMARK   10  A    between atoms: C_17  and  O_18
REMARK   11  A    between atoms: C_19  and  C_20
REMARK                            x       y       z     vdW  Elec       q    Type
REMARK                         _______ _______ _______ _____ _____    ______ ____
ROOT
ATOM      1  C   UNL     1      47.772   7.977  13.434  0.00  0.00    +0.000 A 
ATOM      2  C   UNL     1      47.988   9.134  14.195  0.00  0.00    +0.000 A 
ATOM      3  C   UNL     1      48.465   9.045  15.505  0.00  0.00    +0.000 A 
ATOM      4  C   UNL     1      48.732   7.795  16.080  0.00  0.00    +0.000 A 
ATOM      5  C   UNL     1      48.622   6.648  15.284  0.00  0.00    +0.000 A 
ATOM      6  C   UNL     1      48.148   6.738  13.971  0.00  0.00    +0.000 A 
ENDROOT
BRANCH   1   7
ATOM      7  C   UNL     1      47.158   8.069  12.058  0.00  0.00    +0.000 C 
BRANCH   7  10
ATOM      8  C   UNL     1      45.138   6.794  11.401  0.00  0.00    +0.000 C 
ATOM      9  O   UNL     1      44.422   7.790  11.357  0.00  0.00    +0.000 OA
ATOM     10  N   UNL     1      46.472   6.852  11.722  0.00  0.00    +0.000 N 
ATOM     11  H   UNL     1      47.024   6.005  11.696  0.00  0.00    +0.000 HD
BRANCH   8  16
ATOM     12  C   UNL     1      46.594   3.514   6.763  0.00  0.00    +0.000 C 
ATOM     13  C   UNL     1      45.764   3.561   8.009  0.00  0.00    +0.000 A 
ATOM     14  C   UNL     1      45.781   4.678   8.852  0.00  0.00    +0.000 A 
ATOM     15  C   UNL     1      44.962   4.607   9.988  0.00  0.00    +0.000 A 
ATOM     16  C   UNL     1      44.635   5.450  11.115  0.00  0.00    +0.000 A 
ATOM     17  C   UNL     1      43.729   4.712  11.858  0.00  0.00    +0.000 A 
ATOM     18 CL   UNL     1      42.867   5.000  13.300  0.00  0.00    +0.000 Cl
ATOM     19  N   UNL     1      43.500   3.511  11.274  0.00  0.00    +0.000 N 
ATOM     20  C   UNL     1      44.239   3.428  10.137  0.00  0.00    +0.000 A 
ATOM     21  N   UNL     1      44.248   2.371   9.313  0.00  0.00    +0.000 NA
ATOM     22  N   UNL     1      45.018   2.450   8.248  0.00  0.00    +0.000 NA
ATOM     23  H   UNL     1      42.880   2.791  11.609  0.00  0.00    +0.000 HD
ENDBRANCH   8  16
ENDBRANCH   7  10
ENDBRANCH   1   7
BRANCH   4  24
ATOM     24  C   UNL     1      49.057   7.680  17.558  0.00  0.00    +0.000 C 
BRANCH  24  25
ATOM     25  N   UNL     1      50.234   6.815  17.842  0.00  0.00    +0.000 NA
BRANCH  25  26
ATOM     26  C   UNL     1      51.329   7.604  18.463  0.00  0.00    +0.000 C 
BRANCH  26  27
ATOM     27  C   UNL     1      52.333   6.795  19.305  0.00  0.00    +0.000 C 
BRANCH  27  28
ATOM     28  O   UNL     1      53.072   7.660  20.167  0.00  0.00    +0.000 OA
ATOM     29  H   UNL     1      53.896   7.890  19.704  0.00  0.00    +0.000 HD
ENDBRANCH  27  28
ENDBRANCH  26  27
ENDBRANCH  25  26
BRANCH  25  30
ATOM     30  C   UNL     1      49.839   5.712  18.745  0.00  0.00    +0.000 C 
BRANCH  30  31
ATOM     31  C   UNL     1      49.527   4.399  18.060  0.00  0.00    +0.000 A 
ATOM     32  C   UNL     1      48.211   4.068  17.705  0.00  0.00    +0.000 A 
ATOM     33  C   UNL     1      47.943   2.889  17.008  0.00  0.00    +0.000 A 
ATOM     34  C   UNL     1      48.985   2.029  16.662  0.00  0.00    +0.000 A 
ATOM     35  C   UNL     1      50.294   2.340  17.024  0.00  0.00    +0.000 A 
ATOM     36  C   UNL     1      50.565   3.520  17.719  0.00  0.00    +0.000 A 
ENDBRANCH  30  31
ENDBRANCH  25  30
ENDBRANCH  24  25
ENDBRANCH   4  24
TORSDOF 10
ENDMDL
MODEL 9
REMARK VINA RESULT:    -6.951      2.807     10.514
REMARK INTER + INTRA:         -11.971
REMARK INTER:                 -10.623
REMARK INTRA:                  -1.348
REMARK UNBOUND:                -1.159
REMARK  Name = 
REMARK  11 active torsions:
REMARK  status: ('A' for Active; 'I' for Inactive)
REMARK    1  A    between atoms: C_1  and  C_2
REMARK    2  A    between atoms: C_5  and  C_6
REMARK    3  A    between atoms: N_8  and  C_9
REMARK    4  A    between atoms: C_9  and  C_10
REMARK    5  A    between atoms: C_13  and  C_14
REMARK    6  A    between atoms: C_14  and  N_15
REMARK    7  A    between atoms: N_15  and  C_16
REMARK    8  A    between atoms: N_15  and  C_19
REMARK    9  A    between atoms: C_16  and  C_17
REMARK   10  A    between atoms: C_17  and  O_18
REMARK   11  A    between atoms: C_19  and  C_20
REMARK                            x       y       z     vdW  Elec       q    Type
REMARK                         _______ _______ _______ _____ _____    ______ ____
ROOT
ATOM      1  C   UNL     1      47.719   7.820  13.588  0.00  0.00    +0.000 A 
ATOM      2  C   UNL     1      48.070   6.577  14.133  0.00  0.00    +0.000 A 
ATOM      3  C   UNL     1      48.621   6.493  15.415  0.00  0.00    +0.000 A 
ATOM      4  C   UNL     1      48.832   7.651  16.174  0.00  0.00    +0.000 A 
ATOM      5  C   UNL     1      48.379   8.879  15.674  0.00  0.00    +0.000 A 
ATOM      6  C   UNL     1      47.825   8.962  14.393  0.00  0.00    +0.000 A 
ENDROOT
BRANCH   1   7
ATOM      7  C   UNL     1      47.223   7.919  12.166  0.00  0.00    +0.000 C 
BRANCH   7  10
ATOM      8  C   UNL     1      45.211   6.701  11.388  0.00  0.00    +0.000 C 
ATOM      9  O   UNL     1      44.524   7.715  11.310  0.00  0.00    +0.000 OA
ATOM     10  N   UNL     1      46.526   6.722  11.783  0.00  0.00    +0.000 N 
ATOM     11  H   UNL     1      47.056   5.862  11.783  0.00  0.00    +0.000 HD
BRANCH   8  16
ATOM     12  C   UNL     1      46.663   3.510   6.686  0.00  0.00    +0.000 C 
ATOM     13  C   UNL     1      45.822   3.541   7.925  0.00  0.00    +0.000 A 
ATOM     14  C   UNL     1      45.847   4.637   8.795  0.00  0.00    +0.000 A 
ATOM     15  C   UNL     1      45.016   4.551   9.920  0.00  0.00    +0.000 A 
ATOM     16  C   UNL     1      44.690   5.372  11.065  0.00  0.00    +0.000 A 
ATOM     17  C   UNL     1      43.767   4.630  11.781  0.00  0.00    +0.000 A 
ATOM     18 CL   UNL     1      42.894   4.897  13.221  0.00  0.00    +0.000 Cl
ATOM     19  N   UNL     1      43.524   3.447  11.166  0.00  0.00    +0.000 N 
ATOM     20  C   UNL     1      44.273   3.381  10.034  0.00  0.00    +0.000 A 
ATOM     21  N   UNL     1      44.275   2.343   9.185  0.00  0.00    +0.000 NA
ATOM     22  N   UNL     1      45.057   2.436   8.130  0.00  0.00    +0.000 NA
ATOM     23  H   UNL     1      42.891   2.729  11.477  0.00  0.00    +0.000 HD
ENDBRANCH   8  16
ENDBRANCH   7  10
ENDBRANCH   1   7
BRANCH   4  24
ATOM     24  C   UNL     1      49.608   7.588  17.477  0.00  0.00    +0.000 C 
BRANCH  24  25
ATOM     25  N   UNL     1      48.749   7.353  18.669  0.00  0.00    +0.000 NA
BRANCH  25  26
ATOM     26  C   UNL     1      48.940   5.975  19.191  0.00  0.00    +0.000 C 
BRANCH  26  27
ATOM     27  C   UNL     1      47.785   4.995  18.912  0.00  0.00    +0.000 C 
BRANCH  27  28
ATOM     28  O   UNL     1      46.666   5.688  18.360  0.00  0.00    +0.000 OA
ATOM     29  H   UNL     1      46.190   5.059  17.792  0.00  0.00    +0.000 HD
ENDBRANCH  27  28
ENDBRANCH  26  27
ENDBRANCH  25  26
BRANCH  25  30
ATOM     30  C   UNL     1      49.077   8.337  19.725  0.00  0.00    +0.000 C 
BRANCH  30  31
ATOM     31  C   UNL     1      47.886   9.021  20.359  0.00  0.00    +0.000 A 
ATOM     32  C   UNL     1      47.510   8.732  21.679  0.00  0.00    +0.000 A 
ATOM     33  C   UNL     1      46.455   9.423  22.280  0.00  0.00    +0.000 A 
ATOM     34  C   UNL     1      45.766  10.404  21.568  0.00  0.00    +0.000 A 
ATOM     35  C   UNL     1      46.121  10.687  20.250  0.00  0.00    +0.000 A 
ATOM     36  C   UNL     1      47.177  10.000  19.648  0.00  0.00    +0.000 A 
ENDBRANCH  30  31
ENDBRANCH  25  30
ENDBRANCH  24  25
ENDBRANCH   4  24
TORSDOF 10
ENDMDL
