MODEL 1
REMARK VINA RESULT:    -8.246      0.000      0.000
REMARK INTER + INTRA:         -13.571
REMARK INTER:                 -12.102
REMARK INTRA:                  -1.469
REMARK UNBOUND:                -1.469
REMARK  Name = 
REMARK  9 active torsions:
REMARK  status: ('A' for Active; 'I' for Inactive)
REMARK    1  A    between atoms: C_1  and  C_2
REMARK    2  A    between atoms: C_2  and  C_3
REMARK    3  A    between atoms: C_2  and  N_13
REMARK    4  A    between atoms: C_3  and  C_4
REMARK    5  A    between atoms: C_7  and  C_8
REMARK    6  A    between atoms: N_13  and  C_14
REMARK    7  A    between atoms: C_18  and  C_19
REMARK    8  A    between atoms: C_24  and  O_25
REMARK    9  A    between atoms: O_25  and  C_26
REMARK                            x       y       z     vdW  Elec       q    Type
REMARK                         _______ _______ _______ _____ _____    ______ ____
ROOT
ATOM      1  C   UNL     1      44.697   7.436  11.529  0.00  0.00    +0.000 A 
ATOM      2  C   UNL     1      44.580   8.798  11.244  0.00  0.00    +0.000 A 
ATOM      3  C   UNL     1      45.465   9.715  11.796  0.00  0.00    +0.000 A 
ATOM      4  C   UNL     1      46.486   9.277  12.639  0.00  0.00    +0.000 A 
ATOM      5  C   UNL     1      46.634   7.920  12.996  0.00  0.00    +0.000 A 
ATOM      6  C   UNL     1      45.745   7.014  12.379  0.00  0.00    +0.000 A 
ENDROOT
BRANCH   5   7
ATOM      7  C   UNL     1      47.587   7.525  14.083  0.00  0.00    +0.000 A 
ATOM      8  C   UNL     1      48.031   8.544  14.965  0.00  0.00    +0.000 A 
ATOM      9  C   UNL     1      48.862   8.292  16.055  0.00  0.00    +0.000 A 
ATOM     10  C   UNL     1      49.217   6.991  16.351  0.00  0.00    +0.000 A 
ATOM     11  C   UNL     1      48.783   5.956  15.519  0.00  0.00    +0.000 A 
ATOM     12  C   UNL     1      48.047   6.210  14.352  0.00  0.00    +0.000 A 
BRANCH  12  13
ATOM     13  O   UNL     1      47.741   5.227  13.453  0.00  0.00    +0.000 OA
BRANCH  13  14
ATOM     14  C   UNL     1      46.871   4.163  13.844  0.00  0.00    +0.000 C 
ATOM     15  F   UNL     1      46.308   3.494  12.816  0.00  0.00    +0.000 F 
ATOM     16  F   UNL     1      47.549   3.285  14.616  0.00  0.00    +0.000 F 
ATOM     17  F   UNL     1      45.863   4.679  14.584  0.00  0.00    +0.000 F 
ENDBRANCH  13  14
ENDBRANCH  12  13
ENDBRANCH   5   7
BRANCH   1  18
ATOM     18  N   UNL     1      43.917   6.454  10.896  0.00  0.00    +0.000 N 
ATOM     19  H   UNL     1      42.961   6.805  10.830  0.00  0.00    +0.000 HD
BRANCH  18  21
ATOM     20  C   UNL     1      42.999   4.931  12.571  0.00  0.00    +0.000 C 
ATOM     21  C   UNL     1      43.965   5.058  11.387  0.00  0.00    +0.000 C 
BRANCH  21  22
ATOM     22  C   UNL     1      43.583   4.122  10.219  0.00  0.00    +0.000 C 
BRANCH  22  23
ATOM     23  C   UNL     1      44.713   3.582   9.369  0.00  0.00    +0.000 A 
ATOM     24  C   UNL     1      44.925   2.198   9.283  0.00  0.00    +0.000 A 
ATOM     25  C   UNL     1      45.875   1.678   8.401  0.00  0.00    +0.000 A 
ATOM     26  C   UNL     1      46.625   2.532   7.586  0.00  0.00    +0.000 A 
ATOM     27  C   UNL     1      46.449   3.917   7.698  0.00  0.00    +0.000 A 
ATOM     28  C   UNL     1      45.499   4.437   8.586  0.00  0.00    +0.000 A 
BRANCH  26  29
ATOM     29  C   UNL     1      47.584   1.927   6.623  0.00  0.00    +0.000 C 
ATOM     30  N   UNL     1      48.684   2.660   6.283  0.00  0.00    +0.000 N 
ATOM     31  O   UNL     1      47.381   0.828   6.118  0.00  0.00    +0.000 OA
ATOM     32  H   UNL     1      48.779   3.643   6.491  0.00  0.00    +0.000 HD
ATOM     33  H   UNL     1      49.264   2.281   5.543  0.00  0.00    +0.000 HD
ENDBRANCH  26  29
ENDBRANCH  22  23
ENDBRANCH  21  22
ENDBRANCH  18  21
ENDBRANCH   1  18
TORSDOF 8
ENDMDL
MODEL 2
REMARK VINA RESULT:    -8.136      1.661      2.258
REMARK INTER + INTRA:         -13.410
REMARK INTER:                 -12.099
REMARK INTRA:                  -1.311
REMARK UNBOUND:                -1.469
REMARK  Name = 
REMARK  9 active torsions:
REMARK  status: ('A' for Active; 'I' for Inactive)
REMARK    1  A    between atoms: C_1  and  C_2
REMARK    2  A    between atoms: C_2  and  C_3
REMARK    3  A    between atoms: C_2  and  N_13
REMARK    4  A    between atoms: C_3  and  C_4
REMARK    5  A    between atoms: C_7  and  C_8
REMARK    6  A    between atoms: N_13  and  C_14
REMARK    7  A    between atoms: C_18  and  C_19
REMARK    8  A    between atoms: C_24  and  O_25
REMARK    9  A    between atoms: O_25  and  C_26
REMARK                            x       y       z     vdW  Elec       q    Type
REMARK                         _______ _______ _______ _____ _____    ______ ____
ROOT
ATOM      1  C   UNL     1      46.168   6.257  12.655  0.00  0.00    +0.000 A 
ATOM      2  C   UNL     1      46.869   6.809  11.581  0.00  0.00    +0.000 A 
ATOM      3  C   UNL     1      48.205   7.163  11.715  0.00  0.00    +0.000 A 
ATOM      4  C   UNL     1      48.860   6.964  12.930  0.00  0.00    +0.000 A 
ATOM      5  C   UNL     1      48.198   6.447  14.063  0.00  0.00    +0.000 A 
ATOM      6  C   UNL     1      46.855   6.055  13.874  0.00  0.00    +0.000 A 
ENDROOT
BRANCH   5   7
ATOM      7  C   UNL     1      48.866   6.471  15.405  0.00  0.00    +0.000 A 
ATOM      8  C   UNL     1      49.979   7.335  15.565  0.00  0.00    +0.000 A 
ATOM      9  C   UNL     1      50.642   7.499  16.780  0.00  0.00    +0.000 A 
ATOM     10  C   UNL     1      50.162   6.859  17.905  0.00  0.00    +0.000 A 
ATOM     11  C   UNL     1      49.054   6.015  17.795  0.00  0.00    +0.000 A 
ATOM     12  C   UNL     1      48.454   5.749  16.555  0.00  0.00    +0.000 A 
BRANCH  12  13
ATOM     13  O   UNL     1      47.466   4.816  16.407  0.00  0.00    +0.000 OA
BRANCH  13  14
ATOM     14  C   UNL     1      47.808   3.428  16.382  0.00  0.00    +0.000 C 
ATOM     15  F   UNL     1      47.649   2.835  15.180  0.00  0.00    +0.000 F 
ATOM     16  F   UNL     1      49.090   3.272  16.779  0.00  0.00    +0.000 F 
ATOM     17  F   UNL     1      47.014   2.772  17.258  0.00  0.00    +0.000 F 
ENDBRANCH  13  14
ENDBRANCH  12  13
ENDBRANCH   5   7
BRANCH   1  18
ATOM     18  N   UNL     1      44.860   5.757  12.537  0.00  0.00    +0.000 N 
ATOM     19  H   UNL     1      44.398   5.870  13.440  0.00  0.00    +0.000 HD
BRANCH  18  21
ATOM     20  C   UNL     1      43.618   3.675  12.836  0.00  0.00    +0.000 C 
ATOM     21  C   UNL     1      44.646   4.407  11.966  0.00  0.00    +0.000 C 
BRANCH  21  22
ATOM     22  C   UNL     1      44.166   4.571  10.508  0.00  0.00    +0.000 C 
BRANCH  22  23
ATOM     23  C   UNL     1      44.931   3.819   9.440  0.00  0.00    +0.000 A 
ATOM     24  C   UNL     1      45.701   4.523   8.503  0.00  0.00    +0.000 A 
ATOM     25  C   UNL     1      46.518   3.841   7.598  0.00  0.00    +0.000 A 
ATOM     26  C   UNL     1      46.581   2.444   7.617  0.00  0.00    +0.000 A 
ATOM     27  C   UNL     1      45.782   1.733   8.521  0.00  0.00    +0.000 A 
ATOM     28  C   UNL     1      44.961   2.419   9.426  0.00  0.00    +0.000 A 
BRANCH  26  29
ATOM     29  C   UNL     1      47.508   1.766   6.671  0.00  0.00    +0.000 C 
ATOM     30  N   UNL     1      48.615   2.455   6.269  0.00  0.00    +0.000 N 
ATOM     31  O   UNL     1      47.272   0.645   6.232  0.00  0.00    +0.000 OA
ATOM     32  H   UNL     1      48.734   3.446   6.420  0.00  0.00    +0.000 HD
ATOM     33  H   UNL     1      49.172   2.023   5.540  0.00  0.00    +0.000 HD
ENDBRANCH  26  29
ENDBRANCH  22  23
ENDBRANCH  21  22
ENDBRANCH  18  21
ENDBRANCH   1  18
TORSDOF 8
ENDMDL
MODEL 3
REMARK VINA RESULT:    -7.997      3.173      4.016
REMARK INTER + INTRA:         -13.206
REMARK INTER:                 -11.651
REMARK INTRA:                  -1.555
REMARK UNBOUND:                -1.469
REMARK  Name = 
REMARK  9 active torsions:
REMARK  status: ('A' for Active; 'I' for Inactive)
REMARK    1  A    between atoms: C_1  and  C_2
REMARK    2  A    between atoms: C_2  and  C_3
REMARK    3  A    between atoms: C_2  and  N_13
REMARK    4  A    between atoms: C_3  and  C_4
REMARK    5  A    between atoms: C_7  and  C_8
REMARK    6  A    between atoms: N_13  and  C_14
REMARK    7  A    between atoms: C_18  and  C_19
REMARK    8  A    between atoms: C_24  and  O_25
REMARK    9  A    between atoms: O_25  and  C_26
REMARK                            x       y       z     vdW  Elec       q    Type
REMARK                         _______ _______ _______ _____ _____    ______ ____
ROOT
ATOM      1  C   UNL     1      46.037   6.007  12.040  0.00  0.00    +0.000 A 
ATOM      2  C   UNL     1      46.248   5.275  13.211  0.00  0.00    +0.000 A 
ATOM      3  C   UNL     1      47.364   5.513  14.002  0.00  0.00    +0.000 A 
ATOM      4  C   UNL     1      48.285   6.493  13.632  0.00  0.00    +0.000 A 
ATOM      5  C   UNL     1      48.148   7.239  12.442  0.00  0.00    +0.000 A 
ATOM      6  C   UNL     1      46.978   7.002  11.690  0.00  0.00    +0.000 A 
ENDROOT
BRANCH   5   7
ATOM      7  C   UNL     1      49.271   8.108  11.962  0.00  0.00    +0.000 A 
ATOM      8  C   UNL     1      50.417   7.460  11.430  0.00  0.00    +0.000 A 
ATOM      9  C   UNL     1      51.496   8.156  10.889  0.00  0.00    +0.000 A 
ATOM     10  C   UNL     1      51.434   9.531  10.788  0.00  0.00    +0.000 A 
ATOM     11  C   UNL     1      50.314  10.205  11.279  0.00  0.00    +0.000 A 
ATOM     12  C   UNL     1      49.276   9.526  11.935  0.00  0.00    +0.000 A 
BRANCH  12  13
ATOM     13  O   UNL     1      48.248  10.183  12.550  0.00  0.00    +0.000 OA
BRANCH  13  14
ATOM     14  C   UNL     1      47.251  10.829  11.755  0.00  0.00    +0.000 C 
ATOM     15  F   UNL     1      47.636  11.103  10.490  0.00  0.00    +0.000 F 
ATOM     16  F   UNL     1      46.138  10.066  11.718  0.00  0.00    +0.000 F 
ATOM     17  F   UNL     1      46.932  12.007  12.338  0.00  0.00    +0.000 F 
ENDBRANCH  13  14
ENDBRANCH  12  13
ENDBRANCH   5   7
BRANCH   1  18
ATOM     18  N   UNL     1      44.862   5.903  11.277  0.00  0.00    +0.000 N 
ATOM     19  H   UNL     1      44.354   6.784  11.360  0.00  0.00    +0.000 HD
BRANCH  18  21
ATOM     20  C   UNL     1      42.741   5.179  12.250  0.00  0.00    +0.000 C 
ATOM     21  C   UNL     1      43.976   4.730  11.461  0.00  0.00    +0.000 C 
BRANCH  21  22
ATOM     22  C   UNL     1      43.610   4.180  10.065  0.00  0.00    +0.000 C 
BRANCH  22  23
ATOM     23  C   UNL     1      44.731   3.584   9.242  0.00  0.00    +0.000 A 
ATOM     24  C   UNL     1      44.934   2.196   9.236  0.00  0.00    +0.000 A 
ATOM     25  C   UNL     1      45.875   1.619   8.380  0.00  0.00    +0.000 A 
ATOM     26  C   UNL     1      46.625   2.419   7.512  0.00  0.00    +0.000 A 
ATOM     27  C   UNL     1      46.458   3.810   7.543  0.00  0.00    +0.000 A 
ATOM     28  C   UNL     1      45.517   4.386   8.405  0.00  0.00    +0.000 A 
BRANCH  26  29
ATOM     29  C   UNL     1      47.574   1.753   6.580  0.00  0.00    +0.000 C 
ATOM     30  N   UNL     1      48.624   2.490   6.114  0.00  0.00    +0.000 N 
ATOM     31  O   UNL     1      47.405   0.596   6.207  0.00  0.00    +0.000 OA
ATOM     32  H   UNL     1      48.680   3.494   6.210  0.00  0.00    +0.000 HD
ATOM     33  H   UNL     1      49.193   2.056   5.396  0.00  0.00    +0.000 HD
ENDBRANCH  26  29
ENDBRANCH  22  23
ENDBRANCH  21  22
ENDBRANCH  18  21
ENDBRANCH   1  18
TORSDOF 8
ENDMDL
MODEL 4
REMARK VINA RESULT:    -7.868      2.876      7.149
REMARK INTER + INTRA:         -13.016
REMARK INTER:                 -10.970
REMARK INTRA:                  -2.046
REMARK UNBOUND:                -1.469
REMARK  Name = 
REMARK  9 active torsions:
REMARK  status: ('A' for Active; 'I' for Inactive)
REMARK    1  A    between atoms: C_1  and  C_2
REMARK    2  A    between atoms: C_2  and  C_3
REMARK    3  A    between atoms: C_2  and  N_13
REMARK    4  A    between atoms: C_3  and  C_4
REMARK    5  A    between atoms: C_7  and  C_8
REMARK    6  A    between atoms: N_13  and  C_14
REMARK    7  A    between atoms: C_18  and  C_19
REMARK    8  A    between atoms: C_24  and  O_25
REMARK    9  A    between atoms: O_25  and  C_26
REMARK                            x       y       z     vdW  Elec       q    Type
REMARK                         _______ _______ _______ _____ _____    ______ ____
ROOT
ATOM      1  C   UNL     1      46.739   7.932  11.945  0.00  0.00    +0.000 A 
ATOM      2  C   UNL     1      45.579   8.590  12.358  0.00  0.00    +0.000 A 
ATOM      3  C   UNL     1      44.327   8.056  12.085  0.00  0.00    +0.000 A 
ATOM      4  C   UNL     1      44.220   6.848  11.396  0.00  0.00    +0.000 A 
ATOM      5  C   UNL     1      45.352   6.154  10.919  0.00  0.00    +0.000 A 
ATOM      6  C   UNL     1      46.607   6.704  11.258  0.00  0.00    +0.000 A 
ENDROOT
BRANCH   5   7
ATOM      7  C   UNL     1      45.189   4.993   9.985  0.00  0.00    +0.000 A 
ATOM      8  C   UNL     1      45.992   4.977   8.816  0.00  0.00    +0.000 A 
ATOM      9  C   UNL     1      45.984   3.922   7.905  0.00  0.00    +0.000 A 
ATOM     10  C   UNL     1      45.224   2.801   8.175  0.00  0.00    +0.000 A 
ATOM     11  C   UNL     1      44.436   2.767   9.327  0.00  0.00    +0.000 A 
ATOM     12  C   UNL     1      44.344   3.871  10.188  0.00  0.00    +0.000 A 
BRANCH  12  13
ATOM     13  O   UNL     1      43.467   3.910  11.236  0.00  0.00    +0.000 OA
BRANCH  13  14
ATOM     14  C   UNL     1      43.815   3.271  12.466  0.00  0.00    +0.000 C 
ATOM     15  F   UNL     1      43.400   3.925  13.572  0.00  0.00    +0.000 F 
ATOM     16  F   UNL     1      43.309   2.019  12.484  0.00  0.00    +0.000 F 
ATOM     17  F   UNL     1      45.162   3.180  12.540  0.00  0.00    +0.000 F 
ENDBRANCH  13  14
ENDBRANCH  12  13
ENDBRANCH   5   7
BRANCH   1  18
ATOM     18  N   UNL     1      48.028   8.356  12.311  0.00  0.00    +0.000 N 
ATOM     19  H   UNL     1      48.336   9.050  11.629  0.00  0.00    +0.000 HD
BRANCH  18  21
ATOM     20  C   UNL     1      50.222   7.557  11.594  0.00  0.00    +0.000 C 
ATOM     21  C   UNL     1      49.075   7.346  12.588  0.00  0.00    +0.000 C 
BRANCH  21  22
ATOM     22  C   UNL     1      49.533   7.515  14.053  0.00  0.00    +0.000 C 
BRANCH  22  23
ATOM     23  C   UNL     1      48.960   6.554  15.072  0.00  0.00    +0.000 A 
ATOM     24  C   UNL     1      47.879   5.729  14.726  0.00  0.00    +0.000 A 
ATOM     25  C   UNL     1      47.426   4.745  15.607  0.00  0.00    +0.000 A 
ATOM     26  C   UNL     1      48.048   4.565  16.846  0.00  0.00    +0.000 A 
ATOM     27  C   UNL     1      49.099   5.414  17.217  0.00  0.00    +0.000 A 
ATOM     28  C   UNL     1      49.550   6.403  16.333  0.00  0.00    +0.000 A 
BRANCH  26  29
ATOM     29  C   UNL     1      47.566   3.467  17.726  0.00  0.00    +0.000 C 
ATOM     30  N   UNL     1      48.287   3.197  18.853  0.00  0.00    +0.000 N 
ATOM     31  O   UNL     1      46.579   2.797  17.438  0.00  0.00    +0.000 OA
ATOM     32  H   UNL     1      49.215   3.560  19.015  0.00  0.00    +0.000 HD
ATOM     33  H   UNL     1      48.008   2.376  19.378  0.00  0.00    +0.000 HD
ENDBRANCH  26  29
ENDBRANCH  22  23
ENDBRANCH  21  22
ENDBRANCH  18  21
ENDBRANCH   1  18
TORSDOF 8
ENDMDL
MODEL 5
REMARK VINA RESULT:    -7.860      2.420      3.441
REMARK INTER + INTRA:         -13.004
REMARK INTER:                 -11.776
REMARK INTRA:                  -1.228
REMARK UNBOUND:                -1.469
REMARK  Name = 
REMARK  9 active torsions:
REMARK  status: ('A' for Active; 'I' for Inactive)
REMARK    1  A    between atoms: C_1  and  C_2
REMARK    2  A    between atoms: C_2  and  C_3
REMARK    3  A    between atoms: C_2  and  N_13
REMARK    4  A    between atoms: C_3  and  C_4
REMARK    5  A    between atoms: C_7  and  C_8
REMARK    6  A    between atoms: N_13  and  C_14
REMARK    7  A    between atoms: C_18  and  C_19
REMARK    8  A    between atoms: C_24  and  O_25
REMARK    9  A    between atoms: O_25  and  C_26
REMARK                            x       y       z     vdW  Elec       q    Type
REMARK                         _______ _______ _______ _____ _____    ______ ____
ROOT
ATOM      1  C   UNL     1      45.592   5.538  12.866  0.00  0.00    +0.000 A 
ATOM      2  C   UNL     1      46.376   6.506  12.236  0.00  0.00    +0.000 A 
ATOM      3  C   UNL     1      47.627   6.841  12.739  0.00  0.00    +0.000 A 
ATOM      4  C   UNL     1      48.113   6.203  13.880  0.00  0.00    +0.000 A 
ATOM      5  C   UNL     1      47.353   5.244  14.584  0.00  0.00    +0.000 A 
ATOM      6  C   UNL     1      46.108   4.898  14.015  0.00  0.00    +0.000 A 
ENDROOT
BRANCH   5   7
ATOM      7  C   UNL     1      47.806   4.760  15.928  0.00  0.00    +0.000 A 
ATOM      8  C   UNL     1      47.583   3.393  16.239  0.00  0.00    +0.000 A 
ATOM      9  C   UNL     1      48.019   2.807  17.426  0.00  0.00    +0.000 A 
ATOM     10  C   UNL     1      48.768   3.551  18.315  0.00  0.00    +0.000 A 
ATOM     11  C   UNL     1      49.029   4.894  18.035  0.00  0.00    +0.000 A 
ATOM     12  C   UNL     1      48.493   5.527  16.903  0.00  0.00    +0.000 A 
BRANCH  12  13
ATOM     13  O   UNL     1      48.615   6.872  16.692  0.00  0.00    +0.000 OA
BRANCH  13  14
ATOM     14  C   UNL     1      49.917   7.447  16.557  0.00  0.00    +0.000 C 
ATOM     15  F   UNL     1      50.489   7.815  17.724  0.00  0.00    +0.000 F 
ATOM     16  F   UNL     1      50.733   6.575  15.927  0.00  0.00    +0.000 F 
ATOM     17  F   UNL     1      49.820   8.559  15.793  0.00  0.00    +0.000 F 
ENDBRANCH  13  14
ENDBRANCH  12  13
ENDBRANCH   5   7
BRANCH   1  18
ATOM     18  N   UNL     1      44.383   5.066  12.327  0.00  0.00    +0.000 N 
ATOM     19  H   UNL     1      43.673   5.113  13.058  0.00  0.00    +0.000 HD
BRANCH  18  21
ATOM     20  C   UNL     1      43.359   2.848  12.315  0.00  0.00    +0.000 C 
ATOM     21  C   UNL     1      44.362   3.769  11.612  0.00  0.00    +0.000 C 
BRANCH  21  22
ATOM     22  C   UNL     1      43.979   4.036  10.140  0.00  0.00    +0.000 C 
BRANCH  22  23
ATOM     23  C   UNL     1      44.837   3.390   9.074  0.00  0.00    +0.000 A 
ATOM     24  C   UNL     1      45.421   4.179   8.072  0.00  0.00    +0.000 A 
ATOM     25  C   UNL     1      46.322   3.620   7.162  0.00  0.00    +0.000 A 
ATOM     26  C   UNL     1      46.658   2.265   7.243  0.00  0.00    +0.000 A 
ATOM     27  C   UNL     1      46.046   1.462   8.213  0.00  0.00    +0.000 A 
ATOM     28  C   UNL     1      45.140   2.023   9.122  0.00  0.00    +0.000 A 
BRANCH  26  29
ATOM     29  C   UNL     1      47.665   1.729   6.287  0.00  0.00    +0.000 C 
ATOM     30  N   UNL     1      48.854   2.390   6.186  0.00  0.00    +0.000 N 
ATOM     31  O   UNL     1      47.428   0.753   5.582  0.00  0.00    +0.000 OA
ATOM     32  H   UNL     1      49.008   3.312   6.569  0.00  0.00    +0.000 HD
ATOM     33  H   UNL     1      49.479   2.079   5.452  0.00  0.00    +0.000 HD
ENDBRANCH  26  29
ENDBRANCH  22  23
ENDBRANCH  21  22
ENDBRANCH  18  21
ENDBRANCH   1  18
TORSDOF 8
ENDMDL
MODEL 6
REMARK VINA RESULT:    -7.777      2.261      3.582
REMARK INTER + INTRA:         -12.883
REMARK INTER:                 -11.223
REMARK INTRA:                  -1.660
REMARK UNBOUND:                -1.469
REMARK  Name = 
REMARK  9 active torsions:
REMARK  status: ('A' for Active; 'I' for Inactive)
REMARK    1  A    between atoms: C_1  and  C_2
REMARK    2  A    between atoms: C_2  and  C_3
REMARK    3  A    between atoms: C_2  and  N_13
REMARK    4  A    between atoms: C_3  and  C_4
REMARK    5  A    between atoms: C_7  and  C_8
REMARK    6  A    between atoms: N_13  and  C_14
REMARK    7  A    between atoms: C_18  and  C_19
REMARK    8  A    between atoms: C_24  and  O_25
REMARK    9  A    between atoms: O_25  and  C_26
REMARK                            x       y       z     vdW  Elec       q    Type
REMARK                         _______ _______ _______ _____ _____    ______ ____
ROOT
ATOM      1  C   UNL     1      46.279   3.839  13.089  0.00  0.00    +0.000 A 
ATOM      2  C   UNL     1      46.749   3.463  14.349  0.00  0.00    +0.000 A 
ATOM      3  C   UNL     1      47.385   4.384  15.171  0.00  0.00    +0.000 A 
ATOM      4  C   UNL     1      47.554   5.700  14.743  0.00  0.00    +0.000 A 
ATOM      5  C   UNL     1      47.135   6.133  13.467  0.00  0.00    +0.000 A 
ATOM      6  C   UNL     1      46.452   5.181  12.680  0.00  0.00    +0.000 A 
ENDROOT
BRANCH   5   7
ATOM      7  C   UNL     1      47.544   7.481  12.954  0.00  0.00    +0.000 A 
ATOM      8  C   UNL     1      48.933   7.769  12.910  0.00  0.00    +0.000 A 
ATOM      9  C   UNL     1      49.443   8.958  12.391  0.00  0.00    +0.000 A 
ATOM     10  C   UNL     1      48.581   9.874  11.822  0.00  0.00    +0.000 A 
ATOM     11  C   UNL     1      47.208   9.618  11.826  0.00  0.00    +0.000 A 
ATOM     12  C   UNL     1      46.674   8.483  12.453  0.00  0.00    +0.000 A 
BRANCH  12  13
ATOM     13  O   UNL     1      45.328   8.292  12.594  0.00  0.00    +0.000 OA
BRANCH  13  14
ATOM     14  C   UNL     1      44.543   7.946  11.451  0.00  0.00    +0.000 C 
ATOM     15  F   UNL     1      43.975   8.998  10.824  0.00  0.00    +0.000 F 
ATOM     16  F   UNL     1      45.307   7.271  10.566  0.00  0.00    +0.000 F 
ATOM     17  F   UNL     1      43.539   7.130  11.847  0.00  0.00    +0.000 F 
ENDBRANCH  13  14
ENDBRANCH  12  13
ENDBRANCH   5   7
BRANCH   1  18
ATOM     18  N   UNL     1      45.512   2.988  12.275  0.00  0.00    +0.000 N 
ATOM     19  H   UNL     1      45.982   2.910  11.372  0.00  0.00    +0.000 HD
BRANCH  18  21
ATOM     20  C   UNL     1      43.610   4.154  13.270  0.00  0.00    +0.000 C 
ATOM     21  C   UNL     1      44.059   3.235  12.129  0.00  0.00    +0.000 C 
BRANCH  21  22
ATOM     22  C   UNL     1      43.815   3.866  10.740  0.00  0.00    +0.000 C 
BRANCH  22  23
ATOM     23  C   UNL     1      44.812   3.540   9.649  0.00  0.00    +0.000 A 
ATOM     24  C   UNL     1      45.055   2.204   9.299  0.00  0.00    +0.000 A 
ATOM     25  C   UNL     1      45.868   1.891   8.207  0.00  0.00    +0.000 A 
ATOM     26  C   UNL     1      46.447   2.910   7.443  0.00  0.00    +0.000 A 
ATOM     27  C   UNL     1      46.244   4.246   7.813  0.00  0.00    +0.000 A 
ATOM     28  C   UNL     1      45.432   4.556   8.911  0.00  0.00    +0.000 A 
BRANCH  26  29
ATOM     29  C   UNL     1      47.259   2.528   6.256  0.00  0.00    +0.000 C 
ATOM     30  N   UNL     1      48.615   2.493   6.404  0.00  0.00    +0.000 N 
ATOM     31  O   UNL     1      46.739   2.290   5.171  0.00  0.00    +0.000 OA
ATOM     32  H   UNL     1      49.095   2.893   7.197  0.00  0.00    +0.000 HD
ATOM     33  H   UNL     1      49.154   2.342   5.559  0.00  0.00    +0.000 HD
ENDBRANCH  26  29
ENDBRANCH  22  23
ENDBRANCH  21  22
ENDBRANCH  18  21
ENDBRANCH   1  18
TORSDOF 8
ENDMDL
MODEL 7
REMARK VINA RESULT:    -7.616      2.916      4.297
REMARK INTER + INTRA:         -12.646
REMARK INTER:                 -11.653
REMARK INTRA:                  -0.993
REMARK UNBOUND:                -1.469
REMARK  Name = 
REMARK  9 active torsions:
REMARK  status: ('A' for Active; 'I' for Inactive)
REMARK    1  A    between atoms: C_1  and  C_2
REMARK    2  A    between atoms: C_2  and  C_3
REMARK    3  A    between atoms: C_2  and  N_13
REMARK    4  A    between atoms: C_3  and  C_4
REMARK    5  A    between atoms: C_7  and  C_8
REMARK    6  A    between atoms: N_13  and  C_14
REMARK    7  A    between atoms: C_18  and  C_19
REMARK    8  A    between atoms: C_24  and  O_25
REMARK    9  A    between atoms: O_25  and  C_26
REMARK                            x       y       z     vdW  Elec       q    Type
REMARK                         _______ _______ _______ _____ _____    ______ ____
ROOT
ATOM      1  C   UNL     1      45.477   6.068  12.459  0.00  0.00    +0.000 A 
ATOM      2  C   UNL     1      46.479   5.489  13.240  0.00  0.00    +0.000 A 
ATOM      3  C   UNL     1      47.549   6.249  13.694  0.00  0.00    +0.000 A 
ATOM      4  C   UNL     1      47.628   7.604  13.374  0.00  0.00    +0.000 A 
ATOM      5  C   UNL     1      46.668   8.238  12.557  0.00  0.00    +0.000 A 
ATOM      6  C   UNL     1      45.572   7.445  12.155  0.00  0.00    +0.000 A 
ENDROOT
BRANCH   5   7
ATOM      7  C   UNL     1      46.911   9.625  12.044  0.00  0.00    +0.000 A 
ATOM      8  C   UNL     1      48.245   9.974  11.711  0.00  0.00    +0.000 A 
ATOM      9  C   UNL     1      48.590  11.207  11.161  0.00  0.00    +0.000 A 
ATOM     10  C   UNL     1      47.596  12.112  10.847  0.00  0.00    +0.000 A 
ATOM     11  C   UNL     1      46.266  11.797  11.138  0.00  0.00    +0.000 A 
ATOM     12  C   UNL     1      45.920  10.611  11.802  0.00  0.00    +0.000 A 
BRANCH  12  13
ATOM     13  O   UNL     1      44.645  10.356  12.225  0.00  0.00    +0.000 OA
BRANCH  13  14
ATOM     14  C   UNL     1      43.564  10.453  11.296  0.00  0.00    +0.000 C 
ATOM     15  F   UNL     1      43.831  11.200  10.203  0.00  0.00    +0.000 F 
ATOM     16  F   UNL     1      43.197   9.215  10.899  0.00  0.00    +0.000 F 
ATOM     17  F   UNL     1      42.508  11.023  11.920  0.00  0.00    +0.000 F 
ENDBRANCH  13  14
ENDBRANCH  12  13
ENDBRANCH   5   7
BRANCH   1  18
ATOM     18  N   UNL     1      44.307   5.383  12.088  0.00  0.00    +0.000 N 
ATOM     19  H   UNL     1      43.618   5.513  12.829  0.00  0.00    +0.000 HD
BRANCH  18  21
ATOM     20  C   UNL     1      43.490   3.129  12.557  0.00  0.00    +0.000 C 
ATOM     21  C   UNL     1      44.399   3.970  11.653  0.00  0.00    +0.000 C 
BRANCH  21  22
ATOM     22  C   UNL     1      43.978   3.894  10.169  0.00  0.00    +0.000 C 
BRANCH  22  23
ATOM     23  C   UNL     1      44.997   3.353   9.189  0.00  0.00    +0.000 A 
ATOM     24  C   UNL     1      45.238   1.973   9.120  0.00  0.00    +0.000 A 
ATOM     25  C   UNL     1      46.073   1.445   8.133  0.00  0.00    +0.000 A 
ATOM     26  C   UNL     1      46.678   2.288   7.195  0.00  0.00    +0.000 A 
ATOM     27  C   UNL     1      46.476   3.672   7.284  0.00  0.00    +0.000 A 
ATOM     28  C   UNL     1      45.641   4.199   8.277  0.00  0.00    +0.000 A 
BRANCH  26  29
ATOM     29  C   UNL     1      47.514   1.674   6.129  0.00  0.00    +0.000 C 
ATOM     30  N   UNL     1      48.446   2.464   5.523  0.00  0.00    +0.000 N 
ATOM     31  O   UNL     1      47.352   0.510   5.774  0.00  0.00    +0.000 OA
ATOM     32  H   UNL     1      48.464   3.469   5.618  0.00  0.00    +0.000 HD
ATOM     33  H   UNL     1      48.926   2.062   4.726  0.00  0.00    +0.000 HD
ENDBRANCH  26  29
ENDBRANCH  22  23
ENDBRANCH  21  22
ENDBRANCH  18  21
ENDBRANCH   1  18
TORSDOF 8
ENDMDL
MODEL 8
REMARK VINA RESULT:    -7.614      2.197      3.772
REMARK INTER + INTRA:         -12.643
REMARK INTER:                 -11.914
REMARK INTRA:                  -0.729
REMARK UNBOUND:                -1.469
REMARK  Name = 
REMARK  9 active torsions:
REMARK  status: ('A' for Active; 'I' for Inactive)
REMARK    1  A    between atoms: C_1  and  C_2
REMARK    2  A    between atoms: C_2  and  C_3
REMARK    3  A    between atoms: C_2  and  N_13
REMARK    4  A    between atoms: C_3  and  C_4
REMARK    5  A    between atoms: C_7  and  C_8
REMARK    6  A    between atoms: N_13  and  C_14
REMARK    7  A    between atoms: C_18  and  C_19
REMARK    8  A    between atoms: C_24  and  O_25
REMARK    9  A    between atoms: O_25  and  C_26
REMARK                            x       y       z     vdW  Elec       q    Type
REMARK                         _______ _______ _______ _____ _____    ______ ____
ROOT
ATOM      1  C   UNL     1      46.082   4.099  12.845  0.00  0.00    +0.000 A 
ATOM      2  C   UNL     1      46.870   3.902  13.980  0.00  0.00    +0.000 A 
ATOM      3  C   UNL     1      47.396   4.985  14.673  0.00  0.00    +0.000 A 
ATOM      4  C   UNL     1      47.134   6.284  14.239  0.00  0.00    +0.000 A 
ATOM      5  C   UNL     1      46.377   6.548  13.077  0.00  0.00    +0.000 A 
ATOM      6  C   UNL     1      45.821   5.425  12.429  0.00  0.00    +0.000 A 
ENDROOT
BRANCH   5   7
ATOM      7  C   UNL     1      46.317   7.936  12.514  0.00  0.00    +0.000 A 
ATOM      8  C   UNL     1      45.066   8.385  12.016  0.00  0.00    +0.000 A 
ATOM      9  C   UNL     1      44.865   9.676  11.530  0.00  0.00    +0.000 A 
ATOM     10  C   UNL     1      45.893  10.594  11.599  0.00  0.00    +0.000 A 
ATOM     11  C   UNL     1      47.134  10.198  12.103  0.00  0.00    +0.000 A 
ATOM     12  C   UNL     1      47.384   8.870  12.482  0.00  0.00    +0.000 A 
BRANCH  12  13
ATOM     13  O   UNL     1      48.629   8.434  12.837  0.00  0.00    +0.000 OA
BRANCH  13  14
ATOM     14  C   UNL     1      49.432   7.743  11.877  0.00  0.00    +0.000 C 
ATOM     15  F   UNL     1      50.556   8.396  11.514  0.00  0.00    +0.000 F 
ATOM     16  F   UNL     1      49.770   6.528  12.361  0.00  0.00    +0.000 F 
ATOM     17  F   UNL     1      48.699   7.558  10.755  0.00  0.00    +0.000 F 
ENDBRANCH  13  14
ENDBRANCH  12  13
ENDBRANCH   5   7
BRANCH   1  18
ATOM     18  N   UNL     1      45.416   3.051  12.187  0.00  0.00    +0.000 N 
ATOM     19  H   UNL     1      45.986   2.767  11.390  0.00  0.00    +0.000 HD
BRANCH  18  21
ATOM     20  C   UNL     1      43.292   3.994  12.941  0.00  0.00    +0.000 C 
ATOM     21  C   UNL     1      43.989   3.210  11.823  0.00  0.00    +0.000 C 
BRANCH  21  22
ATOM     22  C   UNL     1      43.917   3.941  10.465  0.00  0.00    +0.000 C 
BRANCH  22  23
ATOM     23  C   UNL     1      44.770   3.395   9.340  0.00  0.00    +0.000 A 
ATOM     24  C   UNL     1      45.388   4.275   8.439  0.00  0.00    +0.000 A 
ATOM     25  C   UNL     1      46.284   3.797   7.480  0.00  0.00    +0.000 A 
ATOM     26  C   UNL     1      46.581   2.432   7.409  0.00  0.00    +0.000 A 
ATOM     27  C   UNL     1      45.935   1.542   8.277  0.00  0.00    +0.000 A 
ATOM     28  C   UNL     1      45.034   2.023   9.235  0.00  0.00    +0.000 A 
BRANCH  26  29
ATOM     29  C   UNL     1      47.584   1.979   6.408  0.00  0.00    +0.000 C 
ATOM     30  N   UNL     1      48.797   2.604   6.402  0.00  0.00    +0.000 N 
ATOM     31  O   UNL     1      47.325   1.103   5.589  0.00  0.00    +0.000 OA
ATOM     32  H   UNL     1      48.977   3.467   6.895  0.00  0.00    +0.000 HD
ATOM     33  H   UNL     1      49.423   2.361   5.643  0.00  0.00    +0.000 HD
ENDBRANCH  26  29
ENDBRANCH  22  23
ENDBRANCH  21  22
ENDBRANCH  18  21
ENDBRANCH   1  18
TORSDOF 8
ENDMDL
MODEL 9
REMARK VINA RESULT:    -7.321      3.501      5.896
REMARK INTER + INTRA:         -12.214
REMARK INTER:                  -9.986
REMARK INTRA:                  -2.228
REMARK UNBOUND:                -1.469
REMARK  Name = 
REMARK  9 active torsions:
REMARK  status: ('A' for Active; 'I' for Inactive)
REMARK    1  A    between atoms: C_1  and  C_2
REMARK    2  A    between atoms: C_2  and  C_3
REMARK    3  A    between atoms: C_2  and  N_13
REMARK    4  A    between atoms: C_3  and  C_4
REMARK    5  A    between atoms: C_7  and  C_8
REMARK    6  A    between atoms: N_13  and  C_14
REMARK    7  A    between atoms: C_18  and  C_19
REMARK    8  A    between atoms: C_24  and  O_25
REMARK    9  A    between atoms: O_25  and  C_26
REMARK                            x       y       z     vdW  Elec       q    Type
REMARK                         _______ _______ _______ _____ _____    ______ ____
ROOT
ATOM      1  C   UNL     1      49.196   7.724  16.090  0.00  0.00    +0.000 A 
ATOM      2  C   UNL     1      48.578   8.181  17.255  0.00  0.00    +0.000 A 
ATOM      3  C   UNL     1      48.736   7.499  18.455  0.00  0.00    +0.000 A 
ATOM      4  C   UNL     1      49.524   6.349  18.504  0.00  0.00    +0.000 A 
ATOM      5  C   UNL     1      50.143   5.815  17.354  0.00  0.00    +0.000 A 
ATOM      6  C   UNL     1      49.997   6.562  16.166  0.00  0.00    +0.000 A 
ENDROOT
BRANCH   5   7
ATOM      7  C   UNL     1      50.779   4.458  17.400  0.00  0.00    +0.000 A 
ATOM      8  C   UNL     1      52.152   4.392  17.750  0.00  0.00    +0.000 A 
ATOM      9  C   UNL     1      52.840   3.188  17.894  0.00  0.00    +0.000 A 
ATOM     10  C   UNL     1      52.153   1.997  17.769  0.00  0.00    +0.000 A 
ATOM     11  C   UNL     1      50.794   2.019  17.447  0.00  0.00    +0.000 A 
ATOM     12  C   UNL     1      50.121   3.220  17.181  0.00  0.00    +0.000 A 
BRANCH  12  13
ATOM     13  O   UNL     1      48.834   3.251  16.723  0.00  0.00    +0.000 OA
BRANCH  13  14
ATOM     14  C   UNL     1      47.756   3.331  17.658  0.00  0.00    +0.000 C 
ATOM     15  F   UNL     1      48.141   3.382  18.951  0.00  0.00    +0.000 F 
ATOM     16  F   UNL     1      47.000   4.417  17.385  0.00  0.00    +0.000 F 
ATOM     17  F   UNL     1      46.979   2.233  17.517  0.00  0.00    +0.000 F 
ENDBRANCH  13  14
ENDBRANCH  12  13
ENDBRANCH   5   7
BRANCH   1  18
ATOM     18  N   UNL     1      49.181   8.445  14.885  0.00  0.00    +0.000 N 
ATOM     19  H   UNL     1      49.333   9.430  15.106  0.00  0.00    +0.000 HD
BRANCH  18  21
ATOM     20  C   UNL     1      47.860   9.560  13.158  0.00  0.00    +0.000 C 
ATOM     21  C   UNL     1      48.060   8.254  13.936  0.00  0.00    +0.000 C 
BRANCH  21  22
ATOM     22  C   UNL     1      48.409   7.069  13.010  0.00  0.00    +0.000 C 
BRANCH  22  23
ATOM     23  C   UNL     1      47.287   6.119  12.651  0.00  0.00    +0.000 A 
ATOM     24  C   UNL     1      46.956   5.067  13.517  0.00  0.00    +0.000 A 
ATOM     25  C   UNL     1      45.840   4.264  13.268  0.00  0.00    +0.000 A 
ATOM     26  C   UNL     1      45.034   4.504  12.151  0.00  0.00    +0.000 A 
ATOM     27  C   UNL     1      45.382   5.525  11.258  0.00  0.00    +0.000 A 
ATOM     28  C   UNL     1      46.503   6.326  11.508  0.00  0.00    +0.000 A 
BRANCH  26  29
ATOM     29  C   UNL     1      43.824   3.658  11.959  0.00  0.00    +0.000 C 
ATOM     30  N   UNL     1      43.839   2.404  12.495  0.00  0.00    +0.000 N 
ATOM     31  O   UNL     1      42.860   4.052  11.309  0.00  0.00    +0.000 OA
ATOM     32  H   UNL     1      44.679   1.959  12.836  0.00  0.00    +0.000 HD
ATOM     33  H   UNL     1      43.057   1.805  12.258  0.00  0.00    +0.000 HD
ENDBRANCH  26  29
ENDBRANCH  22  23
ENDBRANCH  21  22
ENDBRANCH  18  21
ENDBRANCH   1  18
TORSDOF 8
ENDMDL
