MODEL 1
REMARK VINA RESULT:    -8.165      0.000      0.000
REMARK INTER + INTRA:         -13.235
REMARK INTER:                 -12.222
REMARK INTRA:                  -1.012
REMARK UNBOUND:                -1.012
REMARK  Name = 
REMARK  9 active torsions:
REMARK  status: ('A' for Active; 'I' for Inactive)
REMARK    1  A    between atoms: C_2  and  C_22
REMARK    2  A    between atoms: N_3  and  C_4
REMARK    3  A    between atoms: C_4  and  C_5
REMARK    4  A    between atoms: C_8  and  C_9
REMARK    5  A    between atoms: C_9  and  N_10
REMARK    6  A    between atoms: N_10  and  C_11
REMARK    7  A    between atoms: N_10  and  C_14
REMARK    8  A    between atoms: C_11  and  C_12
REMARK    9  A    between atoms: C_12  and  O_13
REMARK                            x       y       z     vdW  Elec       q    Type
REMARK                         _______ _______ _______ _____ _____    ______ ____
ROOT
ATOM      1  C   UNL     1      46.583   7.834  12.628  0.00  0.00    +0.000 A 
ATOM      2  C   UNL     1      45.223   8.142  12.503  0.00  0.00    +0.000 A 
ATOM      3  C   UNL     1      44.398   7.415  11.637  0.00  0.00    +0.000 A 
ATOM      4  C   UNL     1      44.900   6.330  10.903  0.00  0.00    +0.000 A 
ATOM      5  C   UNL     1      46.285   6.098  10.934  0.00  0.00    +0.000 A 
ATOM      6  C   UNL     1      47.116   6.837  11.795  0.00  0.00    +0.000 A 
ENDROOT
BRANCH   1   7
ATOM      7  C   UNL     1      47.403   8.498  13.705  0.00  0.00    +0.000 C 
BRANCH   7  10
ATOM      8  O   UNL     1      49.935   7.331  14.273  0.00  0.00    +0.000 OA
ATOM      9  C   UNL     1      48.983   7.091  15.016  0.00  0.00    +0.000 C 
ATOM     10  N   UNL     1      47.721   7.566  14.768  0.00  0.00    +0.000 N 
ATOM     11  H   UNL     1      47.009   7.466  15.483  0.00  0.00    +0.000 HD
BRANCH   9  12
ATOM     12  C   UNL     1      49.138   6.231  16.202  0.00  0.00    +0.000 A 
ATOM     13  C   UNL     1      50.085   6.541  17.170  0.00  0.00    +0.000 A 
ATOM     14  S   UNL     1      50.130   5.437  18.470  0.00  0.00    +0.000 S 
ATOM     15  C   UNL     1      48.857   4.523  17.811  0.00  0.00    +0.000 A 
ATOM     16  N   UNL     1      48.371   3.431  18.462  0.00  0.00    +0.000 NA
ATOM     17  C   UNL     1      47.375   2.859  17.872  0.00  0.00    +0.000 A 
ATOM     18  N   UNL     1      46.830   3.272  16.686  0.00  0.00    +0.000 N 
ATOM     19  C   UNL     1      47.341   4.315  15.955  0.00  0.00    +0.000 A 
ATOM     20  O   UNL     1      46.918   4.563  14.829  0.00  0.00    +0.000 OA
ATOM     21  C   UNL     1      48.425   5.031  16.599  0.00  0.00    +0.000 A 
ATOM     22  H   UNL     1      46.071   2.762  16.260  0.00  0.00    +0.000 HD
ENDBRANCH   9  12
ENDBRANCH   7  10
ENDBRANCH   1   7
BRANCH   4  23
ATOM     23  C   UNL     1      43.931   5.327  10.290  0.00  0.00    +0.000 C 
BRANCH  23  24
ATOM     24  N   UNL     1      44.414   3.939  10.271  0.00  0.00    +0.000 N 
BRANCH  24  25
ATOM     25  C   UNL     1      45.153   3.448   9.185  0.00  0.00    +0.000 A 
ATOM     26  C   UNL     1      45.728   4.268   8.202  0.00  0.00    +0.000 A 
ATOM     27  C   UNL     1      46.528   3.742   7.179  0.00  0.00    +0.000 A 
ATOM     28  C   UNL     1      46.772   2.376   7.114  0.00  0.00    +0.000 A 
ATOM     29  C   UNL     1      46.210   1.536   8.067  0.00  0.00    +0.000 A 
ATOM     30  C   UNL     1      45.406   2.068   9.082  0.00  0.00    +0.000 A 
ENDBRANCH  24  25
BRANCH  24  31
ATOM     31  C   UNL     1      44.807   3.378  11.596  0.00  0.00    +0.000 C 
BRANCH  31  32
ATOM     32  C   UNL     1      43.628   2.852  12.445  0.00  0.00    +0.000 C 
BRANCH  32  33
ATOM     33  O   UNL     1      42.852   1.897  11.722  0.00  0.00    +0.000 OA
ATOM     34  H   UNL     1      43.482   1.374  11.194  0.00  0.00    +0.000 HD
ENDBRANCH  32  33
ENDBRANCH  31  32
ENDBRANCH  24  31
ENDBRANCH  23  24
ENDBRANCH   4  23
TORSDOF 9
ENDMDL
MODEL 2
REMARK VINA RESULT:    -7.669      2.559      3.202
REMARK INTER + INTRA:         -12.492
REMARK INTER:                 -11.302
REMARK INTRA:                  -1.191
REMARK UNBOUND:                -1.012
REMARK  Name = 
REMARK  9 active torsions:
REMARK  status: ('A' for Active; 'I' for Inactive)
REMARK    1  A    between atoms: C_2  and  C_22
REMARK    2  A    between atoms: N_3  and  C_4
REMARK    3  A    between atoms: C_4  and  C_5
REMARK    4  A    between atoms: C_8  and  C_9
REMARK    5  A    between atoms: C_9  and  N_10
REMARK    6  A    between atoms: N_10  and  C_11
REMARK    7  A    between atoms: N_10  and  C_14
REMARK    8  A    between atoms: C_11  and  C_12
REMARK    9  A    between atoms: C_12  and  O_13
REMARK                            x       y       z     vdW  Elec       q    Type
REMARK                         _______ _______ _______ _____ _____    ______ ____
ROOT
ATOM      1  C   UNL     1      47.779   5.799  14.661  0.00  0.00    +0.000 A 
ATOM      2  C   UNL     1      47.391   6.331  13.426  0.00  0.00    +0.000 A 
ATOM      3  C   UNL     1      46.556   5.611  12.562  0.00  0.00    +0.000 A 
ATOM      4  C   UNL     1      46.051   4.355  12.929  0.00  0.00    +0.000 A 
ATOM      5  C   UNL     1      46.535   3.769  14.110  0.00  0.00    +0.000 A 
ATOM      6  C   UNL     1      47.384   4.487  14.971  0.00  0.00    +0.000 A 
ENDROOT
BRANCH   1   7
ATOM      7  C   UNL     1      48.512   6.668  15.651  0.00  0.00    +0.000 C 
BRANCH   7  10
ATOM      8  O   UNL     1      48.936   6.045  18.395  0.00  0.00    +0.000 OA
ATOM      9  C   UNL     1      49.746   5.649  17.557  0.00  0.00    +0.000 C 
ATOM     10  N   UNL     1      49.641   5.966  16.227  0.00  0.00    +0.000 N 
ATOM     11  H   UNL     1      50.244   5.496  15.562  0.00  0.00    +0.000 HD
BRANCH   9  12
ATOM     12  C   UNL     1      50.916   4.844  17.949  0.00  0.00    +0.000 A 
ATOM     13  C   UNL     1      51.966   5.430  18.645  0.00  0.00    +0.000 A 
ATOM     14  S   UNL     1      53.237   4.353  19.013  0.00  0.00    +0.000 S 
ATOM     15  C   UNL     1      52.416   3.050  18.293  0.00  0.00    +0.000 A 
ATOM     16  N   UNL     1      52.952   1.799  18.295  0.00  0.00    +0.000 NA
ATOM     17  C   UNL     1      52.202   0.897  17.756  0.00  0.00    +0.000 A 
ATOM     18  N   UNL     1      50.971   1.134  17.206  0.00  0.00    +0.000 N 
ATOM     19  C   UNL     1      50.430   2.391  17.107  0.00  0.00    +0.000 A 
ATOM     20  O   UNL     1      49.393   2.584  16.477  0.00  0.00    +0.000 OA
ATOM     21  C   UNL     1      51.204   3.435  17.749  0.00  0.00    +0.000 A 
ATOM     22  H   UNL     1      50.447   0.390  16.770  0.00  0.00    +0.000 HD
ENDBRANCH   9  12
ENDBRANCH   7  10
ENDBRANCH   1   7
BRANCH   4  23
ATOM     23  C   UNL     1      44.858   3.779  12.176  0.00  0.00    +0.000 C 
BRANCH  23  24
ATOM     24  N   UNL     1      44.614   4.381  10.859  0.00  0.00    +0.000 N 
BRANCH  24  25
ATOM     25  C   UNL     1      45.144   3.806   9.694  0.00  0.00    +0.000 A 
ATOM     26  C   UNL     1      45.739   4.548   8.662  0.00  0.00    +0.000 A 
ATOM     27  C   UNL     1      46.329   3.927   7.554  0.00  0.00    +0.000 A 
ATOM     28  C   UNL     1      46.338   2.541   7.451  0.00  0.00    +0.000 A 
ATOM     29  C   UNL     1      45.749   1.778   8.451  0.00  0.00    +0.000 A 
ATOM     30  C   UNL     1      45.155   2.406   9.552  0.00  0.00    +0.000 A 
ENDBRANCH  24  25
BRANCH  24  31
ATOM     31  C   UNL     1      43.280   5.025  10.684  0.00  0.00    +0.000 C 
BRANCH  31  32
ATOM     32  C   UNL     1      43.083   6.323  11.498  0.00  0.00    +0.000 C 
BRANCH  32  33
ATOM     33  O   UNL     1      41.708   6.532  11.820  0.00  0.00    +0.000 OA
ATOM     34  H   UNL     1      41.425   5.755  12.333  0.00  0.00    +0.000 HD
ENDBRANCH  32  33
ENDBRANCH  31  32
ENDBRANCH  24  31
ENDBRANCH  23  24
ENDBRANCH   4  23
TORSDOF 9
ENDMDL
MODEL 3
REMARK VINA RESULT:    -7.548      2.833      3.165
REMARK INTER + INTRA:         -12.310
REMARK INTER:                 -10.970
REMARK INTRA:                  -1.340
REMARK UNBOUND:                -1.012
REMARK  Name = 
REMARK  9 active torsions:
REMARK  status: ('A' for Active; 'I' for Inactive)
REMARK    1  A    between atoms: C_2  and  C_22
REMARK    2  A    between atoms: N_3  and  C_4
REMARK    3  A    between atoms: C_4  and  C_5
REMARK    4  A    between atoms: C_8  and  C_9
REMARK    5  A    between atoms: C_9  and  N_10
REMARK    6  A    between atoms: N_10  and  C_11
REMARK    7  A    between atoms: N_10  and  C_14
REMARK    8  A    between atoms: C_11  and  C_12
REMARK    9  A    between atoms: C_12  and  O_13
REMARK                            x       y       z     vdW  Elec       q    Type
REMARK                         _______ _______ _______ _____ _____    ______ ____
ROOT
ATOM      1  C   UNL     1      47.409   7.866  13.600  0.00  0.00    +0.000 A 
ATOM      2  C   UNL     1      46.368   7.907  12.665  0.00  0.00    +0.000 A 
ATOM      3  C   UNL     1      45.818   6.728  12.148  0.00  0.00    +0.000 A 
ATOM      4  C   UNL     1      46.265   5.472  12.584  0.00  0.00    +0.000 A 
ATOM      5  C   UNL     1      47.388   5.428  13.427  0.00  0.00    +0.000 A 
ATOM      6  C   UNL     1      47.948   6.614  13.937  0.00  0.00    +0.000 A 
ENDROOT
BRANCH   1   7
ATOM      7  C   UNL     1      47.848   9.135  14.285  0.00  0.00    +0.000 C 
BRANCH   7  10
ATOM      8  O   UNL     1      49.362  10.464  16.294  0.00  0.00    +0.000 OA
ATOM      9  C   UNL     1      48.408   9.761  16.628  0.00  0.00    +0.000 C 
ATOM     10  N   UNL     1      47.675   9.041  15.721  0.00  0.00    +0.000 N 
ATOM     11  H   UNL     1      46.814   8.599  16.025  0.00  0.00    +0.000 HD
BRANCH   9  12
ATOM     12  C   UNL     1      48.027   9.614  18.043  0.00  0.00    +0.000 A 
ATOM     13  C   UNL     1      47.655  10.729  18.785  0.00  0.00    +0.000 A 
ATOM     14  S   UNL     1      47.249  10.376  20.404  0.00  0.00    +0.000 S 
ATOM     15  C   UNL     1      47.513   8.713  20.167  0.00  0.00    +0.000 A 
ATOM     16  N   UNL     1      47.305   7.822  21.174  0.00  0.00    +0.000 NA
ATOM     17  C   UNL     1      47.498   6.589  20.843  0.00  0.00    +0.000 A 
ATOM     18  N   UNL     1      47.892   6.169  19.601  0.00  0.00    +0.000 N 
ATOM     19  C   UNL     1      48.194   7.037  18.582  0.00  0.00    +0.000 A 
ATOM     20  O   UNL     1      48.683   6.631  17.531  0.00  0.00    +0.000 OA
ATOM     21  C   UNL     1      47.938   8.432  18.881  0.00  0.00    +0.000 A 
ATOM     22  H   UNL     1      48.057   5.191  19.414  0.00  0.00    +0.000 HD
ENDBRANCH   9  12
ENDBRANCH   7  10
ENDBRANCH   1   7
BRANCH   4  23
ATOM     23  C   UNL     1      45.409   4.239  12.322  0.00  0.00    +0.000 C 
BRANCH  23  24
ATOM     24  N   UNL     1      44.586   4.311  11.106  0.00  0.00    +0.000 N 
BRANCH  24  25
ATOM     25  C   UNL     1      45.056   3.801   9.887  0.00  0.00    +0.000 A 
ATOM     26  C   UNL     1      45.579   4.601   8.860  0.00  0.00    +0.000 A 
ATOM     27  C   UNL     1      46.114   4.044   7.691  0.00  0.00    +0.000 A 
ATOM     28  C   UNL     1      46.136   2.665   7.520  0.00  0.00    +0.000 A 
ATOM     29  C   UNL     1      45.616   1.845   8.514  0.00  0.00    +0.000 A 
ATOM     30  C   UNL     1      45.078   2.410   9.677  0.00  0.00    +0.000 A 
ENDBRANCH  24  25
BRANCH  24  31
ATOM     31  C   UNL     1      43.116   4.168  11.317  0.00  0.00    +0.000 C 
BRANCH  31  32
ATOM     32  C   UNL     1      42.426   5.422  11.896  0.00  0.00    +0.000 C 
BRANCH  32  33
ATOM     33  O   UNL     1      42.481   5.435  13.322  0.00  0.00    +0.000 OA
ATOM     34  H   UNL     1      41.875   6.139  13.614  0.00  0.00    +0.000 HD
ENDBRANCH  32  33
ENDBRANCH  31  32
ENDBRANCH  24  31
ENDBRANCH  23  24
ENDBRANCH   4  23
TORSDOF 9
ENDMDL
MODEL 4
REMARK VINA RESULT:    -7.473      2.301      2.946
REMARK INTER + INTRA:         -12.199
REMARK INTER:                 -10.901
REMARK INTRA:                  -1.297
REMARK UNBOUND:                -1.012
REMARK  Name = 
REMARK  9 active torsions:
REMARK  status: ('A' for Active; 'I' for Inactive)
REMARK    1  A    between atoms: C_2  and  C_22
REMARK    2  A    between atoms: N_3  and  C_4
REMARK    3  A    between atoms: C_4  and  C_5
REMARK    4  A    between atoms: C_8  and  C_9
REMARK    5  A    between atoms: C_9  and  N_10
REMARK    6  A    between atoms: N_10  and  C_11
REMARK    7  A    between atoms: N_10  and  C_14
REMARK    8  A    between atoms: C_11  and  C_12
REMARK    9  A    between atoms: C_12  and  O_13
REMARK                            x       y       z     vdW  Elec       q    Type
REMARK                         _______ _______ _______ _____ _____    ______ ____
ROOT
ATOM      1  C   UNL     1      48.059   6.353  14.318  0.00  0.00    +0.000 A 
ATOM      2  C   UNL     1      47.576   5.237  15.011  0.00  0.00    +0.000 A 
ATOM      3  C   UNL     1      46.585   4.418  14.456  0.00  0.00    +0.000 A 
ATOM      4  C   UNL     1      46.078   4.670  13.173  0.00  0.00    +0.000 A 
ATOM      5  C   UNL     1      46.471   5.854  12.529  0.00  0.00    +0.000 A 
ATOM      6  C   UNL     1      47.458   6.683  13.093  0.00  0.00    +0.000 A 
ENDROOT
BRANCH   1   7
ATOM      7  C   UNL     1      49.257   7.100  14.847  0.00  0.00    +0.000 C 
BRANCH   7  10
ATOM      8  O   UNL     1      51.062   5.725  16.564  0.00  0.00    +0.000 OA
ATOM      9  C   UNL     1      50.211   6.466  17.056  0.00  0.00    +0.000 C 
ATOM     10  N   UNL     1      49.269   7.109  16.295  0.00  0.00    +0.000 N 
ATOM     11  H   UNL     1      48.690   7.819  16.729  0.00  0.00    +0.000 HD
BRANCH   9  12
ATOM     12  C   UNL     1      50.127   6.668  18.513  0.00  0.00    +0.000 A 
ATOM     13  C   UNL     1      51.172   7.278  19.195  0.00  0.00    +0.000 A 
ATOM     14  S   UNL     1      50.908   7.428  20.874  0.00  0.00    +0.000 S 
ATOM     15  C   UNL     1      49.366   6.721  20.750  0.00  0.00    +0.000 A 
ATOM     16  N   UNL     1      48.573   6.580  21.846  0.00  0.00    +0.000 NA
ATOM     17  C   UNL     1      47.411   6.071  21.602  0.00  0.00    +0.000 A 
ATOM     18  N   UNL     1      46.978   5.680  20.363  0.00  0.00    +0.000 N 
ATOM     19  C   UNL     1      47.774   5.726  19.247  0.00  0.00    +0.000 A 
ATOM     20  O   UNL     1      47.402   5.232  18.185  0.00  0.00    +0.000 OA
ATOM     21  C   UNL     1      49.069   6.344  19.452  0.00  0.00    +0.000 A 
ATOM     22  H   UNL     1      46.069   5.259  20.243  0.00  0.00    +0.000 HD
ENDBRANCH   9  12
ENDBRANCH   7  10
ENDBRANCH   1   7
BRANCH   4  23
ATOM     23  C   UNL     1      45.315   3.572  12.441  0.00  0.00    +0.000 C 
BRANCH  23  24
ATOM     24  N   UNL     1      44.592   4.022  11.243  0.00  0.00    +0.000 N 
BRANCH  24  25
ATOM     25  C   UNL     1      45.056   3.704   9.959  0.00  0.00    +0.000 A 
ATOM     26  C   UNL     1      45.539   4.657   9.049  0.00  0.00    +0.000 A 
ATOM     27  C   UNL     1      46.071   4.287   7.807  0.00  0.00    +0.000 A 
ATOM     28  C   UNL     1      46.131   2.947   7.443  0.00  0.00    +0.000 A 
ATOM     29  C   UNL     1      45.652   1.980   8.317  0.00  0.00    +0.000 A 
ATOM     30  C   UNL     1      45.117   2.358   9.554  0.00  0.00    +0.000 A 
ENDBRANCH  24  25
BRANCH  24  31
ATOM     31  C   UNL     1      43.106   4.076  11.373  0.00  0.00    +0.000 C 
BRANCH  31  32
ATOM     32  C   UNL     1      42.551   5.443  11.828  0.00  0.00    +0.000 C 
BRANCH  32  33
ATOM     33  O   UNL     1      42.668   5.607  13.242  0.00  0.00    +0.000 OA
ATOM     34  H   UNL     1      43.621   5.656  13.435  0.00  0.00    +0.000 HD
ENDBRANCH  32  33
ENDBRANCH  31  32
ENDBRANCH  24  31
ENDBRANCH  23  24
ENDBRANCH   4  23
TORSDOF 9
ENDMDL
MODEL 5
REMARK VINA RESULT:    -7.378      2.586      3.465
REMARK INTER + INTRA:         -12.057
REMARK INTER:                 -10.709
REMARK INTRA:                  -1.348
REMARK UNBOUND:                -1.012
REMARK  Name = 
REMARK  9 active torsions:
REMARK  status: ('A' for Active; 'I' for Inactive)
REMARK    1  A    between atoms: C_2  and  C_22
REMARK    2  A    between atoms: N_3  and  C_4
REMARK    3  A    between atoms: C_4  and  C_5
REMARK    4  A    between atoms: C_8  and  C_9
REMARK    5  A    between atoms: C_9  and  N_10
REMARK    6  A    between atoms: N_10  and  C_11
REMARK    7  A    between atoms: N_10  and  C_14
REMARK    8  A    between atoms: C_11  and  C_12
REMARK    9  A    between atoms: C_12  and  O_13
REMARK                            x       y       z     vdW  Elec       q    Type
REMARK                         _______ _______ _______ _____ _____    ______ ____
ROOT
ATOM      1  C   UNL     1      48.193   6.507  13.338  0.00  0.00    +0.000 A 
ATOM      2  C   UNL     1      48.236   7.037  12.044  0.00  0.00    +0.000 A 
ATOM      3  C   UNL     1      47.181   6.830  11.146  0.00  0.00    +0.000 A 
ATOM      4  C   UNL     1      46.034   6.122  11.533  0.00  0.00    +0.000 A 
ATOM      5  C   UNL     1      46.042   5.488  12.786  0.00  0.00    +0.000 A 
ATOM      6  C   UNL     1      47.108   5.686  13.683  0.00  0.00    +0.000 A 
ENDROOT
BRANCH   1   7
ATOM      7  C   UNL     1      49.244   6.907  14.344  0.00  0.00    +0.000 C 
BRANCH   7  10
ATOM      8  O   UNL     1      50.154   5.553  16.674  0.00  0.00    +0.000 OA
ATOM      9  C   UNL     1      49.219   6.347  16.768  0.00  0.00    +0.000 C 
ATOM     10  N   UNL     1      48.686   6.986  15.678  0.00  0.00    +0.000 N 
ATOM     11  H   UNL     1      48.021   7.737  15.826  0.00  0.00    +0.000 HD
BRANCH   9  12
ATOM     12  C   UNL     1      48.579   6.622  18.067  0.00  0.00    +0.000 A 
ATOM     13  C   UNL     1      48.207   5.573  18.898  0.00  0.00    +0.000 A 
ATOM     14  S   UNL     1      47.479   6.073  20.358  0.00  0.00    +0.000 S 
ATOM     15  C   UNL     1      47.669   7.714  19.955  0.00  0.00    +0.000 A 
ATOM     16  N   UNL     1      47.275   8.694  20.813  0.00  0.00    +0.000 NA
ATOM     17  C   UNL     1      47.521   9.893  20.401  0.00  0.00    +0.000 A 
ATOM     18  N   UNL     1      48.113  10.200  19.206  0.00  0.00    +0.000 N 
ATOM     19  C   UNL     1      48.449   9.249  18.276  0.00  0.00    +0.000 A 
ATOM     20  O   UNL     1      48.843   9.571  17.157  0.00  0.00    +0.000 OA
ATOM     21  C   UNL     1      48.249   7.880  18.710  0.00  0.00    +0.000 A 
ATOM     22  H   UNL     1      48.249  11.160  18.927  0.00  0.00    +0.000 HD
ENDBRANCH   9  12
ENDBRANCH   7  10
ENDBRANCH   1   7
BRANCH   4  23
ATOM     23  C   UNL     1      44.762   6.245  10.704  0.00  0.00    +0.000 C 
BRANCH  23  24
ATOM     24  N   UNL     1      44.180   4.965  10.278  0.00  0.00    +0.000 N 
BRANCH  24  25
ATOM     25  C   UNL     1      44.915   4.064   9.496  0.00  0.00    +0.000 A 
ATOM     26  C   UNL     1      44.884   2.672   9.677  0.00  0.00    +0.000 A 
ATOM     27  C   UNL     1      45.570   1.802   8.820  0.00  0.00    +0.000 A 
ATOM     28  C   UNL     1      46.309   2.305   7.757  0.00  0.00    +0.000 A 
ATOM     29  C   UNL     1      46.368   3.678   7.556  0.00  0.00    +0.000 A 
ATOM     30  C   UNL     1      45.685   4.542   8.420  0.00  0.00    +0.000 A 
ENDBRANCH  24  25
BRANCH  24  31
ATOM     31  C   UNL     1      43.248   4.328  11.254  0.00  0.00    +0.000 C 
BRANCH  31  32
ATOM     32  C   UNL     1      42.322   5.317  11.997  0.00  0.00    +0.000 C 
BRANCH  32  33
ATOM     33  O   UNL     1      42.583   5.319  13.400  0.00  0.00    +0.000 OA
ATOM     34  H   UNL     1      42.032   6.025  13.781  0.00  0.00    +0.000 HD
ENDBRANCH  32  33
ENDBRANCH  31  32
ENDBRANCH  24  31
ENDBRANCH  23  24
ENDBRANCH   4  23
TORSDOF 9
ENDMDL
MODEL 6
REMARK VINA RESULT:    -7.239      3.196      7.544
REMARK INTER + INTRA:         -11.848
REMARK INTER:                 -10.021
REMARK INTRA:                  -1.827
REMARK UNBOUND:                -1.012
REMARK  Name = 
REMARK  9 active torsions:
REMARK  status: ('A' for Active; 'I' for Inactive)
REMARK    1  A    between atoms: C_2  and  C_22
REMARK    2  A    between atoms: N_3  and  C_4
REMARK    3  A    between atoms: C_4  and  C_5
REMARK    4  A    between atoms: C_8  and  C_9
REMARK    5  A    between atoms: C_9  and  N_10
REMARK    6  A    between atoms: N_10  and  C_11
REMARK    7  A    between atoms: N_10  and  C_14
REMARK    8  A    between atoms: C_11  and  C_12
REMARK    9  A    between atoms: C_12  and  O_13
REMARK                            x       y       z     vdW  Elec       q    Type
REMARK                         _______ _______ _______ _____ _____    ______ ____
ROOT
ATOM      1  C   UNL     1      48.499   8.325  15.086  0.00  0.00    +0.000 A 
ATOM      2  C   UNL     1      49.346   7.233  14.861  0.00  0.00    +0.000 A 
ATOM      3  C   UNL     1      49.805   6.447  15.925  0.00  0.00    +0.000 A 
ATOM      4  C   UNL     1      49.394   6.706  17.241  0.00  0.00    +0.000 A 
ATOM      5  C   UNL     1      48.646   7.870  17.482  0.00  0.00    +0.000 A 
ATOM      6  C   UNL     1      48.196   8.666  16.413  0.00  0.00    +0.000 A 
ENDROOT
BRANCH   1   7
ATOM      7  C   UNL     1      47.865   9.031  13.914  0.00  0.00    +0.000 C 
BRANCH   7  10
ATOM      8  O   UNL     1      47.726   7.218  11.726  0.00  0.00    +0.000 OA
ATOM      9  C   UNL     1      46.723   7.408  12.412  0.00  0.00    +0.000 C 
ATOM     10  N   UNL     1      46.698   8.315  13.441  0.00  0.00    +0.000 N 
ATOM     11  H   UNL     1      45.900   8.327  14.066  0.00  0.00    +0.000 HD
BRANCH   9  12
ATOM     12  C   UNL     1      45.462   6.699  12.133  0.00  0.00    +0.000 A 
ATOM     13  C   UNL     1      44.380   7.385  11.593  0.00  0.00    +0.000 A 
ATOM     14  S   UNL     1      43.003   6.411  11.339  0.00  0.00    +0.000 S 
ATOM     15  C   UNL     1      43.811   5.024  11.901  0.00  0.00    +0.000 A 
ATOM     16  N   UNL     1      43.192   3.813  11.914  0.00  0.00    +0.000 NA
ATOM     17  C   UNL     1      43.935   2.839  12.321  0.00  0.00    +0.000 A 
ATOM     18  N   UNL     1      45.236   2.970  12.728  0.00  0.00    +0.000 N 
ATOM     19  C   UNL     1      45.872   4.183  12.811  0.00  0.00    +0.000 A 
ATOM     20  O   UNL     1      46.987   4.278  13.318  0.00  0.00    +0.000 OA
ATOM     21  C   UNL     1      45.102   5.305  12.310  0.00  0.00    +0.000 A 
ATOM     22  H   UNL     1      45.755   2.173  13.067  0.00  0.00    +0.000 HD
ENDBRANCH   9  12
ENDBRANCH   7  10
ENDBRANCH   1   7
BRANCH   4  23
ATOM     23  C   UNL     1      49.573   5.632  18.307  0.00  0.00    +0.000 C 
BRANCH  23  24
ATOM     24  N   UNL     1      49.520   4.252  17.803  0.00  0.00    +0.000 N 
BRANCH  24  25
ATOM     25  C   UNL     1      50.666   3.445  17.792  0.00  0.00    +0.000 A 
ATOM     26  C   UNL     1      51.922   3.870  18.252  0.00  0.00    +0.000 A 
ATOM     27  C   UNL     1      53.022   3.004  18.300  0.00  0.00    +0.000 A 
ATOM     28  C   UNL     1      52.892   1.684  17.885  0.00  0.00    +0.000 A 
ATOM     29  C   UNL     1      51.664   1.234  17.415  0.00  0.00    +0.000 A 
ATOM     30  C   UNL     1      50.572   2.107  17.365  0.00  0.00    +0.000 A 
ENDBRANCH  24  25
BRANCH  24  31
ATOM     31  C   UNL     1      48.246   3.522  18.064  0.00  0.00    +0.000 C 
BRANCH  31  32
ATOM     32  C   UNL     1      47.196   3.642  16.938  0.00  0.00    +0.000 C 
BRANCH  32  33
ATOM     33  O   UNL     1      47.720   3.192  15.688  0.00  0.00    +0.000 OA
ATOM     34  H   UNL     1      47.029   2.639  15.283  0.00  0.00    +0.000 HD
ENDBRANCH  32  33
ENDBRANCH  31  32
ENDBRANCH  24  31
ENDBRANCH  23  24
ENDBRANCH   4  23
TORSDOF 9
ENDMDL
MODEL 7
REMARK VINA RESULT:    -7.154      2.899      7.797
REMARK INTER + INTRA:         -11.722
REMARK INTER:                  -9.875
REMARK INTRA:                  -1.846
REMARK UNBOUND:                -1.012
REMARK  Name = 
REMARK  9 active torsions:
REMARK  status: ('A' for Active; 'I' for Inactive)
REMARK    1  A    between atoms: C_2  and  C_22
REMARK    2  A    between atoms: N_3  and  C_4
REMARK    3  A    between atoms: C_4  and  C_5
REMARK    4  A    between atoms: C_8  and  C_9
REMARK    5  A    between atoms: C_9  and  N_10
REMARK    6  A    between atoms: N_10  and  C_11
REMARK    7  A    between atoms: N_10  and  C_14
REMARK    8  A    between atoms: C_11  and  C_12
REMARK    9  A    between atoms: C_12  and  O_13
REMARK                            x       y       z     vdW  Elec       q    Type
REMARK                         _______ _______ _______ _____ _____    ______ ____
ROOT
ATOM      1  C   UNL     1      48.222   8.078  13.121  0.00  0.00    +0.000 A 
ATOM      2  C   UNL     1      49.436   7.388  13.220  0.00  0.00    +0.000 A 
ATOM      3  C   UNL     1      50.107   7.285  14.445  0.00  0.00    +0.000 A 
ATOM      4  C   UNL     1      49.560   7.833  15.615  0.00  0.00    +0.000 A 
ATOM      5  C   UNL     1      48.408   8.628  15.495  0.00  0.00    +0.000 A 
ATOM      6  C   UNL     1      47.741   8.742  14.261  0.00  0.00    +0.000 A 
ENDROOT
BRANCH   1   7
ATOM      7  C   UNL     1      47.425   8.008  11.843  0.00  0.00    +0.000 C 
BRANCH   7  10
ATOM      8  O   UNL     1      44.650   7.513  12.228  0.00  0.00    +0.000 OA
ATOM      9  C   UNL     1      45.380   6.590  11.869  0.00  0.00    +0.000 C 
ATOM     10  N   UNL     1      46.736   6.739  11.726  0.00  0.00    +0.000 N 
ATOM     11  H   UNL     1      47.268   5.996  11.288  0.00  0.00    +0.000 HD
BRANCH   9  12
ATOM     12  C   UNL     1      44.839   5.243  11.616  0.00  0.00    +0.000 A 
ATOM     13  C   UNL     1      44.115   4.585  12.602  0.00  0.00    +0.000 A 
ATOM     14  S   UNL     1      43.567   3.037  12.141  0.00  0.00    +0.000 S 
ATOM     15  C   UNL     1      44.241   3.201  10.588  0.00  0.00    +0.000 A 
ATOM     16  N   UNL     1      44.098   2.219   9.657  0.00  0.00    +0.000 NA
ATOM     17  C   UNL     1      44.618   2.494   8.508  0.00  0.00    +0.000 A 
ATOM     18  N   UNL     1      45.277   3.656   8.209  0.00  0.00    +0.000 N 
ATOM     19  C   UNL     1      45.516   4.636   9.139  0.00  0.00    +0.000 A 
ATOM     20  O   UNL     1      46.236   5.596   8.874  0.00  0.00    +0.000 OA
ATOM     21  C   UNL     1      44.904   4.405  10.433  0.00  0.00    +0.000 A 
ATOM     22  H   UNL     1      45.689   3.798   7.299  0.00  0.00    +0.000 HD
ENDBRANCH   9  12
ENDBRANCH   7  10
ENDBRANCH   1   7
BRANCH   4  23
ATOM     23  C   UNL     1      50.086   7.380  16.971  0.00  0.00    +0.000 C 
BRANCH  23  24
ATOM     24  N   UNL     1      49.154   6.546  17.743  0.00  0.00    +0.000 N 
BRANCH  24  25
ATOM     25  C   UNL     1      48.954   5.198  17.416  0.00  0.00    +0.000 A 
ATOM     26  C   UNL     1      47.860   4.732  16.672  0.00  0.00    +0.000 A 
ATOM     27  C   UNL     1      47.741   3.388  16.297  0.00  0.00    +0.000 A 
ATOM     28  C   UNL     1      48.719   2.471  16.661  0.00  0.00    +0.000 A 
ATOM     29  C   UNL     1      49.811   2.897  17.406  0.00  0.00    +0.000 A 
ATOM     30  C   UNL     1      49.919   4.241  17.782  0.00  0.00    +0.000 A 
ENDBRANCH  24  25
BRANCH  24  31
ATOM     31  C   UNL     1      49.076   6.852  19.201  0.00  0.00    +0.000 C 
BRANCH  31  32
ATOM     32  C   UNL     1      47.670   7.257  19.697  0.00  0.00    +0.000 C 
BRANCH  32  33
ATOM     33  O   UNL     1      46.944   7.956  18.685  0.00  0.00    +0.000 OA
ATOM     34  H   UNL     1      46.658   8.797  19.084  0.00  0.00    +0.000 HD
ENDBRANCH  32  33
ENDBRANCH  31  32
ENDBRANCH  24  31
ENDBRANCH  23  24
ENDBRANCH   4  23
TORSDOF 9
ENDMDL
MODEL 8
REMARK VINA RESULT:    -6.861      2.237      2.776
REMARK INTER + INTRA:         -11.282
REMARK INTER:                 -10.077
REMARK INTRA:                  -1.205
REMARK UNBOUND:                -1.012
REMARK  Name = 
REMARK  9 active torsions:
REMARK  status: ('A' for Active; 'I' for Inactive)
REMARK    1  A    between atoms: C_2  and  C_22
REMARK    2  A    between atoms: N_3  and  C_4
REMARK    3  A    between atoms: C_4  and  C_5
REMARK    4  A    between atoms: C_8  and  C_9
REMARK    5  A    between atoms: C_9  and  N_10
REMARK    6  A    between atoms: N_10  and  C_11
REMARK    7  A    between atoms: N_10  and  C_14
REMARK    8  A    between atoms: C_11  and  C_12
REMARK    9  A    between atoms: C_12  and  O_13
REMARK                            x       y       z     vdW  Elec       q    Type
REMARK                         _______ _______ _______ _____ _____    ______ ____
ROOT
ATOM      1  C   UNL     1      47.549   7.748  13.727  0.00  0.00    +0.000 A 
ATOM      2  C   UNL     1      46.364   7.882  12.994  0.00  0.00    +0.000 A 
ATOM      3  C   UNL     1      45.728   6.763  12.444  0.00  0.00    +0.000 A 
ATOM      4  C   UNL     1      46.237   5.472  12.649  0.00  0.00    +0.000 A 
ATOM      5  C   UNL     1      47.486   5.347  13.278  0.00  0.00    +0.000 A 
ATOM      6  C   UNL     1      48.131   6.474  13.819  0.00  0.00    +0.000 A 
ENDROOT
BRANCH   1   7
ATOM      7  C   UNL     1      48.105   8.937  14.471  0.00  0.00    +0.000 C 
BRANCH   7  10
ATOM      8  O   UNL     1      48.301   8.416  17.262  0.00  0.00    +0.000 OA
ATOM      9  C   UNL     1      49.299   8.282  16.554  0.00  0.00    +0.000 C 
ATOM     10  N   UNL     1      49.295   8.577  15.215  0.00  0.00    +0.000 N 
ATOM     11  H   UNL     1      50.094   8.311  14.651  0.00  0.00    +0.000 HD
BRANCH   9  12
ATOM     12  C   UNL     1      50.584   7.839  17.123  0.00  0.00    +0.000 A 
ATOM     13  C   UNL     1      51.532   8.774  17.519  0.00  0.00    +0.000 A 
ATOM     14  S   UNL     1      52.959   8.086  18.151  0.00  0.00    +0.000 S 
ATOM     15  C   UNL     1      52.350   6.509  17.961  0.00  0.00    +0.000 A 
ATOM     16  N   UNL     1      53.077   5.427  18.350  0.00  0.00    +0.000 NA
ATOM     17  C   UNL     1      52.475   4.296  18.191  0.00  0.00    +0.000 A 
ATOM     18  N   UNL     1      51.219   4.149  17.667  0.00  0.00    +0.000 N 
ATOM     19  C   UNL     1      50.486   5.203  17.184  0.00  0.00    +0.000 A 
ATOM     20  O   UNL     1      49.427   5.016  16.588  0.00  0.00    +0.000 OA
ATOM     21  C   UNL     1      51.089   6.505  17.391  0.00  0.00    +0.000 A 
ATOM     22  H   UNL     1      50.816   3.232  17.538  0.00  0.00    +0.000 HD
ENDBRANCH   9  12
ENDBRANCH   7  10
ENDBRANCH   1   7
BRANCH   4  23
ATOM     23  C   UNL     1      45.342   4.265  12.394  0.00  0.00    +0.000 C 
BRANCH  23  24
ATOM     24  N   UNL     1      44.533   4.349  11.170  0.00  0.00    +0.000 N 
BRANCH  24  25
ATOM     25  C   UNL     1      45.015   3.852   9.951  0.00  0.00    +0.000 A 
ATOM     26  C   UNL     1      45.547   4.662   8.937  0.00  0.00    +0.000 A 
ATOM     27  C   UNL     1      46.094   4.118   7.768  0.00  0.00    +0.000 A 
ATOM     28  C   UNL     1      46.121   2.740   7.585  0.00  0.00    +0.000 A 
ATOM     29  C   UNL     1      45.594   1.910   8.565  0.00  0.00    +0.000 A 
ATOM     30  C   UNL     1      45.043   2.463   9.728  0.00  0.00    +0.000 A 
ENDBRANCH  24  25
BRANCH  24  31
ATOM     31  C   UNL     1      43.060   4.203  11.364  0.00  0.00    +0.000 C 
BRANCH  31  32
ATOM     32  C   UNL     1      42.362   5.455  11.938  0.00  0.00    +0.000 C 
BRANCH  32  33
ATOM     33  O   UNL     1      42.490   5.517  13.359  0.00  0.00    +0.000 OA
ATOM     34  H   UNL     1      41.923   4.811  13.717  0.00  0.00    +0.000 HD
ENDBRANCH  32  33
ENDBRANCH  31  32
ENDBRANCH  24  31
ENDBRANCH  23  24
ENDBRANCH   4  23
TORSDOF 9
ENDMDL
MODEL 9
REMARK VINA RESULT:    -6.855      3.274      8.031
REMARK INTER + INTRA:         -11.274
REMARK INTER:                  -9.227
REMARK INTRA:                  -2.046
REMARK UNBOUND:                -1.012
REMARK  Name = 
REMARK  9 active torsions:
REMARK  status: ('A' for Active; 'I' for Inactive)
REMARK    1  A    between atoms: C_2  and  C_22
REMARK    2  A    between atoms: N_3  and  C_4
REMARK    3  A    between atoms: C_4  and  C_5
REMARK    4  A    between atoms: C_8  and  C_9
REMARK    5  A    between atoms: C_9  and  N_10
REMARK    6  A    between atoms: N_10  and  C_11
REMARK    7  A    between atoms: N_10  and  C_14
REMARK    8  A    between atoms: C_11  and  C_12
REMARK    9  A    between atoms: C_12  and  O_13
REMARK                            x       y       z     vdW  Elec       q    Type
REMARK                         _______ _______ _______ _____ _____    ______ ____
ROOT
ATOM      1  C   UNL     1      48.762   8.615  15.800  0.00  0.00    +0.000 A 
ATOM      2  C   UNL     1      49.940   7.862  15.863  0.00  0.00    +0.000 A 
ATOM      3  C   UNL     1      50.410   7.361  17.084  0.00  0.00    +0.000 A 
ATOM      4  C   UNL     1      49.690   7.564  18.270  0.00  0.00    +0.000 A 
ATOM      5  C   UNL     1      48.577   8.420  18.229  0.00  0.00    +0.000 A 
ATOM      6  C   UNL     1      48.113   8.933  17.003  0.00  0.00    +0.000 A 
ENDROOT
BRANCH   1   7
ATOM      7  C   UNL     1      48.176   8.973  14.457  0.00  0.00    +0.000 C 
BRANCH   7  10
ATOM      8  O   UNL     1      48.768   6.787  12.735  0.00  0.00    +0.000 OA
ATOM      9  C   UNL     1      47.637   6.888  13.211  0.00  0.00    +0.000 C 
ATOM     10  N   UNL     1      47.263   7.948  13.996  0.00  0.00    +0.000 N 
ATOM     11  H   UNL     1      46.374   7.909  14.482  0.00  0.00    +0.000 HD
BRANCH   9  12
ATOM     12  C   UNL     1      46.595   5.887  12.921  0.00  0.00    +0.000 A 
ATOM     13  C   UNL     1      46.781   4.560  13.289  0.00  0.00    +0.000 A 
ATOM     14  S   UNL     1      45.478   3.539  12.875  0.00  0.00    +0.000 S 
ATOM     15  C   UNL     1      44.595   4.839  12.223  0.00  0.00    +0.000 A 
ATOM     16  N   UNL     1      43.347   4.651  11.717  0.00  0.00    +0.000 NA
ATOM     17  C   UNL     1      42.773   5.729  11.298  0.00  0.00    +0.000 A 
ATOM     18  N   UNL     1      43.340   6.975  11.330  0.00  0.00    +0.000 N 
ATOM     19  C   UNL     1      44.626   7.197  11.753  0.00  0.00    +0.000 A 
ATOM     20  O   UNL     1      45.149   8.302  11.630  0.00  0.00    +0.000 OA
ATOM     21  C   UNL     1      45.297   6.029  12.289  0.00  0.00    +0.000 A 
ATOM     22  H   UNL     1      42.851   7.775  10.957  0.00  0.00    +0.000 HD
ENDBRANCH   9  12
ENDBRANCH   7  10
ENDBRANCH   1   7
BRANCH   4  23
ATOM     23  C   UNL     1      49.992   6.699  19.487  0.00  0.00    +0.000 C 
BRANCH  23  24
ATOM     24  N   UNL     1      49.021   5.625  19.734  0.00  0.00    +0.000 N 
BRANCH  24  25
ATOM     25  C   UNL     1      48.650   4.740  18.711  0.00  0.00    +0.000 A 
ATOM     26  C   UNL     1      47.431   4.816  18.021  0.00  0.00    +0.000 A 
ATOM     27  C   UNL     1      47.136   3.963  16.950  0.00  0.00    +0.000 A 
ATOM     28  C   UNL     1      48.058   3.006  16.542  0.00  0.00    +0.000 A 
ATOM     29  C   UNL     1      49.270   2.898  17.211  0.00  0.00    +0.000 A 
ATOM     30  C   UNL     1      49.555   3.750  18.284  0.00  0.00    +0.000 A 
ENDBRANCH  24  25
BRANCH  24  31
ATOM     31  C   UNL     1      49.065   5.019  21.097  0.00  0.00    +0.000 C 
BRANCH  31  32
ATOM     32  C   UNL     1      50.358   5.313  21.887  0.00  0.00    +0.000 C 
BRANCH  32  33
ATOM     33  O   UNL     1      51.379   4.360  21.588  0.00  0.00    +0.000 OA
ATOM     34  H   UNL     1      52.127   4.565  22.177  0.00  0.00    +0.000 HD
ENDBRANCH  32  33
ENDBRANCH  31  32
ENDBRANCH  24  31
ENDBRANCH  23  24
ENDBRANCH   4  23
TORSDOF 9
ENDMDL
