MODEL 1
REMARK VINA RESULT:    -7.412      0.000      0.000
REMARK INTER + INTRA:         -11.113
REMARK INTER:                 -10.228
REMARK INTRA:                  -0.885
REMARK UNBOUND:                -0.885
REMARK  Name = 
REMARK  8 active torsions:
REMARK  status: ('A' for Active; 'I' for Inactive)
REMARK    1  A    between atoms: C_1  and  C_2
REMARK    2  A    between atoms: C_2  and  C_3
REMARK    3  A    between atoms: C_6  and  C_7
REMARK    4  A    between atoms: C_7  and  C_8
REMARK    5  A    between atoms: C_8  and  O_9
REMARK    6  A    between atoms: O_9  and  C_10
REMARK    7  A    between atoms: C_13  and  C_14
REMARK    8  A    between atoms: C_14  and  O_16
REMARK                            x       y       z     vdW  Elec       q    Type
REMARK                         _______ _______ _______ _____ _____    ______ ____
ROOT
ATOM      1  O   UNL     1      43.602   3.719  10.097  0.00  0.00    +0.000 OA
ENDROOT
BRANCH   1   2
ATOM      2  C   UNL     1      44.603   3.377   9.222  0.00  0.00    +0.000 A 
ATOM      3  C   UNL     1      45.286   4.266   8.390  0.00  0.00    +0.000 A 
ATOM      4  C   UNL     1      46.307   3.817   7.546  0.00  0.00    +0.000 A 
ATOM      5  C   UNL     1      46.638   2.459   7.513  0.00  0.00    +0.000 A 
ATOM      6  C   UNL     1      45.959   1.563   8.346  0.00  0.00    +0.000 A 
ATOM      7  C   UNL     1      44.942   2.022   9.194  0.00  0.00    +0.000 A 
BRANCH   5   8
ATOM      8  C   UNL     1      47.739   1.940   6.659  0.00  0.00    +0.000 C 
ATOM      9  O   UNL     1      47.705   0.837   6.141  0.00  0.00    +0.000 OA
BRANCH   8  10
ATOM     10  O   UNL     1      48.761   2.803   6.485  0.00  0.00    +0.000 OA
ATOM     11  H   UNL     1      49.283   2.999   7.282  0.00  0.00    +0.000 HD
ENDBRANCH   8  10
ENDBRANCH   5   8
ENDBRANCH   1   2
BRANCH   1  12
ATOM     12  C   UNL     1      43.744   3.220  11.432  0.00  0.00    +0.000 C 
BRANCH  12  13
ATOM     13  C   UNL     1      43.702   4.379  12.423  0.00  0.00    +0.000 C 
BRANCH  13  17
ATOM     14  C   UNL     1      47.568   6.316  12.688  0.00  0.00    +0.000 A 
ATOM     15  C   UNL     1      47.219   5.298  13.584  0.00  0.00    +0.000 A 
ATOM     16  C   UNL     1      45.965   4.684  13.509  0.00  0.00    +0.000 A 
ATOM     17  C   UNL     1      45.041   5.069  12.530  0.00  0.00    +0.000 A 
ATOM     18  C   UNL     1      45.376   6.114  11.659  0.00  0.00    +0.000 A 
ATOM     19  C   UNL     1      46.630   6.727  11.735  0.00  0.00    +0.000 A 
BRANCH  14  21
ATOM     20  C   UNL     1      49.207   7.779  11.485  0.00  0.00    +0.000 C 
ATOM     21  C   UNL     1      48.952   6.914  12.712  0.00  0.00    +0.000 C 
ENDBRANCH  14  21
ENDBRANCH  13  17
ENDBRANCH  12  13
ENDBRANCH   1  12
TORSDOF 7
ENDMDL
MODEL 2
REMARK VINA RESULT:    -7.279      0.690      1.636
REMARK INTER + INTRA:         -10.930
REMARK INTER:                  -9.941
REMARK INTRA:                  -0.989
REMARK UNBOUND:                -0.885
REMARK  Name = 
REMARK  8 active torsions:
REMARK  status: ('A' for Active; 'I' for Inactive)
REMARK    1  A    between atoms: C_1  and  C_2
REMARK    2  A    between atoms: C_2  and  C_3
REMARK    3  A    between atoms: C_6  and  C_7
REMARK    4  A    between atoms: C_7  and  C_8
REMARK    5  A    between atoms: C_8  and  O_9
REMARK    6  A    between atoms: O_9  and  C_10
REMARK    7  A    between atoms: C_13  and  C_14
REMARK    8  A    between atoms: C_14  and  O_16
REMARK                            x       y       z     vdW  Elec       q    Type
REMARK                         _______ _______ _______ _____ _____    ______ ____
ROOT
ATOM      1  O   UNL     1      43.359   3.587  10.502  0.00  0.00    +0.000 OA
ENDROOT
BRANCH   1   2
ATOM      2  C   UNL     1      44.352   3.238   9.620  0.00  0.00    +0.000 A 
ATOM      3  C   UNL     1      44.768   1.933   9.349  0.00  0.00    +0.000 A 
ATOM      4  C   UNL     1      45.778   1.682   8.415  0.00  0.00    +0.000 A 
ATOM      5  C   UNL     1      46.399   2.746   7.756  0.00  0.00    +0.000 A 
ATOM      6  C   UNL     1      45.984   4.057   8.020  0.00  0.00    +0.000 A 
ATOM      7  C   UNL     1      44.967   4.299   8.952  0.00  0.00    +0.000 A 
BRANCH   5   8
ATOM      8  C   UNL     1      47.452   2.528   6.730  0.00  0.00    +0.000 C 
ATOM      9  O   UNL     1      48.326   1.687   6.853  0.00  0.00    +0.000 OA
BRANCH   8  10
ATOM     10  O   UNL     1      47.340   3.319   5.643  0.00  0.00    +0.000 OA
ATOM     11  H   UNL     1      46.922   2.908   4.867  0.00  0.00    +0.000 HD
ENDBRANCH   8  10
ENDBRANCH   5   8
ENDBRANCH   1   2
BRANCH   1  12
ATOM     12  C   UNL     1      43.474   3.038  11.819  0.00  0.00    +0.000 C 
BRANCH  12  13
ATOM     13  C   UNL     1      43.486   4.164  12.849  0.00  0.00    +0.000 C 
BRANCH  13  17
ATOM     14  C   UNL     1      47.218   6.365  12.849  0.00  0.00    +0.000 A 
ATOM     15  C   UNL     1      46.060   6.927  12.300  0.00  0.00    +0.000 A 
ATOM     16  C   UNL     1      44.859   6.211  12.285  0.00  0.00    +0.000 A 
ATOM     17  C   UNL     1      44.792   4.922  12.829  0.00  0.00    +0.000 A 
ATOM     18  C   UNL     1      45.960   4.344  13.343  0.00  0.00    +0.000 A 
ATOM     19  C   UNL     1      47.160   5.062  13.357  0.00  0.00    +0.000 A 
BRANCH  14  21
ATOM     20  C   UNL     1      48.851   7.806  11.611  0.00  0.00    +0.000 C 
ATOM     21  C   UNL     1      48.489   7.171  12.947  0.00  0.00    +0.000 C 
ENDBRANCH  14  21
ENDBRANCH  13  17
ENDBRANCH  12  13
ENDBRANCH   1  12
TORSDOF 7
ENDMDL
MODEL 3
REMARK VINA RESULT:    -7.073      2.759      5.848
REMARK INTER + INTRA:         -10.645
REMARK INTER:                  -9.605
REMARK INTRA:                  -1.040
REMARK UNBOUND:                -0.885
REMARK  Name = 
REMARK  8 active torsions:
REMARK  status: ('A' for Active; 'I' for Inactive)
REMARK    1  A    between atoms: C_1  and  C_2
REMARK    2  A    between atoms: C_2  and  C_3
REMARK    3  A    between atoms: C_6  and  C_7
REMARK    4  A    between atoms: C_7  and  C_8
REMARK    5  A    between atoms: C_8  and  O_9
REMARK    6  A    between atoms: O_9  and  C_10
REMARK    7  A    between atoms: C_13  and  C_14
REMARK    8  A    between atoms: C_14  and  O_16
REMARK                            x       y       z     vdW  Elec       q    Type
REMARK                         _______ _______ _______ _____ _____    ______ ____
ROOT
ATOM      1  O   UNL     1      43.469   5.185  12.920  0.00  0.00    +0.000 OA
ENDROOT
BRANCH   1   2
ATOM      2  C   UNL     1      44.786   5.569  12.937  0.00  0.00    +0.000 A 
ATOM      3  C   UNL     1      45.821   4.879  13.571  0.00  0.00    +0.000 A 
ATOM      4  C   UNL     1      47.138   5.347  13.511  0.00  0.00    +0.000 A 
ATOM      5  C   UNL     1      47.426   6.532  12.828  0.00  0.00    +0.000 A 
ATOM      6  C   UNL     1      46.394   7.228  12.188  0.00  0.00    +0.000 A 
ATOM      7  C   UNL     1      45.079   6.748  12.247  0.00  0.00    +0.000 A 
BRANCH   5   8
ATOM      8  C   UNL     1      48.815   7.050  12.707  0.00  0.00    +0.000 C 
ATOM      9  O   UNL     1      49.189   7.709  11.752  0.00  0.00    +0.000 OA
BRANCH   8  10
ATOM     10  O   UNL     1      49.611   6.752  13.754  0.00  0.00    +0.000 OA
ATOM     11  H   UNL     1      49.846   5.812  13.846  0.00  0.00    +0.000 HD
ENDBRANCH   8  10
ENDBRANCH   5   8
ENDBRANCH   1   2
BRANCH   1  12
ATOM     12  C   UNL     1      42.956   4.771  11.649  0.00  0.00    +0.000 C 
BRANCH  12  13
ATOM     13  C   UNL     1      43.408   3.344  11.350  0.00  0.00    +0.000 C 
BRANCH  13  17
ATOM     14  C   UNL     1      45.950   3.183   7.845  0.00  0.00    +0.000 A 
ATOM     15  C   UNL     1      45.522   2.005   8.470  0.00  0.00    +0.000 A 
ATOM     16  C   UNL     1      44.715   2.056   9.610  0.00  0.00    +0.000 A 
ATOM     17  C   UNL     1      44.312   3.288  10.142  0.00  0.00    +0.000 A 
ATOM     18  C   UNL     1      44.772   4.466   9.540  0.00  0.00    +0.000 A 
ATOM     19  C   UNL     1      45.579   4.413   8.400  0.00  0.00    +0.000 A 
BRANCH  14  21
ATOM     20  C   UNL     1      47.990   2.264   6.719  0.00  0.00    +0.000 C 
ATOM     21  C   UNL     1      46.744   3.125   6.565  0.00  0.00    +0.000 C 
ENDBRANCH  14  21
ENDBRANCH  13  17
ENDBRANCH  12  13
ENDBRANCH   1  12
TORSDOF 7
ENDMDL
MODEL 4
REMARK VINA RESULT:    -6.238      2.840      6.268
REMARK INTER + INTRA:          -9.493
REMARK INTER:                  -8.650
REMARK INTRA:                  -0.843
REMARK UNBOUND:                -0.885
REMARK  Name = 
REMARK  8 active torsions:
REMARK  status: ('A' for Active; 'I' for Inactive)
REMARK    1  A    between atoms: C_1  and  C_2
REMARK    2  A    between atoms: C_2  and  C_3
REMARK    3  A    between atoms: C_6  and  C_7
REMARK    4  A    between atoms: C_7  and  C_8
REMARK    5  A    between atoms: C_8  and  O_9
REMARK    6  A    between atoms: O_9  and  C_10
REMARK    7  A    between atoms: C_13  and  C_14
REMARK    8  A    between atoms: C_14  and  O_16
REMARK                            x       y       z     vdW  Elec       q    Type
REMARK                         _______ _______ _______ _____ _____    ______ ____
ROOT
ATOM      1  O   UNL     1      44.703   4.585  13.013  0.00  0.00    +0.000 OA
ENDROOT
BRANCH   1   2
ATOM      2  C   UNL     1      45.496   5.696  12.869  0.00  0.00    +0.000 A 
ATOM      3  C   UNL     1      46.892   5.694  12.847  0.00  0.00    +0.000 A 
ATOM      4  C   UNL     1      47.608   6.883  12.675  0.00  0.00    +0.000 A 
ATOM      5  C   UNL     1      46.925   8.096  12.544  0.00  0.00    +0.000 A 
ATOM      6  C   UNL     1      45.526   8.104  12.561  0.00  0.00    +0.000 A 
ATOM      7  C   UNL     1      44.816   6.908  12.728  0.00  0.00    +0.000 A 
BRANCH   5   8
ATOM      8  C   UNL     1      47.641   9.380  12.323  0.00  0.00    +0.000 C 
ATOM      9  O   UNL     1      48.685   9.452  11.699  0.00  0.00    +0.000 OA
BRANCH   8  10
ATOM     10  O   UNL     1      47.022  10.457  12.850  0.00  0.00    +0.000 OA
ATOM     11  H   UNL     1      46.239  10.768  12.365  0.00  0.00    +0.000 HD
ENDBRANCH   8  10
ENDBRANCH   5   8
ENDBRANCH   1   2
BRANCH   1  12
ATOM     12  C   UNL     1      43.473   4.598  12.279  0.00  0.00    +0.000 C 
BRANCH  12  13
ATOM     13  C   UNL     1      43.335   3.305  11.480  0.00  0.00    +0.000 C 
BRANCH  13  17
ATOM     14  C   UNL     1      45.821   3.313   7.932  0.00  0.00    +0.000 A 
ATOM     15  C   UNL     1      45.520   2.113   8.588  0.00  0.00    +0.000 A 
ATOM     16  C   UNL     1      44.732   2.111   9.743  0.00  0.00    +0.000 A 
ATOM     17  C   UNL     1      44.220   3.310  10.256  0.00  0.00    +0.000 A 
ATOM     18  C   UNL     1      44.553   4.513   9.622  0.00  0.00    +0.000 A 
ATOM     19  C   UNL     1      45.342   4.513   8.468  0.00  0.00    +0.000 A 
BRANCH  14  21
ATOM     20  C   UNL     1      47.743   2.305   6.680  0.00  0.00    +0.000 C 
ATOM     21  C   UNL     1      46.595   3.304   6.638  0.00  0.00    +0.000 C 
ENDBRANCH  14  21
ENDBRANCH  13  17
ENDBRANCH  12  13
ENDBRANCH   1  12
TORSDOF 7
ENDMDL
MODEL 5
REMARK VINA RESULT:    -6.105      3.067      6.827
REMARK INTER + INTRA:          -9.309
REMARK INTER:                  -9.054
REMARK INTRA:                  -0.255
REMARK UNBOUND:                -0.885
REMARK  Name = 
REMARK  8 active torsions:
REMARK  status: ('A' for Active; 'I' for Inactive)
REMARK    1  A    between atoms: C_1  and  C_2
REMARK    2  A    between atoms: C_2  and  C_3
REMARK    3  A    between atoms: C_6  and  C_7
REMARK    4  A    between atoms: C_7  and  C_8
REMARK    5  A    between atoms: C_8  and  O_9
REMARK    6  A    between atoms: O_9  and  C_10
REMARK    7  A    between atoms: C_13  and  C_14
REMARK    8  A    between atoms: C_14  and  O_16
REMARK                            x       y       z     vdW  Elec       q    Type
REMARK                         _______ _______ _______ _____ _____    ______ ____
ROOT
ATOM      1  O   UNL     1      45.761   5.033  11.354  0.00  0.00    +0.000 OA
ENDROOT
BRANCH   1   2
ATOM      2  C   UNL     1      46.371   5.102  12.582  0.00  0.00    +0.000 A 
ATOM      3  C   UNL     1      46.306   4.120  13.572  0.00  0.00    +0.000 A 
ATOM      4  C   UNL     1      46.982   4.279  14.786  0.00  0.00    +0.000 A 
ATOM      5  C   UNL     1      47.715   5.444  15.029  0.00  0.00    +0.000 A 
ATOM      6  C   UNL     1      47.786   6.432  14.040  0.00  0.00    +0.000 A 
ATOM      7  C   UNL     1      47.112   6.261  12.824  0.00  0.00    +0.000 A 
BRANCH   5   8
ATOM      8  C   UNL     1      48.479   5.643  16.289  0.00  0.00    +0.000 C 
ATOM      9  O   UNL     1      49.362   4.885  16.650  0.00  0.00    +0.000 OA
BRANCH   8  10
ATOM     10  O   UNL     1      48.129   6.747  16.980  0.00  0.00    +0.000 OA
ATOM     11  H   UNL     1      48.798   7.083  17.601  0.00  0.00    +0.000 HD
ENDBRANCH   8  10
ENDBRANCH   5   8
ENDBRANCH   1   2
BRANCH   1  12
ATOM     12  C   UNL     1      44.371   5.376  11.329  0.00  0.00    +0.000 C 
BRANCH  12  13
ATOM     13  C   UNL     1      43.656   4.545  10.267  0.00  0.00    +0.000 C 
BRANCH  13  17
ATOM     14  C   UNL     1      46.416   2.418   7.693  0.00  0.00    +0.000 A 
ATOM     15  C   UNL     1      45.661   1.730   8.651  0.00  0.00    +0.000 A 
ATOM     16  C   UNL     1      44.782   2.418   9.493  0.00  0.00    +0.000 A 
ATOM     17  C   UNL     1      44.634   3.806   9.385  0.00  0.00    +0.000 A 
ATOM     18  C   UNL     1      45.418   4.499   8.453  0.00  0.00    +0.000 A 
ATOM     19  C   UNL     1      46.296   3.810   7.612  0.00  0.00    +0.000 A 
BRANCH  14  21
ATOM     20  C   UNL     1      47.266   2.294   5.339  0.00  0.00    +0.000 C 
ATOM     21  C   UNL     1      47.295   1.665   6.726  0.00  0.00    +0.000 C 
ENDBRANCH  14  21
ENDBRANCH  13  17
ENDBRANCH  12  13
ENDBRANCH   1  12
TORSDOF 7
ENDMDL
MODEL 6
REMARK VINA RESULT:    -6.079      3.213      8.492
REMARK INTER + INTRA:          -9.274
REMARK INTER:                  -8.758
REMARK INTRA:                  -0.516
REMARK UNBOUND:                -0.885
REMARK  Name = 
REMARK  8 active torsions:
REMARK  status: ('A' for Active; 'I' for Inactive)
REMARK    1  A    between atoms: C_1  and  C_2
REMARK    2  A    between atoms: C_2  and  C_3
REMARK    3  A    between atoms: C_6  and  C_7
REMARK    4  A    between atoms: C_7  and  C_8
REMARK    5  A    between atoms: C_8  and  O_9
REMARK    6  A    between atoms: O_9  and  C_10
REMARK    7  A    between atoms: C_13  and  C_14
REMARK    8  A    between atoms: C_14  and  O_16
REMARK                            x       y       z     vdW  Elec       q    Type
REMARK                         _______ _______ _______ _____ _____    ______ ____
ROOT
ATOM      1  O   UNL     1      46.406   3.898   6.970  0.00  0.00    +0.000 OA
ENDROOT
BRANCH   1   2
ATOM      2  C   UNL     1      45.710   3.788   8.148  0.00  0.00    +0.000 A 
ATOM      3  C   UNL     1      45.475   4.830   9.047  0.00  0.00    +0.000 A 
ATOM      4  C   UNL     1      44.734   4.617  10.214  0.00  0.00    +0.000 A 
ATOM      5  C   UNL     1      44.238   3.342  10.503  0.00  0.00    +0.000 A 
ATOM      6  C   UNL     1      44.468   2.293   9.604  0.00  0.00    +0.000 A 
ATOM      7  C   UNL     1      45.205   2.517   8.434  0.00  0.00    +0.000 A 
BRANCH   5   8
ATOM      8  C   UNL     1      43.416   3.074  11.712  0.00  0.00    +0.000 C 
ATOM      9  O   UNL     1      43.239   3.907  12.584  0.00  0.00    +0.000 OA
BRANCH   8  10
ATOM     10  O   UNL     1      42.864   1.844  11.746  0.00  0.00    +0.000 OA
ATOM     11  H   UNL     1      42.366   1.586  10.951  0.00  0.00    +0.000 HD
ENDBRANCH   8  10
ENDBRANCH   5   8
ENDBRANCH   1   2
BRANCH   1  12
ATOM     12  C   UNL     1      46.989   2.688   6.476  0.00  0.00    +0.000 C 
BRANCH  12  13
ATOM     13  C   UNL     1      47.079   2.742   4.953  0.00  0.00    +0.000 C 
BRANCH  13  17
ATOM     14  C   UNL     1      46.238  -1.095   3.127  0.00  0.00    +0.000 A 
ATOM     15  C   UNL     1      45.772   0.089   2.543  0.00  0.00    +0.000 A 
ATOM     16  C   UNL     1      46.029   1.326   3.140  0.00  0.00    +0.000 A 
ATOM     17  C   UNL     1      46.767   1.403   4.329  0.00  0.00    +0.000 A 
ATOM     18  C   UNL     1      47.199   0.216   4.934  0.00  0.00    +0.000 A 
ATOM     19  C   UNL     1      46.941  -1.021   4.335  0.00  0.00    +0.000 A 
BRANCH  14  21
ATOM     20  C   UNL     1      46.992  -3.479   2.973  0.00  0.00    +0.000 C 
ATOM     21  C   UNL     1      46.038  -2.420   2.436  0.00  0.00    +0.000 C 
ENDBRANCH  14  21
ENDBRANCH  13  17
ENDBRANCH  12  13
ENDBRANCH   1  12
TORSDOF 7
ENDMDL
MODEL 7
REMARK VINA RESULT:    -5.959      4.947      8.376
REMARK INTER + INTRA:          -9.108
REMARK INTER:                  -8.696
REMARK INTRA:                  -0.412
REMARK UNBOUND:                -0.885
REMARK  Name = 
REMARK  8 active torsions:
REMARK  status: ('A' for Active; 'I' for Inactive)
REMARK    1  A    between atoms: C_1  and  C_2
REMARK    2  A    between atoms: C_2  and  C_3
REMARK    3  A    between atoms: C_6  and  C_7
REMARK    4  A    between atoms: C_7  and  C_8
REMARK    5  A    between atoms: C_8  and  O_9
REMARK    6  A    between atoms: O_9  and  C_10
REMARK    7  A    between atoms: C_13  and  C_14
REMARK    8  A    between atoms: C_14  and  O_16
REMARK                            x       y       z     vdW  Elec       q    Type
REMARK                         _______ _______ _______ _____ _____    ______ ____
ROOT
ATOM      1  O   UNL     1      47.182   3.407  14.741  0.00  0.00    +0.000 OA
ENDROOT
BRANCH   1   2
ATOM      2  C   UNL     1      47.680   3.545  16.012  0.00  0.00    +0.000 A 
ATOM      3  C   UNL     1      48.605   2.691  16.615  0.00  0.00    +0.000 A 
ATOM      4  C   UNL     1      49.066   2.932  17.913  0.00  0.00    +0.000 A 
ATOM      5  C   UNL     1      48.582   4.029  18.632  0.00  0.00    +0.000 A 
ATOM      6  C   UNL     1      47.657   4.892  18.033  0.00  0.00    +0.000 A 
ATOM      7  C   UNL     1      47.206   4.646  16.730  0.00  0.00    +0.000 A 
BRANCH   5   8
ATOM      8  C   UNL     1      49.068   4.347  20.000  0.00  0.00    +0.000 C 
ATOM      9  O   UNL     1      50.070   5.010  20.205  0.00  0.00    +0.000 OA
BRANCH   8  10
ATOM     10  O   UNL     1      48.291   3.863  20.991  0.00  0.00    +0.000 OA
ATOM     11  H   UNL     1      48.511   4.174  21.886  0.00  0.00    +0.000 HD
ENDBRANCH   8  10
ENDBRANCH   5   8
ENDBRANCH   1   2
BRANCH   1  12
ATOM     12  C   UNL     1      46.993   4.623  14.010  0.00  0.00    +0.000 C 
BRANCH  12  13
ATOM     13  C   UNL     1      45.524   4.768  13.621  0.00  0.00    +0.000 C 
BRANCH  13  17
ATOM     14  C   UNL     1      44.973   4.020   9.389  0.00  0.00    +0.000 A 
ATOM     15  C   UNL     1      45.518   5.231   9.833  0.00  0.00    +0.000 A 
ATOM     16  C   UNL     1      45.681   5.479  11.199  0.00  0.00    +0.000 A 
ATOM     17  C   UNL     1      45.311   4.516  12.147  0.00  0.00    +0.000 A 
ATOM     18  C   UNL     1      44.729   3.321  11.704  0.00  0.00    +0.000 A 
ATOM     19  C   UNL     1      44.567   3.074  10.338  0.00  0.00    +0.000 A 
BRANCH  14  21
ATOM     20  C   UNL     1      46.260   3.642   7.274  0.00  0.00    +0.000 C 
ATOM     21  C   UNL     1      44.881   3.717   7.915  0.00  0.00    +0.000 C 
ENDBRANCH  14  21
ENDBRANCH  13  17
ENDBRANCH  12  13
ENDBRANCH   1  12
TORSDOF 7
ENDMDL
MODEL 8
REMARK VINA RESULT:    -5.546      3.782      7.632
REMARK INTER + INTRA:          -8.538
REMARK INTER:                  -8.124
REMARK INTRA:                  -0.414
REMARK UNBOUND:                -0.885
REMARK  Name = 
REMARK  8 active torsions:
REMARK  status: ('A' for Active; 'I' for Inactive)
REMARK    1  A    between atoms: C_1  and  C_2
REMARK    2  A    between atoms: C_2  and  C_3
REMARK    3  A    between atoms: C_6  and  C_7
REMARK    4  A    between atoms: C_7  and  C_8
REMARK    5  A    between atoms: C_8  and  O_9
REMARK    6  A    between atoms: O_9  and  C_10
REMARK    7  A    between atoms: C_13  and  C_14
REMARK    8  A    between atoms: C_14  and  O_16
REMARK                            x       y       z     vdW  Elec       q    Type
REMARK                         _______ _______ _______ _____ _____    ______ ____
ROOT
ATOM      1  O   UNL     1      45.272   6.454  11.787  0.00  0.00    +0.000 OA
ENDROOT
BRANCH   1   2
ATOM      2  C   UNL     1      45.397   7.821  11.793  0.00  0.00    +0.000 A 
ATOM      3  C   UNL     1      46.501   8.528  12.273  0.00  0.00    +0.000 A 
ATOM      4  C   UNL     1      46.539   9.925  12.216  0.00  0.00    +0.000 A 
ATOM      5  C   UNL     1      45.452  10.631  11.693  0.00  0.00    +0.000 A 
ATOM      6  C   UNL     1      44.343   9.928  11.207  0.00  0.00    +0.000 A 
ATOM      7  C   UNL     1      44.317   8.529  11.262  0.00  0.00    +0.000 A 
BRANCH   5   8
ATOM      8  C   UNL     1      45.460  12.113  11.578  0.00  0.00    +0.000 C 
ATOM      9  O   UNL     1      44.697  12.825  12.207  0.00  0.00    +0.000 OA
BRANCH   8  10
ATOM     10  O   UNL     1      46.400  12.599  10.742  0.00  0.00    +0.000 OA
ATOM     11  H   UNL     1      46.158  13.413  10.267  0.00  0.00    +0.000 HD
ENDBRANCH   8  10
ENDBRANCH   5   8
ENDBRANCH   1   2
BRANCH   1  12
ATOM     12  C   UNL     1      45.807   5.785  10.640  0.00  0.00    +0.000 C 
BRANCH  12  13
ATOM     13  C   UNL     1      44.781   4.793  10.097  0.00  0.00    +0.000 C 
BRANCH  13  17
ATOM     14  C   UNL     1      46.615   2.055   7.284  0.00  0.00    +0.000 A 
ATOM     15  C   UNL     1      46.680   3.439   7.077  0.00  0.00    +0.000 A 
ATOM     16  C   UNL     1      46.075   4.322   7.976  0.00  0.00    +0.000 A 
ATOM     17  C   UNL     1      45.401   3.838   9.104  0.00  0.00    +0.000 A 
ATOM     18  C   UNL     1      45.303   2.453   9.291  0.00  0.00    +0.000 A 
ATOM     19  C   UNL     1      45.909   1.571   8.391  0.00  0.00    +0.000 A 
BRANCH  14  21
ATOM     20  C   UNL     1      47.318   1.598   4.923  0.00  0.00    +0.000 C 
ATOM     21  C   UNL     1      47.345   1.109   6.365  0.00  0.00    +0.000 C 
ENDBRANCH  14  21
ENDBRANCH  13  17
ENDBRANCH  12  13
ENDBRANCH   1  12
TORSDOF 7
ENDMDL
MODEL 9
REMARK VINA RESULT:    -5.527      4.462      6.507
REMARK INTER + INTRA:          -8.513
REMARK INTER:                  -8.022
REMARK INTRA:                  -0.491
REMARK UNBOUND:                -0.885
REMARK  Name = 
REMARK  8 active torsions:
REMARK  status: ('A' for Active; 'I' for Inactive)
REMARK    1  A    between atoms: C_1  and  C_2
REMARK    2  A    between atoms: C_2  and  C_3
REMARK    3  A    between atoms: C_6  and  C_7
REMARK    4  A    between atoms: C_7  and  C_8
REMARK    5  A    between atoms: C_8  and  O_9
REMARK    6  A    between atoms: O_9  and  C_10
REMARK    7  A    between atoms: C_13  and  C_14
REMARK    8  A    between atoms: C_14  and  O_16
REMARK                            x       y       z     vdW  Elec       q    Type
REMARK                         _______ _______ _______ _____ _____    ______ ____
ROOT
ATOM      1  O   UNL     1      47.766   5.011  14.646  0.00  0.00    +0.000 OA
ENDROOT
BRANCH   1   2
ATOM      2  C   UNL     1      46.905   5.038  13.578  0.00  0.00    +0.000 A 
ATOM      3  C   UNL     1      46.940   5.966  12.536  0.00  0.00    +0.000 A 
ATOM      4  C   UNL     1      46.026   5.893  11.480  0.00  0.00    +0.000 A 
ATOM      5  C   UNL     1      45.047   4.895  11.471  0.00  0.00    +0.000 A 
ATOM      6  C   UNL     1      45.009   3.959  12.511  0.00  0.00    +0.000 A 
ATOM      7  C   UNL     1      45.932   4.035  13.562  0.00  0.00    +0.000 A 
BRANCH   5   8
ATOM      8  C   UNL     1      44.077   4.756  10.353  0.00  0.00    +0.000 C 
ATOM      9  O   UNL     1      44.224   3.949   9.452  0.00  0.00    +0.000 OA
BRANCH   8  10
ATOM     10  O   UNL     1      43.011   5.578  10.439  0.00  0.00    +0.000 OA
ATOM     11  H   UNL     1      42.212   5.278   9.973  0.00  0.00    +0.000 HD
ENDBRANCH   8  10
ENDBRANCH   5   8
ENDBRANCH   1   2
BRANCH   1  12
ATOM     12  C   UNL     1      47.314   4.282  15.793  0.00  0.00    +0.000 C 
BRANCH  12  13
ATOM     13  C   UNL     1      47.984   4.830  17.050  0.00  0.00    +0.000 C 
BRANCH  13  17
ATOM     14  C   UNL     1      51.738   2.809  17.822  0.00  0.00    +0.000 A 
ATOM     15  C   UNL     1      50.617   2.089  17.391  0.00  0.00    +0.000 A 
ATOM     16  C   UNL     1      49.401   2.738  17.157  0.00  0.00    +0.000 A 
ATOM     17  C   UNL     1      49.286   4.122  17.340  0.00  0.00    +0.000 A 
ATOM     18  C   UNL     1      50.396   4.836  17.809  0.00  0.00    +0.000 A 
ATOM     19  C   UNL     1      51.612   4.186  18.043  0.00  0.00    +0.000 A 
BRANCH  14  21
ATOM     20  C   UNL     1      53.017   0.678  17.513  0.00  0.00    +0.000 C 
ATOM     21  C   UNL     1      53.070   2.124  17.987  0.00  0.00    +0.000 C 
ENDBRANCH  14  21
ENDBRANCH  13  17
ENDBRANCH  12  13
ENDBRANCH   1  12
TORSDOF 7
ENDMDL
