MODEL 1
REMARK VINA RESULT:    -7.648      0.000      0.000
REMARK INTER + INTRA:         -11.221
REMARK INTER:                 -10.107
REMARK INTRA:                  -1.114
REMARK UNBOUND:                -1.114
REMARK  Name = 
REMARK  6 active torsions:
REMARK  status: ('A' for Active; 'I' for Inactive)
REMARK    1  A    between atoms: C_2  and  OXT_3
REMARK    2  A    between atoms: C_2  and  CA_4
REMARK    3  A    between atoms: C_8  and  C_9
REMARK    4  A    between atoms: C_9  and  C_10
REMARK    5  A    between atoms: C_10  and  C_11
REMARK    6  A    between atoms: C_15  and  C_16
REMARK                            x       y       z     vdW  Elec       q    Type
REMARK                         _______ _______ _______ _____ _____    ______ ____
ROOT
ATOM      1  C   UNL     1      43.952   6.444  10.780  0.00  0.00    +0.000 C 
ENDROOT
BRANCH   1   2
ATOM      2  C   UNL     1      44.098   4.948  10.586  0.00  0.00    +0.000 A 
ATOM      3  C   UNL     1      43.343   4.023  11.315  0.00  0.00    +0.000 A 
ATOM      4  C   UNL     1      43.477   2.658  11.085  0.00  0.00    +0.000 A 
ATOM      5  C   UNL     1      44.334   2.199  10.087  0.00  0.00    +0.000 A 
ATOM      6  C   UNL     1      45.057   3.091   9.277  0.00  0.00    +0.000 A 
ATOM      7  C   UNL     1      44.945   4.466   9.569  0.00  0.00    +0.000 A 
BRANCH   6   8
ATOM      8  C   UNL     1      45.822   2.609   8.102  0.00  0.00    +0.000 A 
ATOM      9  C   UNL     1      46.053   3.461   7.003  0.00  0.00    +0.000 A 
ATOM     10  C   UNL     1      46.841   3.069   5.921  0.00  0.00    +0.000 A 
ATOM     11  C   UNL     1      47.429   1.809   5.913  0.00  0.00    +0.000 A 
ATOM     12  C   UNL     1      47.207   0.938   6.975  0.00  0.00    +0.000 A 
ATOM     13  C   UNL     1      46.403   1.330   8.053  0.00  0.00    +0.000 A 
ENDBRANCH   6   8
ENDBRANCH   1   2
BRANCH   1  14
ATOM     14  C   UNL     1      44.287   6.941  12.189  0.00  0.00    +0.000 C 
BRANCH  14  19
ATOM     15  CA  UNL     1      47.155   5.346  13.873  0.00  0.00    +0.000 A 
ATOM     16  C   UNL     1      48.274   5.948  13.320  0.00  0.00    +0.000 A 
ATOM     17  C   UNL     1      48.071   6.931  12.358  0.00  0.00    +0.000 A 
ATOM     18  C   UNL     1      46.772   7.272  11.989  0.00  0.00    +0.000 A 
ATOM     19  C   UNL     1      45.701   6.614  12.591  0.00  0.00    +0.000 A 
ATOM     20  N   UNL     1      45.867   5.652  13.534  0.00  0.00    +0.000 NA
BRANCH  15  22
ATOM     21  O   UNL     1      47.492   3.094  14.664  0.00  0.00    +0.000 OA
ATOM     22  C   UNL     1      47.307   4.277  14.903  0.00  0.00    +0.000 C 
BRANCH  22  23
ATOM     23  OXT UNL     1      47.210   4.800  16.147  0.00  0.00    +0.000 OA
ATOM     24  HXT UNL     1      46.467   5.452  16.154  0.00  0.00    +0.000 HD
ENDBRANCH  22  23
ENDBRANCH  15  22
ENDBRANCH  14  19
ENDBRANCH   1  14
TORSDOF 6
ENDMDL
MODEL 2
REMARK VINA RESULT:    -7.411      3.074      6.651
REMARK INTER + INTRA:         -10.908
REMARK INTER:                 -10.042
REMARK INTRA:                  -0.866
REMARK UNBOUND:                -1.114
REMARK  Name = 
REMARK  6 active torsions:
REMARK  status: ('A' for Active; 'I' for Inactive)
REMARK    1  A    between atoms: C_2  and  OXT_3
REMARK    2  A    between atoms: C_2  and  CA_4
REMARK    3  A    between atoms: C_8  and  C_9
REMARK    4  A    between atoms: C_9  and  C_10
REMARK    5  A    between atoms: C_10  and  C_11
REMARK    6  A    between atoms: C_15  and  C_16
REMARK                            x       y       z     vdW  Elec       q    Type
REMARK                         _______ _______ _______ _____ _____    ______ ____
ROOT
ATOM      1  C   UNL     1      43.785   3.848  11.282  0.00  0.00    +0.000 C 
ENDROOT
BRANCH   1   2
ATOM      2  C   UNL     1      44.977   4.348  12.074  0.00  0.00    +0.000 A 
ATOM      3  C   UNL     1      45.732   3.508  12.898  0.00  0.00    +0.000 A 
ATOM      4  C   UNL     1      46.841   3.994  13.582  0.00  0.00    +0.000 A 
ATOM      5  C   UNL     1      47.240   5.319  13.415  0.00  0.00    +0.000 A 
ATOM      6  C   UNL     1      46.559   6.182  12.540  0.00  0.00    +0.000 A 
ATOM      7  C   UNL     1      45.406   5.678  11.903  0.00  0.00    +0.000 A 
BRANCH   6   8
ATOM      8  C   UNL     1      47.093   7.528  12.225  0.00  0.00    +0.000 A 
ATOM      9  C   UNL     1      46.246   8.655  12.250  0.00  0.00    +0.000 A 
ATOM     10  C   UNL     1      46.733   9.946  12.044  0.00  0.00    +0.000 A 
ATOM     11  C   UNL     1      48.089  10.146  11.814  0.00  0.00    +0.000 A 
ATOM     12  C   UNL     1      48.949   9.052  11.768  0.00  0.00    +0.000 A 
ATOM     13  C   UNL     1      48.454   7.757  11.960  0.00  0.00    +0.000 A 
ENDBRANCH   6   8
ENDBRANCH   1   2
BRANCH   1  14
ATOM     14  C   UNL     1      44.058   2.597  10.441  0.00  0.00    +0.000 C 
BRANCH  14  19
ATOM     15  CA  UNL     1      46.469   2.067   7.702  0.00  0.00    +0.000 A 
ATOM     16  C   UNL     1      46.662   3.323   7.147  0.00  0.00    +0.000 A 
ATOM     17  C   UNL     1      45.973   4.391   7.710  0.00  0.00    +0.000 A 
ATOM     18  C   UNL     1      45.128   4.168   8.795  0.00  0.00    +0.000 A 
ATOM     19  C   UNL     1      44.987   2.872   9.289  0.00  0.00    +0.000 A 
ATOM     20  N   UNL     1      45.648   1.810   8.763  0.00  0.00    +0.000 NA
BRANCH  15  22
ATOM     21  O   UNL     1      47.968   0.909   6.209  0.00  0.00    +0.000 OA
ATOM     22  C   UNL     1      47.172   0.879   7.135  0.00  0.00    +0.000 C 
BRANCH  22  23
ATOM     23  OXT UNL     1      46.804  -0.247   7.791  0.00  0.00    +0.000 OA
ATOM     24  HXT UNL     1      47.468  -0.424   8.502  0.00  0.00    +0.000 HD
ENDBRANCH  22  23
ENDBRANCH  15  22
ENDBRANCH  14  19
ENDBRANCH   1  14
TORSDOF 6
ENDMDL
MODEL 3
REMARK VINA RESULT:    -7.336      1.298      2.086
REMARK INTER + INTRA:         -10.809
REMARK INTER:                  -9.873
REMARK INTRA:                  -0.936
REMARK UNBOUND:                -1.114
REMARK  Name = 
REMARK  6 active torsions:
REMARK  status: ('A' for Active; 'I' for Inactive)
REMARK    1  A    between atoms: C_2  and  OXT_3
REMARK    2  A    between atoms: C_2  and  CA_4
REMARK    3  A    between atoms: C_8  and  C_9
REMARK    4  A    between atoms: C_9  and  C_10
REMARK    5  A    between atoms: C_10  and  C_11
REMARK    6  A    between atoms: C_15  and  C_16
REMARK                            x       y       z     vdW  Elec       q    Type
REMARK                         _______ _______ _______ _____ _____    ______ ____
ROOT
ATOM      1  C   UNL     1      46.075   7.611  11.964  0.00  0.00    +0.000 C 
ENDROOT
BRANCH   1   2
ATOM      2  C   UNL     1      45.201   6.501  11.416  0.00  0.00    +0.000 A 
ATOM      3  C   UNL     1      43.823   6.449  11.651  0.00  0.00    +0.000 A 
ATOM      4  C   UNL     1      43.046   5.436  11.102  0.00  0.00    +0.000 A 
ATOM      5  C   UNL     1      43.629   4.482  10.269  0.00  0.00    +0.000 A 
ATOM      6  C   UNL     1      44.994   4.534   9.943  0.00  0.00    +0.000 A 
ATOM      7  C   UNL     1      45.768   5.540  10.557  0.00  0.00    +0.000 A 
BRANCH   6   8
ATOM      8  C   UNL     1      45.569   3.633   8.915  0.00  0.00    +0.000 A 
ATOM      9  C   UNL     1      46.264   4.165   7.810  0.00  0.00    +0.000 A 
ATOM     10  C   UNL     1      46.892   3.345   6.872  0.00  0.00    +0.000 A 
ATOM     11  C   UNL     1      46.848   1.963   7.021  0.00  0.00    +0.000 A 
ATOM     12  C   UNL     1      46.157   1.407   8.093  0.00  0.00    +0.000 A 
ATOM     13  C   UNL     1      45.516   2.233   9.024  0.00  0.00    +0.000 A 
ENDBRANCH   6   8
ENDBRANCH   1   2
BRANCH   1  14
ATOM     14  C   UNL     1      47.553   7.240  12.125  0.00  0.00    +0.000 C 
BRANCH  14  19
ATOM     15  CA  UNL     1      47.840   5.221  15.198  0.00  0.00    +0.000 A 
ATOM     16  C   UNL     1      48.533   6.025  16.091  0.00  0.00    +0.000 A 
ATOM     17  C   UNL     1      48.910   7.292  15.661  0.00  0.00    +0.000 A 
ATOM     18  C   UNL     1      48.585   7.704  14.371  0.00  0.00    +0.000 A 
ATOM     19  C   UNL     1      47.890   6.831  13.534  0.00  0.00    +0.000 A 
ATOM     20  N   UNL     1      47.506   5.590  13.926  0.00  0.00    +0.000 NA
BRANCH  15  22
ATOM     21  O   UNL     1      47.702   2.823  14.995  0.00  0.00    +0.000 OA
ATOM     22  C   UNL     1      47.416   3.847  15.597  0.00  0.00    +0.000 C 
BRANCH  22  23
ATOM     23  OXT UNL     1      46.666   3.889  16.722  0.00  0.00    +0.000 OA
ATOM     24  HXT UNL     1      47.166   4.393  17.411  0.00  0.00    +0.000 HD
ENDBRANCH  22  23
ENDBRANCH  15  22
ENDBRANCH  14  19
ENDBRANCH   1  14
TORSDOF 6
ENDMDL
MODEL 4
REMARK VINA RESULT:    -6.894      1.963      2.403
REMARK INTER + INTRA:         -10.224
REMARK INTER:                  -9.098
REMARK INTRA:                  -1.127
REMARK UNBOUND:                -1.114
REMARK  Name = 
REMARK  6 active torsions:
REMARK  status: ('A' for Active; 'I' for Inactive)
REMARK    1  A    between atoms: C_2  and  OXT_3
REMARK    2  A    between atoms: C_2  and  CA_4
REMARK    3  A    between atoms: C_8  and  C_9
REMARK    4  A    between atoms: C_9  and  C_10
REMARK    5  A    between atoms: C_10  and  C_11
REMARK    6  A    between atoms: C_15  and  C_16
REMARK                            x       y       z     vdW  Elec       q    Type
REMARK                         _______ _______ _______ _____ _____    ______ ____
ROOT
ATOM      1  C   UNL     1      43.897   6.642  11.031  0.00  0.00    +0.000 C 
ENDROOT
BRANCH   1   2
ATOM      2  C   UNL     1      44.014   5.143  10.841  0.00  0.00    +0.000 A 
ATOM      3  C   UNL     1      43.242   4.234  11.573  0.00  0.00    +0.000 A 
ATOM      4  C   UNL     1      43.349   2.867  11.346  0.00  0.00    +0.000 A 
ATOM      5  C   UNL     1      44.198   2.388  10.350  0.00  0.00    +0.000 A 
ATOM      6  C   UNL     1      44.938   3.264   9.538  0.00  0.00    +0.000 A 
ATOM      7  C   UNL     1      44.852   4.642   9.826  0.00  0.00    +0.000 A 
BRANCH   6   8
ATOM      8  C   UNL     1      45.693   2.764   8.364  0.00  0.00    +0.000 A 
ATOM      9  C   UNL     1      46.009   3.631   7.298  0.00  0.00    +0.000 A 
ATOM     10  C   UNL     1      46.792   3.217   6.220  0.00  0.00    +0.000 A 
ATOM     11  C   UNL     1      47.289   1.919   6.184  0.00  0.00    +0.000 A 
ATOM     12  C   UNL     1      46.982   1.034   7.213  0.00  0.00    +0.000 A 
ATOM     13  C   UNL     1      46.183   1.450   8.286  0.00  0.00    +0.000 A 
ENDBRANCH   6   8
ENDBRANCH   1   2
BRANCH   1  14
ATOM     14  C   UNL     1      44.387   7.153  12.389  0.00  0.00    +0.000 C 
BRANCH  14  19
ATOM     15  CA  UNL     1      48.073   7.072  12.444  0.00  0.00    +0.000 A 
ATOM     16  C   UNL     1      48.395   5.994  13.254  0.00  0.00    +0.000 A 
ATOM     17  C   UNL     1      47.349   5.256  13.795  0.00  0.00    +0.000 A 
ATOM     18  C   UNL     1      46.034   5.619  13.510  0.00  0.00    +0.000 A 
ATOM     19  C   UNL     1      45.797   6.721  12.689  0.00  0.00    +0.000 A 
ATOM     20  N   UNL     1      46.798   7.458  12.145  0.00  0.00    +0.000 NA
BRANCH  15  22
ATOM     21  O   UNL     1      48.995   9.026  11.374  0.00  0.00    +0.000 OA
ATOM     22  C   UNL     1      49.152   7.909  11.842  0.00  0.00    +0.000 C 
BRANCH  22  23
ATOM     23  OXT UNL     1      50.337   7.257  11.883  0.00  0.00    +0.000 OA
ATOM     24  HXT UNL     1      51.060   7.928  11.959  0.00  0.00    +0.000 HD
ENDBRANCH  22  23
ENDBRANCH  15  22
ENDBRANCH  14  19
ENDBRANCH   1  14
TORSDOF 6
ENDMDL
MODEL 5
REMARK VINA RESULT:    -6.883      2.116      4.379
REMARK INTER + INTRA:         -10.210
REMARK INTER:                  -9.386
REMARK INTRA:                  -0.824
REMARK UNBOUND:                -1.114
REMARK  Name = 
REMARK  6 active torsions:
REMARK  status: ('A' for Active; 'I' for Inactive)
REMARK    1  A    between atoms: C_2  and  OXT_3
REMARK    2  A    between atoms: C_2  and  CA_4
REMARK    3  A    between atoms: C_8  and  C_9
REMARK    4  A    between atoms: C_9  and  C_10
REMARK    5  A    between atoms: C_10  and  C_11
REMARK    6  A    between atoms: C_15  and  C_16
REMARK                            x       y       z     vdW  Elec       q    Type
REMARK                         _______ _______ _______ _____ _____    ______ ____
ROOT
ATOM      1  C   UNL     1      48.883   7.041  13.434  0.00  0.00    +0.000 C 
ENDROOT
BRANCH   1   2
ATOM      2  C   UNL     1      47.488   7.143  12.851  0.00  0.00    +0.000 A 
ATOM      3  C   UNL     1      46.731   8.318  12.924  0.00  0.00    +0.000 A 
ATOM      4  C   UNL     1      45.468   8.387  12.347  0.00  0.00    +0.000 A 
ATOM      5  C   UNL     1      44.960   7.295  11.645  0.00  0.00    +0.000 A 
ATOM      6  C   UNL     1      45.712   6.119  11.480  0.00  0.00    +0.000 A 
ATOM      7  C   UNL     1      46.966   6.057  12.123  0.00  0.00    +0.000 A 
BRANCH   6   8
ATOM      8  C   UNL     1      45.247   5.035  10.582  0.00  0.00    +0.000 A 
ATOM      9  C   UNL     1      45.580   5.052   9.212  0.00  0.00    +0.000 A 
ATOM     10  C   UNL     1      45.234   4.005   8.358  0.00  0.00    +0.000 A 
ATOM     11  C   UNL     1      44.549   2.903   8.855  0.00  0.00    +0.000 A 
ATOM     12  C   UNL     1      44.192   2.862  10.200  0.00  0.00    +0.000 A 
ATOM     13  C   UNL     1      44.528   3.922  11.051  0.00  0.00    +0.000 A 
ENDBRANCH   6   8
ENDBRANCH   1   2
BRANCH   1  14
ATOM     14  C   UNL     1      49.073   7.767  14.769  0.00  0.00    +0.000 C 
BRANCH  14  19
ATOM     15  CA  UNL     1      48.009   4.851  16.759  0.00  0.00    +0.000 A 
ATOM     16  C   UNL     1      48.140   5.252  18.079  0.00  0.00    +0.000 A 
ATOM     17  C   UNL     1      48.589   6.545  18.321  0.00  0.00    +0.000 A 
ATOM     18  C   UNL     1      48.885   7.380  17.246  0.00  0.00    +0.000 A 
ATOM     19  C   UNL     1      48.730   6.897  15.948  0.00  0.00    +0.000 A 
ATOM     20  N   UNL     1      48.292   5.640  15.681  0.00  0.00    +0.000 NA
BRANCH  15  22
ATOM     21  O   UNL     1      47.879   2.829  15.453  0.00  0.00    +0.000 OA
ATOM     22  C   UNL     1      47.541   3.471  16.435  0.00  0.00    +0.000 C 
BRANCH  22  23
ATOM     23  OXT UNL     1      46.685   3.025  17.384  0.00  0.00    +0.000 OA
ATOM     24  HXT UNL     1      47.204   2.521  18.058  0.00  0.00    +0.000 HD
ENDBRANCH  22  23
ENDBRANCH  15  22
ENDBRANCH  14  19
ENDBRANCH   1  14
TORSDOF 6
ENDMDL
MODEL 6
REMARK VINA RESULT:    -6.706      3.048      6.698
REMARK INTER + INTRA:          -9.976
REMARK INTER:                  -8.836
REMARK INTRA:                  -1.141
REMARK UNBOUND:                -1.114
REMARK  Name = 
REMARK  6 active torsions:
REMARK  status: ('A' for Active; 'I' for Inactive)
REMARK    1  A    between atoms: C_2  and  OXT_3
REMARK    2  A    between atoms: C_2  and  CA_4
REMARK    3  A    between atoms: C_8  and  C_9
REMARK    4  A    between atoms: C_9  and  C_10
REMARK    5  A    between atoms: C_10  and  C_11
REMARK    6  A    between atoms: C_15  and  C_16
REMARK                            x       y       z     vdW  Elec       q    Type
REMARK                         _______ _______ _______ _____ _____    ______ ____
ROOT
ATOM      1  C   UNL     1      43.753   5.122  12.090  0.00  0.00    +0.000 C 
ENDROOT
BRANCH   1   2
ATOM      2  C   UNL     1      45.087   5.393  12.755  0.00  0.00    +0.000 A 
ATOM      3  C   UNL     1      45.681   4.484  13.637  0.00  0.00    +0.000 A 
ATOM      4  C   UNL     1      46.924   4.749  14.201  0.00  0.00    +0.000 A 
ATOM      5  C   UNL     1      47.615   5.908  13.854  0.00  0.00    +0.000 A 
ATOM      6  C   UNL     1      47.095   6.816  12.916  0.00  0.00    +0.000 A 
ATOM      7  C   UNL     1      45.809   6.549  12.402  0.00  0.00    +0.000 A 
BRANCH   6   8
ATOM      8  C   UNL     1      47.911   7.947  12.413  0.00  0.00    +0.000 A 
ATOM      9  C   UNL     1      49.234   7.732  11.974  0.00  0.00    +0.000 A 
ATOM     10  C   UNL     1      49.999   8.756  11.414  0.00  0.00    +0.000 A 
ATOM     11  C   UNL     1      49.455  10.027  11.270  0.00  0.00    +0.000 A 
ATOM     12  C   UNL     1      48.157  10.275  11.708  0.00  0.00    +0.000 A 
ATOM     13  C   UNL     1      47.398   9.248  12.283  0.00  0.00    +0.000 A 
ENDBRANCH   6   8
ENDBRANCH   1   2
BRANCH   1  14
ATOM     14  C   UNL     1      43.748   5.310  10.570  0.00  0.00    +0.000 C 
BRANCH  14  19
ATOM     15  CA  UNL     1      45.610   3.280   8.118  0.00  0.00    +0.000 A 
ATOM     16  C   UNL     1      45.408   1.967   8.513  0.00  0.00    +0.000 A 
ATOM     17  C   UNL     1      44.612   1.744   9.631  0.00  0.00    +0.000 A 
ATOM     18  C   UNL     1      44.055   2.828  10.305  0.00  0.00    +0.000 A 
ATOM     19  C   UNL     1      44.312   4.119   9.843  0.00  0.00    +0.000 A 
ATOM     20  N   UNL     1      45.082   4.368   8.754  0.00  0.00    +0.000 NA
BRANCH  15  22
ATOM     21  O   UNL     1      46.495   2.928   5.903  0.00  0.00    +0.000 OA
ATOM     22  C   UNL     1      46.462   3.586   6.931  0.00  0.00    +0.000 C 
BRANCH  22  23
ATOM     23  OXT UNL     1      47.201   4.698   7.152  0.00  0.00    +0.000 OA
ATOM     24  HXT UNL     1      47.790   4.531   7.928  0.00  0.00    +0.000 HD
ENDBRANCH  22  23
ENDBRANCH  15  22
ENDBRANCH  14  19
ENDBRANCH   1  14
TORSDOF 6
ENDMDL
MODEL 7
REMARK VINA RESULT:    -6.636      1.740      2.628
REMARK INTER + INTRA:          -9.883
REMARK INTER:                  -9.176
REMARK INTRA:                  -0.708
REMARK UNBOUND:                -1.114
REMARK  Name = 
REMARK  6 active torsions:
REMARK  status: ('A' for Active; 'I' for Inactive)
REMARK    1  A    between atoms: C_2  and  OXT_3
REMARK    2  A    between atoms: C_2  and  CA_4
REMARK    3  A    between atoms: C_8  and  C_9
REMARK    4  A    between atoms: C_9  and  C_10
REMARK    5  A    between atoms: C_10  and  C_11
REMARK    6  A    between atoms: C_15  and  C_16
REMARK                            x       y       z     vdW  Elec       q    Type
REMARK                         _______ _______ _______ _____ _____    ______ ____
ROOT
ATOM      1  C   UNL     1      46.087   7.299  12.029  0.00  0.00    +0.000 C 
ENDROOT
BRANCH   1   2
ATOM      2  C   UNL     1      45.214   6.223  11.414  0.00  0.00    +0.000 A 
ATOM      3  C   UNL     1      43.833   6.167  11.628  0.00  0.00    +0.000 A 
ATOM      4  C   UNL     1      43.059   5.186  11.018  0.00  0.00    +0.000 A 
ATOM      5  C   UNL     1      43.648   4.273  10.146  0.00  0.00    +0.000 A 
ATOM      6  C   UNL     1      45.018   4.334   9.840  0.00  0.00    +0.000 A 
ATOM      7  C   UNL     1      45.788   5.303  10.515  0.00  0.00    +0.000 A 
BRANCH   6   8
ATOM      8  C   UNL     1      45.602   3.483   8.776  0.00  0.00    +0.000 A 
ATOM      9  C   UNL     1      46.224   4.070   7.656  0.00  0.00    +0.000 A 
ATOM     10  C   UNL     1      46.861   3.301   6.681  0.00  0.00    +0.000 A 
ATOM     11  C   UNL     1      46.898   1.917   6.805  0.00  0.00    +0.000 A 
ATOM     12  C   UNL     1      46.279   1.306   7.892  0.00  0.00    +0.000 A 
ATOM     13  C   UNL     1      45.629   2.081   8.861  0.00  0.00    +0.000 A 
ENDBRANCH   6   8
ENDBRANCH   1   2
BRANCH   1  14
ATOM     14  C   UNL     1      47.521   6.859  12.337  0.00  0.00    +0.000 C 
BRANCH  14  19
ATOM     15  CA  UNL     1      48.606   5.910  15.731  0.00  0.00    +0.000 A 
ATOM     16  C   UNL     1      47.815   4.824  16.069  0.00  0.00    +0.000 A 
ATOM     17  C   UNL     1      46.891   4.379  15.129  0.00  0.00    +0.000 A 
ATOM     18  C   UNL     1      46.795   5.029  13.901  0.00  0.00    +0.000 A 
ATOM     19  C   UNL     1      47.625   6.119  13.643  0.00  0.00    +0.000 A 
ATOM     20  N   UNL     1      48.538   6.574  14.539  0.00  0.00    +0.000 NA
BRANCH  15  22
ATOM     21  O   UNL     1      49.339   6.992  17.758  0.00  0.00    +0.000 OA
ATOM     22  C   UNL     1      49.608   6.441  16.701  0.00  0.00    +0.000 C 
BRANCH  22  23
ATOM     23  OXT UNL     1      50.865   6.230  16.247  0.00  0.00    +0.000 OA
ATOM     24  HXT UNL     1      51.274   7.107  16.042  0.00  0.00    +0.000 HD
ENDBRANCH  22  23
ENDBRANCH  15  22
ENDBRANCH  14  19
ENDBRANCH   1  14
TORSDOF 6
ENDMDL
MODEL 8
REMARK VINA RESULT:    -6.615      3.019      3.677
REMARK INTER + INTRA:          -9.856
REMARK INTER:                  -9.029
REMARK INTRA:                  -0.827
REMARK UNBOUND:                -1.114
REMARK  Name = 
REMARK  6 active torsions:
REMARK  status: ('A' for Active; 'I' for Inactive)
REMARK    1  A    between atoms: C_2  and  OXT_3
REMARK    2  A    between atoms: C_2  and  CA_4
REMARK    3  A    between atoms: C_8  and  C_9
REMARK    4  A    between atoms: C_9  and  C_10
REMARK    5  A    between atoms: C_10  and  C_11
REMARK    6  A    between atoms: C_15  and  C_16
REMARK                            x       y       z     vdW  Elec       q    Type
REMARK                         _______ _______ _______ _____ _____    ______ ____
ROOT
ATOM      1  C   UNL     1      45.035   6.105  12.460  0.00  0.00    +0.000 C 
ENDROOT
BRANCH   1   2
ATOM      2  C   UNL     1      44.666   4.785  11.814  0.00  0.00    +0.000 A 
ATOM      3  C   UNL     1      43.581   4.016  12.249  0.00  0.00    +0.000 A 
ATOM      4  C   UNL     1      43.250   2.827  11.609  0.00  0.00    +0.000 A 
ATOM      5  C   UNL     1      43.971   2.411  10.491  0.00  0.00    +0.000 A 
ATOM      6  C   UNL     1      45.021   3.185   9.970  0.00  0.00    +0.000 A 
ATOM      7  C   UNL     1      45.371   4.358  10.672  0.00  0.00    +0.000 A 
BRANCH   6   8
ATOM      8  C   UNL     1      45.662   2.835   8.680  0.00  0.00    +0.000 A 
ATOM      9  C   UNL     1      45.897   3.828   7.708  0.00  0.00    +0.000 A 
ATOM     10  C   UNL     1      46.576   3.551   6.521  0.00  0.00    +0.000 A 
ATOM     11  C   UNL     1      47.046   2.265   6.277  0.00  0.00    +0.000 A 
ATOM     12  C   UNL     1      46.815   1.258   7.209  0.00  0.00    +0.000 A 
ATOM     13  C   UNL     1      46.121   1.538   8.393  0.00  0.00    +0.000 A 
ENDBRANCH   6   8
ENDBRANCH   1   2
BRANCH   1  14
ATOM     14  C   UNL     1      46.531   6.430  12.438  0.00  0.00    +0.000 C 
BRANCH  14  19
ATOM     15  CA  UNL     1      45.970  10.030  11.866  0.00  0.00    +0.000 A 
ATOM     16  C   UNL     1      47.239  10.574  11.736  0.00  0.00    +0.000 A 
ATOM     17  C   UNL     1      48.325   9.711  11.829  0.00  0.00    +0.000 A 
ATOM     18  C   UNL     1      48.105   8.352  12.047  0.00  0.00    +0.000 A 
ATOM     19  C   UNL     1      46.796   7.888  12.172  0.00  0.00    +0.000 A 
ATOM     20  N   UNL     1      45.716   8.705  12.083  0.00  0.00    +0.000 NA
BRANCH  15  22
ATOM     21  O   UNL     1      43.657  10.544  11.421  0.00  0.00    +0.000 OA
ATOM     22  C   UNL     1      44.765  10.906  11.786  0.00  0.00    +0.000 C 
BRANCH  22  23
ATOM     23  OXT UNL     1      45.068  12.167  12.174  0.00  0.00    +0.000 OA
ATOM     24  HXT UNL     1      45.575  12.603  11.446  0.00  0.00    +0.000 HD
ENDBRANCH  22  23
ENDBRANCH  15  22
ENDBRANCH  14  19
ENDBRANCH   1  14
TORSDOF 6
ENDMDL
MODEL 9
REMARK VINA RESULT:    -6.502      3.590      6.062
REMARK INTER + INTRA:          -9.707
REMARK INTER:                  -8.728
REMARK INTRA:                  -0.979
REMARK UNBOUND:                -1.114
REMARK  Name = 
REMARK  6 active torsions:
REMARK  status: ('A' for Active; 'I' for Inactive)
REMARK    1  A    between atoms: C_2  and  OXT_3
REMARK    2  A    between atoms: C_2  and  CA_4
REMARK    3  A    between atoms: C_8  and  C_9
REMARK    4  A    between atoms: C_9  and  C_10
REMARK    5  A    between atoms: C_10  and  C_11
REMARK    6  A    between atoms: C_15  and  C_16
REMARK                            x       y       z     vdW  Elec       q    Type
REMARK                         _______ _______ _______ _____ _____    ______ ____
ROOT
ATOM      1  C   UNL     1      49.686   6.913  15.204  0.00  0.00    +0.000 C 
ENDROOT
BRANCH   1   2
ATOM      2  C   UNL     1      48.831   6.964  13.954  0.00  0.00    +0.000 A 
ATOM      3  C   UNL     1      49.258   7.596  12.781  0.00  0.00    +0.000 A 
ATOM      4  C   UNL     1      48.462   7.592  11.641  0.00  0.00    +0.000 A 
ATOM      5  C   UNL     1      47.244   6.914  11.642  0.00  0.00    +0.000 A 
ATOM      6  C   UNL     1      46.805   6.202  12.771  0.00  0.00    +0.000 A 
ATOM      7  C   UNL     1      47.606   6.269  13.930  0.00  0.00    +0.000 A 
BRANCH   6   8
ATOM      8  C   UNL     1      45.605   5.334  12.708  0.00  0.00    +0.000 A 
ATOM      9  C   UNL     1      44.323   5.873  12.938  0.00  0.00    +0.000 A 
ATOM     10  C   UNL     1      43.167   5.104  12.801  0.00  0.00    +0.000 A 
ATOM     11  C   UNL     1      43.263   3.770  12.421  0.00  0.00    +0.000 A 
ATOM     12  C   UNL     1      44.516   3.205  12.202  0.00  0.00    +0.000 A 
ATOM     13  C   UNL     1      45.674   3.976  12.355  0.00  0.00    +0.000 A 
ENDBRANCH   6   8
ENDBRANCH   1   2
BRANCH   1  14
ATOM     14  C   UNL     1      48.926   7.175  16.508  0.00  0.00    +0.000 C 
BRANCH  14  19
ATOM     15  CA  UNL     1      49.203   3.675  17.636  0.00  0.00    +0.000 A 
ATOM     16  C   UNL     1      48.694   3.673  18.925  0.00  0.00    +0.000 A 
ATOM     17  C   UNL     1      48.230   4.879  19.439  0.00  0.00    +0.000 A 
ATOM     18  C   UNL     1      48.290   6.028  18.654  0.00  0.00    +0.000 A 
ATOM     19  C   UNL     1      48.821   5.943  17.367  0.00  0.00    +0.000 A 
ATOM     20  N   UNL     1      49.280   4.781  16.838  0.00  0.00    +0.000 NA
BRANCH  15  22
ATOM     21  O   UNL     1      49.378   1.954  15.956  0.00  0.00    +0.000 OA
ATOM     22  C   UNL     1      49.726   2.414  17.032  0.00  0.00    +0.000 C 
BRANCH  22  23
ATOM     23  OXT UNL     1      50.646   1.845  17.846  0.00  0.00    +0.000 OA
ATOM     24  HXT UNL     1      50.168   1.347  18.555  0.00  0.00    +0.000 HD
ENDBRANCH  22  23
ENDBRANCH  15  22
ENDBRANCH  14  19
ENDBRANCH   1  14
TORSDOF 6
ENDMDL
