MODEL 1
REMARK VINA RESULT:    -6.885      0.000      0.000
REMARK INTER + INTRA:          -9.648
REMARK INTER:                  -8.897
REMARK INTRA:                  -0.750
REMARK UNBOUND:                -0.750
REMARK  Name = 
REMARK  8 active torsions:
REMARK  status: ('A' for Active; 'I' for Inactive)
REMARK    1  A    between atoms: C_1  and  C_2
REMARK    2  A    between atoms: C_4  and  N_5
REMARK    3  A    between atoms: N_5  and  C_6
REMARK    4  A    between atoms: C_6  and  C_7
REMARK    5  A    between atoms: C_11  and  C_12
REMARK    6  A    between atoms: N_17  and  C_18
REMARK    7  A    between atoms: C_21  and  C_22
REMARK    8  A    between atoms: C_21  and  C_23
REMARK                            x       y       z     vdW  Elec       q    Type
REMARK                         _______ _______ _______ _____ _____    ______ ____
ROOT
ATOM      1  C   UNL     1      49.747   7.649  11.789  0.00  0.00    +0.000 C 
ATOM      2  C   UNL     1      48.740   6.947  12.651  0.00  0.00    +0.000 A 
ATOM      3  C   UNL     1      47.534   6.534  12.130  0.00  0.00    +0.000 A 
ATOM      4  C   UNL     1      46.621   6.003  13.017  0.00  0.00    +0.000 A 
ATOM      5  N   UNL     1      46.926   5.828  14.316  0.00  0.00    +0.000 NA
ATOM      6  C   UNL     1      48.135   6.217  14.742  0.00  0.00    +0.000 A 
ATOM      7  N   UNL     1      48.498   6.066  16.078  0.00  0.00    +0.000 N 
ATOM      8  N   UNL     1      49.052   6.790  13.955  0.00  0.00    +0.000 NA
ATOM      9  H   UNL     1      49.508   6.176  16.094  0.00  0.00    +0.000 HD
ENDROOT
BRANCH   7  10
ATOM     10  C   UNL     1      48.010   4.861  16.754  0.00  0.00    +0.000 C 
ATOM     11  C   UNL     1      49.136   3.885  17.069  0.00  0.00    +0.000 C 
ATOM     12  O   UNL     1      49.766   4.372  18.267  0.00  0.00    +0.000 OA
ATOM     13  C   UNL     1      48.774   5.075  19.045  0.00  0.00    +0.000 C 
ATOM     14  C   UNL     1      49.350   6.436  19.438  0.00  0.00    +0.000 C 
ATOM     15  C   UNL     1      48.502   4.264  20.316  0.00  0.00    +0.000 C 
ATOM     16  C   UNL     1      47.529   5.207  18.158  0.00  0.00    +0.000 C 
ENDBRANCH   7  10
BRANCH   4  17
ATOM     17  N   UNL     1      45.385   5.548  12.513  0.00  0.00    +0.000 N 
ATOM     18  H   UNL     1      45.308   4.541  12.603  0.00  0.00    +0.000 HD
BRANCH  17  19
ATOM     19  C   UNL     1      45.152   5.946  11.126  0.00  0.00    +0.000 C 
BRANCH  19  20
ATOM     20  C   UNL     1      45.065   4.708  10.259  0.00  0.00    +0.000 A 
ATOM     21  C   UNL     1      44.379   3.564  10.683  0.00  0.00    +0.000 A 
ATOM     22  C   UNL     1      44.347   2.420   9.882  0.00  0.00    +0.000 A 
ATOM     23  C   UNL     1      44.993   2.411   8.644  0.00  0.00    +0.000 A 
ATOM     24  C   UNL     1      45.669   3.551   8.191  0.00  0.00    +0.000 A 
ATOM     25  C   UNL     1      45.710   4.687   9.011  0.00  0.00    +0.000 A 
BRANCH  24  26
ATOM     26  C   UNL     1      46.363   3.557   6.858  0.00  0.00    +0.000 C 
ATOM     27 CL   UNL     1      47.730   2.426   6.854  0.00  0.00    +0.000 Cl
ENDBRANCH  24  26
ENDBRANCH  19  20
ENDBRANCH  17  19
ENDBRANCH   4  17
TORSDOF 5
ENDMDL
MODEL 2
REMARK VINA RESULT:    -6.833      2.492      4.780
REMARK INTER + INTRA:          -9.581
REMARK INTER:                  -8.741
REMARK INTRA:                  -0.839
REMARK UNBOUND:                -0.750
REMARK  Name = 
REMARK  8 active torsions:
REMARK  status: ('A' for Active; 'I' for Inactive)
REMARK    1  A    between atoms: C_1  and  C_2
REMARK    2  A    between atoms: C_4  and  N_5
REMARK    3  A    between atoms: N_5  and  C_6
REMARK    4  A    between atoms: C_6  and  C_7
REMARK    5  A    between atoms: C_11  and  C_12
REMARK    6  A    between atoms: N_17  and  C_18
REMARK    7  A    between atoms: C_21  and  C_22
REMARK    8  A    between atoms: C_21  and  C_23
REMARK                            x       y       z     vdW  Elec       q    Type
REMARK                         _______ _______ _______ _____ _____    ______ ____
ROOT
ATOM      1  C   UNL     1      47.454   3.552  15.696  0.00  0.00    +0.000 C 
ATOM      2  C   UNL     1      47.163   4.614  14.677  0.00  0.00    +0.000 A 
ATOM      3  C   UNL     1      45.952   4.646  14.022  0.00  0.00    +0.000 A 
ATOM      4  C   UNL     1      45.811   5.582  13.018  0.00  0.00    +0.000 A 
ATOM      5  N   UNL     1      46.786   6.470  12.747  0.00  0.00    +0.000 NA
ATOM      6  C   UNL     1      47.922   6.402  13.453  0.00  0.00    +0.000 A 
ATOM      7  N   UNL     1      48.965   7.290  13.206  0.00  0.00    +0.000 N 
ATOM      8  N   UNL     1      48.153   5.489  14.403  0.00  0.00    +0.000 NA
ATOM      9  H   UNL     1      49.576   7.216  14.014  0.00  0.00    +0.000 HD
ENDROOT
BRANCH   7  10
ATOM     10  C   UNL     1      48.584   8.662  12.860  0.00  0.00    +0.000 C 
ATOM     11  C   UNL     1      49.407   9.695  13.619  0.00  0.00    +0.000 C 
ATOM     12  O   UNL     1      50.659   9.804  12.919  0.00  0.00    +0.000 OA
ATOM     13  C   UNL     1      50.425   9.506  11.526  0.00  0.00    +0.000 C 
ATOM     14  C   UNL     1      51.459   8.474  11.077  0.00  0.00    +0.000 C 
ATOM     15  C   UNL     1      50.626  10.794  10.722  0.00  0.00    +0.000 C 
ATOM     16  C   UNL     1      48.990   8.972  11.424  0.00  0.00    +0.000 C 
ENDBRANCH   7  10
BRANCH   4  17
ATOM     17  N   UNL     1      44.576   5.660  12.344  0.00  0.00    +0.000 N 
ATOM     18  H   UNL     1      44.049   4.801  12.456  0.00  0.00    +0.000 HD
BRANCH  17  19
ATOM     19  C   UNL     1      44.718   5.978  10.925  0.00  0.00    +0.000 C 
BRANCH  19  20
ATOM     20  C   UNL     1      44.837   4.693  10.134  0.00  0.00    +0.000 A 
ATOM     21  C   UNL     1      44.247   3.503  10.578  0.00  0.00    +0.000 A 
ATOM     22  C   UNL     1      44.405   2.321   9.850  0.00  0.00    +0.000 A 
ATOM     23  C   UNL     1      45.147   2.317   8.668  0.00  0.00    +0.000 A 
ATOM     24  C   UNL     1      45.729   3.500   8.194  0.00  0.00    +0.000 A 
ATOM     25  C   UNL     1      45.579   4.677   8.942  0.00  0.00    +0.000 A 
BRANCH  24  26
ATOM     26  C   UNL     1      46.525   3.511   6.919  0.00  0.00    +0.000 C 
ATOM     27 CL   UNL     1      47.721   2.201   6.911  0.00  0.00    +0.000 Cl
ENDBRANCH  24  26
ENDBRANCH  19  20
ENDBRANCH  17  19
ENDBRANCH   4  17
TORSDOF 5
ENDMDL
MODEL 3
REMARK VINA RESULT:    -6.505      3.870      8.999
REMARK INTER + INTRA:          -9.156
REMARK INTER:                  -8.430
REMARK INTRA:                  -0.727
REMARK UNBOUND:                -0.750
REMARK  Name = 
REMARK  8 active torsions:
REMARK  status: ('A' for Active; 'I' for Inactive)
REMARK    1  A    between atoms: C_1  and  C_2
REMARK    2  A    between atoms: C_4  and  N_5
REMARK    3  A    between atoms: N_5  and  C_6
REMARK    4  A    between atoms: C_6  and  C_7
REMARK    5  A    between atoms: C_11  and  C_12
REMARK    6  A    between atoms: N_17  and  C_18
REMARK    7  A    between atoms: C_21  and  C_22
REMARK    8  A    between atoms: C_21  and  C_23
REMARK                            x       y       z     vdW  Elec       q    Type
REMARK                         _______ _______ _______ _____ _____    ______ ____
ROOT
ATOM      1  C   UNL     1      49.941   1.853  16.719  0.00  0.00    +0.000 C 
ATOM      2  C   UNL     1      48.798   2.819  16.610  0.00  0.00    +0.000 A 
ATOM      3  C   UNL     1      48.387   3.549  17.703  0.00  0.00    +0.000 A 
ATOM      4  C   UNL     1      47.256   4.324  17.546  0.00  0.00    +0.000 A 
ATOM      5  N   UNL     1      46.633   4.419  16.358  0.00  0.00    +0.000 NA
ATOM      6  C   UNL     1      47.114   3.710  15.328  0.00  0.00    +0.000 A 
ATOM      7  N   UNL     1      46.501   3.766  14.080  0.00  0.00    +0.000 N 
ATOM      8  N   UNL     1      48.171   2.895  15.418  0.00  0.00    +0.000 NA
ATOM      9  H   UNL     1      47.179   3.377  13.431  0.00  0.00    +0.000 HD
ENDROOT
BRANCH   7  10
ATOM     10  C   UNL     1      45.958   5.066  13.678  0.00  0.00    +0.000 C 
ATOM     11  C   UNL     1      46.513   5.531  12.338  0.00  0.00    +0.000 C 
ATOM     12  O   UNL     1      45.758   4.839  11.329  0.00  0.00    +0.000 OA
ATOM     13  C   UNL     1      44.440   4.575  11.853  0.00  0.00    +0.000 C 
ATOM     14  C   UNL     1      44.120   3.098  11.623  0.00  0.00    +0.000 C 
ATOM     15  C   UNL     1      43.435   5.429  11.071  0.00  0.00    +0.000 C 
ATOM     16  C   UNL     1      44.477   4.935  13.344  0.00  0.00    +0.000 C 
ENDBRANCH   7  10
BRANCH   4  17
ATOM     17  N   UNL     1      46.822   5.102  18.638  0.00  0.00    +0.000 N 
ATOM     18  H   UNL     1      46.354   5.943  18.318  0.00  0.00    +0.000 HD
BRANCH  17  19
ATOM     19  C   UNL     1      47.903   5.451  19.558  0.00  0.00    +0.000 C 
BRANCH  19  20
ATOM     20  C   UNL     1      47.665   6.842  20.106  0.00  0.00    +0.000 A 
ATOM     21  C   UNL     1      47.434   7.061  21.470  0.00  0.00    +0.000 A 
ATOM     22  C   UNL     1      47.176   8.349  21.945  0.00  0.00    +0.000 A 
ATOM     23  C   UNL     1      47.155   9.432  21.065  0.00  0.00    +0.000 A 
ATOM     24  C   UNL     1      47.403   9.239  19.700  0.00  0.00    +0.000 A 
ATOM     25  C   UNL     1      47.642   7.939  19.230  0.00  0.00    +0.000 A 
BRANCH  24  26
ATOM     26  C   UNL     1      47.390  10.397  18.742  0.00  0.00    +0.000 C 
ATOM     27 CL   UNL     1      47.936   9.890  17.132  0.00  0.00    +0.000 Cl
ENDBRANCH  24  26
ENDBRANCH  19  20
ENDBRANCH  17  19
ENDBRANCH   4  17
TORSDOF 5
ENDMDL
MODEL 4
REMARK VINA RESULT:    -6.480      3.399      7.351
REMARK INTER + INTRA:          -9.124
REMARK INTER:                  -8.359
REMARK INTRA:                  -0.766
REMARK UNBOUND:                -0.750
REMARK  Name = 
REMARK  8 active torsions:
REMARK  status: ('A' for Active; 'I' for Inactive)
REMARK    1  A    between atoms: C_1  and  C_2
REMARK    2  A    between atoms: C_4  and  N_5
REMARK    3  A    between atoms: N_5  and  C_6
REMARK    4  A    between atoms: C_6  and  C_7
REMARK    5  A    between atoms: C_11  and  C_12
REMARK    6  A    between atoms: N_17  and  C_18
REMARK    7  A    between atoms: C_21  and  C_22
REMARK    8  A    between atoms: C_21  and  C_23
REMARK                            x       y       z     vdW  Elec       q    Type
REMARK                         _______ _______ _______ _____ _____    ______ ____
ROOT
ATOM      1  C   UNL     1      49.430   9.790  11.511  0.00  0.00    +0.000 C 
ATOM      2  C   UNL     1      49.027   8.633  12.377  0.00  0.00    +0.000 A 
ATOM      3  C   UNL     1      49.617   8.436  13.606  0.00  0.00    +0.000 A 
ATOM      4  C   UNL     1      49.273   7.285  14.284  0.00  0.00    +0.000 A 
ATOM      5  N   UNL     1      48.348   6.437  13.801  0.00  0.00    +0.000 NA
ATOM      6  C   UNL     1      47.787   6.716  12.617  0.00  0.00    +0.000 A 
ATOM      7  N   UNL     1      46.831   5.867  12.067  0.00  0.00    +0.000 N 
ATOM      8  N   UNL     1      48.109   7.782  11.875  0.00  0.00    +0.000 NA
ATOM      9  H   UNL     1      46.381   6.409  11.335  0.00  0.00    +0.000 HD
ENDROOT
BRANCH   7  10
ATOM     10  C   UNL     1      45.902   5.235  13.008  0.00  0.00    +0.000 C 
ATOM     11  C   UNL     1      44.500   5.823  12.913  0.00  0.00    +0.000 C 
ATOM     12  O   UNL     1      43.875   5.191  11.782  0.00  0.00    +0.000 OA
ATOM     13  C   UNL     1      44.443   3.873  11.631  0.00  0.00    +0.000 C 
ATOM     14  C   UNL     1      44.865   3.698  10.172  0.00  0.00    +0.000 C 
ATOM     15  C   UNL     1      43.357   2.844  11.961  0.00  0.00    +0.000 C 
ATOM     16  C   UNL     1      45.636   3.793  12.593  0.00  0.00    +0.000 C 
ENDBRANCH   7  10
BRANCH   4  17
ATOM     17  N   UNL     1      49.840   7.064  15.556  0.00  0.00    +0.000 N 
ATOM     18  H   UNL     1      50.590   6.383  15.504  0.00  0.00    +0.000 HD
BRANCH  17  19
ATOM     19  C   UNL     1      48.858   6.650  16.556  0.00  0.00    +0.000 C 
BRANCH  19  20
ATOM     20  C   UNL     1      49.021   5.170  16.835  0.00  0.00    +0.000 A 
ATOM     21  C   UNL     1      47.933   4.290  16.777  0.00  0.00    +0.000 A 
ATOM     22  C   UNL     1      48.101   2.937  17.078  0.00  0.00    +0.000 A 
ATOM     23  C   UNL     1      49.360   2.447  17.431  0.00  0.00    +0.000 A 
ATOM     24  C   UNL     1      50.466   3.305  17.476  0.00  0.00    +0.000 A 
ATOM     25  C   UNL     1      50.282   4.665  17.190  0.00  0.00    +0.000 A 
BRANCH  24  26
ATOM     26  C   UNL     1      51.828   2.789  17.849  0.00  0.00    +0.000 C 
ATOM     27 CL   UNL     1      51.967   1.058  17.488  0.00  0.00    +0.000 Cl
ENDBRANCH  24  26
ENDBRANCH  19  20
ENDBRANCH  17  19
ENDBRANCH   4  17
TORSDOF 5
ENDMDL
MODEL 5
REMARK VINA RESULT:    -6.251      2.654      4.356
REMARK INTER + INTRA:          -8.829
REMARK INTER:                  -8.225
REMARK INTRA:                  -0.604
REMARK UNBOUND:                -0.750
REMARK  Name = 
REMARK  8 active torsions:
REMARK  status: ('A' for Active; 'I' for Inactive)
REMARK    1  A    between atoms: C_1  and  C_2
REMARK    2  A    between atoms: C_4  and  N_5
REMARK    3  A    between atoms: N_5  and  C_6
REMARK    4  A    between atoms: C_6  and  C_7
REMARK    5  A    between atoms: C_11  and  C_12
REMARK    6  A    between atoms: N_17  and  C_18
REMARK    7  A    between atoms: C_21  and  C_22
REMARK    8  A    between atoms: C_21  and  C_23
REMARK                            x       y       z     vdW  Elec       q    Type
REMARK                         _______ _______ _______ _____ _____    ______ ____
ROOT
ATOM      1  C   UNL     1      50.473   1.896  17.212  0.00  0.00    +0.000 C 
ATOM      2  C   UNL     1      49.408   2.949  17.305  0.00  0.00    +0.000 A 
ATOM      3  C   UNL     1      48.438   3.055  16.333  0.00  0.00    +0.000 A 
ATOM      4  C   UNL     1      47.570   4.122  16.434  0.00  0.00    +0.000 A 
ATOM      5  N   UNL     1      47.623   4.972  17.475  0.00  0.00    +0.000 NA
ATOM      6  C   UNL     1      48.570   4.782  18.403  0.00  0.00    +0.000 A 
ATOM      7  N   UNL     1      48.674   5.638  19.495  0.00  0.00    +0.000 N 
ATOM      8  N   UNL     1      49.481   3.804  18.345  0.00  0.00    +0.000 NA
ATOM      9  H   UNL     1      49.263   5.149  20.164  0.00  0.00    +0.000 HD
ENDROOT
BRANCH   7  10
ATOM     10  C   UNL     1      47.416   6.141  20.053  0.00  0.00    +0.000 C 
ATOM     11  C   UNL     1      47.345   5.961  21.563  0.00  0.00    +0.000 C 
ATOM     12  O   UNL     1      48.097   7.047  22.132  0.00  0.00    +0.000 OA
ATOM     13  C   UNL     1      48.018   8.172  21.232  0.00  0.00    +0.000 C 
ATOM     14  C   UNL     1      49.434   8.694  20.992  0.00  0.00    +0.000 C 
ATOM     15  C   UNL     1      47.191   9.269  21.910  0.00  0.00    +0.000 C 
ATOM     16  C   UNL     1      47.363   7.660  19.942  0.00  0.00    +0.000 C 
ENDBRANCH   7  10
BRANCH   4  17
ATOM     17  N   UNL     1      46.549   4.246  15.469  0.00  0.00    +0.000 N 
ATOM     18  H   UNL     1      45.753   3.667  15.710  0.00  0.00    +0.000 HD
BRANCH  17  19
ATOM     19  C   UNL     1      47.001   3.938  14.114  0.00  0.00    +0.000 C 
BRANCH  19  20
ATOM     20  C   UNL     1      45.939   4.364  13.123  0.00  0.00    +0.000 A 
ATOM     21  C   UNL     1      45.365   5.641  13.169  0.00  0.00    +0.000 A 
ATOM     22  C   UNL     1      44.357   5.995  12.269  0.00  0.00    +0.000 A 
ATOM     23  C   UNL     1      43.919   5.082  11.309  0.00  0.00    +0.000 A 
ATOM     24  C   UNL     1      44.493   3.807  11.231  0.00  0.00    +0.000 A 
ATOM     25  C   UNL     1      45.490   3.454  12.152  0.00  0.00    +0.000 A 
BRANCH  24  26
ATOM     26  C   UNL     1      44.034   2.816  10.198  0.00  0.00    +0.000 C 
ATOM     27 CL   UNL     1      45.407   2.214   9.250  0.00  0.00    +0.000 Cl
ENDBRANCH  24  26
ENDBRANCH  19  20
ENDBRANCH  17  19
ENDBRANCH   4  17
TORSDOF 5
ENDMDL
MODEL 6
REMARK VINA RESULT:    -6.200      4.230      8.133
REMARK INTER + INTRA:          -8.762
REMARK INTER:                  -8.157
REMARK INTRA:                  -0.605
REMARK UNBOUND:                -0.750
REMARK  Name = 
REMARK  8 active torsions:
REMARK  status: ('A' for Active; 'I' for Inactive)
REMARK    1  A    between atoms: C_1  and  C_2
REMARK    2  A    between atoms: C_4  and  N_5
REMARK    3  A    between atoms: N_5  and  C_6
REMARK    4  A    between atoms: C_6  and  C_7
REMARK    5  A    between atoms: C_11  and  C_12
REMARK    6  A    between atoms: N_17  and  C_18
REMARK    7  A    between atoms: C_21  and  C_22
REMARK    8  A    between atoms: C_21  and  C_23
REMARK                            x       y       z     vdW  Elec       q    Type
REMARK                         _______ _______ _______ _____ _____    ______ ____
ROOT
ATOM      1  C   UNL     1      46.802   3.955  14.241  0.00  0.00    +0.000 C 
ATOM      2  C   UNL     1      46.089   4.635  13.110  0.00  0.00    +0.000 A 
ATOM      3  C   UNL     1      45.775   5.974  13.181  0.00  0.00    +0.000 A 
ATOM      4  C   UNL     1      45.018   6.492  12.150  0.00  0.00    +0.000 A 
ATOM      5  N   UNL     1      44.669   5.739  11.091  0.00  0.00    +0.000 NA
ATOM      6  C   UNL     1      45.045   4.454  11.073  0.00  0.00    +0.000 A 
ATOM      7  N   UNL     1      44.703   3.629  10.005  0.00  0.00    +0.000 N 
ATOM      8  N   UNL     1      45.732   3.867  12.060  0.00  0.00    +0.000 NA
ATOM      9  H   UNL     1      45.306   2.816  10.091  0.00  0.00    +0.000 HD
ENDROOT
BRANCH   7  10
ATOM     10  C   UNL     1      44.708   4.248   8.677  0.00  0.00    +0.000 C 
ATOM     11  C   UNL     1      46.030   4.938   8.370  0.00  0.00    +0.000 C 
ATOM     12  O   UNL     1      46.937   3.903   7.954  0.00  0.00    +0.000 OA
ATOM     13  C   UNL     1      46.167   2.849   7.339  0.00  0.00    +0.000 C 
ATOM     14  C   UNL     1      46.587   1.519   7.967  0.00  0.00    +0.000 C 
ATOM     15  C   UNL     1      46.505   2.821   5.844  0.00  0.00    +0.000 C 
ATOM     16  C   UNL     1      44.689   3.171   7.598  0.00  0.00    +0.000 C 
ENDBRANCH   7  10
BRANCH   4  17
ATOM     17  N   UNL     1      44.699   7.865  12.179  0.00  0.00    +0.000 N 
ATOM     18  H   UNL     1      44.655   8.244  11.239  0.00  0.00    +0.000 HD
BRANCH  17  19
ATOM     19  C   UNL     1      45.625   8.650  12.993  0.00  0.00    +0.000 C 
BRANCH  19  20
ATOM     20  C   UNL     1      46.192   9.778  12.157  0.00  0.00    +0.000 A 
ATOM     21  C   UNL     1      45.362  10.729  11.551  0.00  0.00    +0.000 A 
ATOM     22  C   UNL     1      45.906  11.736  10.751  0.00  0.00    +0.000 A 
ATOM     23  C   UNL     1      47.287  11.810  10.557  0.00  0.00    +0.000 A 
ATOM     24  C   UNL     1      48.138  10.882  11.170  0.00  0.00    +0.000 A 
ATOM     25  C   UNL     1      47.579   9.864  11.955  0.00  0.00    +0.000 A 
BRANCH  24  26
ATOM     26  C   UNL     1      49.627  10.954  10.974  0.00  0.00    +0.000 C 
ATOM     27 CL   UNL     1      50.387   9.395  11.346  0.00  0.00    +0.000 Cl
ENDBRANCH  24  26
ENDBRANCH  19  20
ENDBRANCH  17  19
ENDBRANCH   4  17
TORSDOF 5
ENDMDL
MODEL 7
REMARK VINA RESULT:    -6.144      4.393      8.241
REMARK INTER + INTRA:          -8.690
REMARK INTER:                  -8.122
REMARK INTRA:                  -0.568
REMARK UNBOUND:                -0.750
REMARK  Name = 
REMARK  8 active torsions:
REMARK  status: ('A' for Active; 'I' for Inactive)
REMARK    1  A    between atoms: C_1  and  C_2
REMARK    2  A    between atoms: C_4  and  N_5
REMARK    3  A    between atoms: N_5  and  C_6
REMARK    4  A    between atoms: C_6  and  C_7
REMARK    5  A    between atoms: C_11  and  C_12
REMARK    6  A    between atoms: N_17  and  C_18
REMARK    7  A    between atoms: C_21  and  C_22
REMARK    8  A    between atoms: C_21  and  C_23
REMARK                            x       y       z     vdW  Elec       q    Type
REMARK                         _______ _______ _______ _____ _____    ______ ____
ROOT
ATOM      1  C   UNL     1      46.840   3.908  14.273  0.00  0.00    +0.000 C 
ATOM      2  C   UNL     1      46.078   4.558  13.156  0.00  0.00    +0.000 A 
ATOM      3  C   UNL     1      45.658   5.866  13.259  0.00  0.00    +0.000 A 
ATOM      4  C   UNL     1      44.864   6.348  12.239  0.00  0.00    +0.000 A 
ATOM      5  N   UNL     1      44.580   5.597  11.159  0.00  0.00    +0.000 NA
ATOM      6  C   UNL     1      45.058   4.347  11.110  0.00  0.00    +0.000 A 
ATOM      7  N   UNL     1      44.786   3.526  10.019  0.00  0.00    +0.000 N 
ATOM      8  N   UNL     1      45.787   3.792  12.084  0.00  0.00    +0.000 NA
ATOM      9  H   UNL     1      45.453   2.762  10.087  0.00  0.00    +0.000 HD
ENDROOT
BRANCH   7  10
ATOM     10  C   UNL     1      44.745   4.177   8.707  0.00  0.00    +0.000 C 
ATOM     11  C   UNL     1      46.039   4.917   8.393  0.00  0.00    +0.000 C 
ATOM     12  O   UNL     1      46.970   3.921   7.934  0.00  0.00    +0.000 OA
ATOM     13  C   UNL     1      46.221   2.859   7.306  0.00  0.00    +0.000 C 
ATOM     14  C   UNL     1      46.694   1.528   7.892  0.00  0.00    +0.000 C 
ATOM     15  C   UNL     1      46.530   2.879   5.806  0.00  0.00    +0.000 C 
ATOM     16  C   UNL     1      44.739   3.128   7.602  0.00  0.00    +0.000 C 
ENDBRANCH   7  10
BRANCH   4  17
ATOM     17  N   UNL     1      44.437   7.689  12.301  0.00  0.00    +0.000 N 
ATOM     18  H   UNL     1      44.155   8.021  11.385  0.00  0.00    +0.000 HD
BRANCH  17  19
ATOM     19  C   UNL     1      45.443   8.585  12.869  0.00  0.00    +0.000 C 
BRANCH  19  20
ATOM     20  C   UNL     1      45.581   9.807  11.986  0.00  0.00    +0.000 A 
ATOM     21  C   UNL     1      46.824  10.410  11.759  0.00  0.00    +0.000 A 
ATOM     22  C   UNL     1      46.920  11.560  10.973  0.00  0.00    +0.000 A 
ATOM     23  C   UNL     1      45.775  12.115  10.398  0.00  0.00    +0.000 A 
ATOM     24  C   UNL     1      44.524  11.518  10.594  0.00  0.00    +0.000 A 
ATOM     25  C   UNL     1      44.437  10.374  11.400  0.00  0.00    +0.000 A 
BRANCH  24  26
ATOM     26  C   UNL     1      43.285  12.102   9.976  0.00  0.00    +0.000 C 
ATOM     27 CL   UNL     1      42.919  11.312   8.430  0.00  0.00    +0.000 Cl
ENDBRANCH  24  26
ENDBRANCH  19  20
ENDBRANCH  17  19
ENDBRANCH   4  17
TORSDOF 5
ENDMDL
MODEL 8
REMARK VINA RESULT:    -6.078      3.533      5.460
REMARK INTER + INTRA:          -8.605
REMARK INTER:                  -7.967
REMARK INTRA:                  -0.638
REMARK UNBOUND:                -0.750
REMARK  Name = 
REMARK  8 active torsions:
REMARK  status: ('A' for Active; 'I' for Inactive)
REMARK    1  A    between atoms: C_1  and  C_2
REMARK    2  A    between atoms: C_4  and  N_5
REMARK    3  A    between atoms: N_5  and  C_6
REMARK    4  A    between atoms: C_6  and  C_7
REMARK    5  A    between atoms: C_11  and  C_12
REMARK    6  A    between atoms: N_17  and  C_18
REMARK    7  A    between atoms: C_21  and  C_22
REMARK    8  A    between atoms: C_21  and  C_23
REMARK                            x       y       z     vdW  Elec       q    Type
REMARK                         _______ _______ _______ _____ _____    ______ ____
ROOT
ATOM      1  C   UNL     1      44.525   3.170  11.439  0.00  0.00    +0.000 C 
ATOM      2  C   UNL     1      45.434   4.041  12.255  0.00  0.00    +0.000 A 
ATOM      3  C   UNL     1      45.769   5.306  11.823  0.00  0.00    +0.000 A 
ATOM      4  C   UNL     1      46.701   5.993  12.572  0.00  0.00    +0.000 A 
ATOM      5  N   UNL     1      47.199   5.480  13.712  0.00  0.00    +0.000 NA
ATOM      6  C   UNL     1      46.796   4.260  14.090  0.00  0.00    +0.000 A 
ATOM      7  N   UNL     1      47.287   3.680  15.256  0.00  0.00    +0.000 N 
ATOM      8  N   UNL     1      45.938   3.511  13.388  0.00  0.00    +0.000 NA
ATOM      9  H   UNL     1      46.656   2.910  15.459  0.00  0.00    +0.000 HD
ENDROOT
BRANCH   7  10
ATOM     10  C   UNL     1      47.520   4.583  16.386  0.00  0.00    +0.000 C 
ATOM     11  C   UNL     1      47.014   4.002  17.699  0.00  0.00    +0.000 C 
ATOM     12  O   UNL     1      48.027   3.085  18.149  0.00  0.00    +0.000 OA
ATOM     13  C   UNL     1      49.304   3.548  17.660  0.00  0.00    +0.000 C 
ATOM     14  C   UNL     1      50.015   2.372  16.990  0.00  0.00    +0.000 C 
ATOM     15  C   UNL     1      50.135   4.013  18.860  0.00  0.00    +0.000 C 
ATOM     16  C   UNL     1      49.013   4.688  16.674  0.00  0.00    +0.000 C 
ENDBRANCH   7  10
BRANCH   4  17
ATOM     17  N   UNL     1      47.048   7.299  12.173  0.00  0.00    +0.000 N 
ATOM     18  H   UNL     1      48.051   7.384  12.047  0.00  0.00    +0.000 HD
BRANCH  17  19
ATOM     19  C   UNL     1      46.572   8.326  13.098  0.00  0.00    +0.000 C 
BRANCH  19  20
ATOM     20  C   UNL     1      46.212   9.573  12.318  0.00  0.00    +0.000 A 
ATOM     21  C   UNL     1      47.198  10.436  11.823  0.00  0.00    +0.000 A 
ATOM     22  C   UNL     1      46.840  11.602  11.142  0.00  0.00    +0.000 A 
ATOM     23  C   UNL     1      45.494  11.913  10.941  0.00  0.00    +0.000 A 
ATOM     24  C   UNL     1      44.491  11.055  11.411  0.00  0.00    +0.000 A 
ATOM     25  C   UNL     1      44.862   9.897  12.109  0.00  0.00    +0.000 A 
BRANCH  24  26
ATOM     26  C   UNL     1      43.039  11.375  11.196  0.00  0.00    +0.000 C 
ATOM     27 CL   UNL     1      42.443  10.632   9.700  0.00  0.00    +0.000 Cl
ENDBRANCH  24  26
ENDBRANCH  19  20
ENDBRANCH  17  19
ENDBRANCH   4  17
TORSDOF 5
ENDMDL
MODEL 9
REMARK VINA RESULT:    -5.945      3.447      7.859
REMARK INTER + INTRA:          -8.433
REMARK INTER:                  -7.566
REMARK INTRA:                  -0.867
REMARK UNBOUND:                -0.750
REMARK  Name = 
REMARK  8 active torsions:
REMARK  status: ('A' for Active; 'I' for Inactive)
REMARK    1  A    between atoms: C_1  and  C_2
REMARK    2  A    between atoms: C_4  and  N_5
REMARK    3  A    between atoms: N_5  and  C_6
REMARK    4  A    between atoms: C_6  and  C_7
REMARK    5  A    between atoms: C_11  and  C_12
REMARK    6  A    between atoms: N_17  and  C_18
REMARK    7  A    between atoms: C_21  and  C_22
REMARK    8  A    between atoms: C_21  and  C_23
REMARK                            x       y       z     vdW  Elec       q    Type
REMARK                         _______ _______ _______ _____ _____    ______ ____
ROOT
ATOM      1  C   UNL     1      47.323  10.695  12.160  0.00  0.00    +0.000 C 
ATOM      2  C   UNL     1      47.287   9.277  12.649  0.00  0.00    +0.000 A 
ATOM      3  C   UNL     1      48.253   8.806  13.510  0.00  0.00    +0.000 A 
ATOM      4  C   UNL     1      48.212   7.462  13.817  0.00  0.00    +0.000 A 
ATOM      5  N   UNL     1      47.229   6.668  13.357  0.00  0.00    +0.000 NA
ATOM      6  C   UNL     1      46.301   7.206  12.556  0.00  0.00    +0.000 A 
ATOM      7  N   UNL     1      45.266   6.427  12.044  0.00  0.00    +0.000 N 
ATOM      8  N   UNL     1      46.305   8.487  12.169  0.00  0.00    +0.000 NA
ATOM      9  H   UNL     1      44.574   7.089  11.706  0.00  0.00    +0.000 HD
ENDROOT
BRANCH   7  10
ATOM     10  C   UNL     1      44.729   5.393  12.933  0.00  0.00    +0.000 C 
ATOM     11  C   UNL     1      43.206   5.370  12.932  0.00  0.00    +0.000 C 
ATOM     12  O   UNL     1      42.816   4.643  11.754  0.00  0.00    +0.000 OA
ATOM     13  C   UNL     1      43.853   3.686  11.450  0.00  0.00    +0.000 C 
ATOM     14  C   UNL     1      44.217   3.827   9.972  0.00  0.00    +0.000 C 
ATOM     15  C   UNL     1      43.292   2.281  11.692  0.00  0.00    +0.000 C 
ATOM     16  C   UNL     1      45.037   4.009  12.372  0.00  0.00    +0.000 C 
ENDBRANCH   7  10
BRANCH   4  17
ATOM     17  N   UNL     1      49.172   6.952  14.715  0.00  0.00    +0.000 N 
ATOM     18  H   UNL     1      48.906   6.029  15.042  0.00  0.00    +0.000 HD
BRANCH  17  19
ATOM     19  C   UNL     1      49.416   7.834  15.854  0.00  0.00    +0.000 C 
BRANCH  19  20
ATOM     20  C   UNL     1      48.785   7.236  17.094  0.00  0.00    +0.000 A 
ATOM     21  C   UNL     1      48.170   8.039  18.063  0.00  0.00    +0.000 A 
ATOM     22  C   UNL     1      47.632   7.467  19.218  0.00  0.00    +0.000 A 
ATOM     23  C   UNL     1      47.694   6.087  19.413  0.00  0.00    +0.000 A 
ATOM     24  C   UNL     1      48.287   5.262  18.449  0.00  0.00    +0.000 A 
ATOM     25  C   UNL     1      48.841   5.848  17.302  0.00  0.00    +0.000 A 
BRANCH  24  26
ATOM     26  C   UNL     1      48.356   3.773  18.644  0.00  0.00    +0.000 C 
ATOM     27 CL   UNL     1      47.292   2.937  17.497  0.00  0.00    +0.000 Cl
ENDBRANCH  24  26
ENDBRANCH  19  20
ENDBRANCH  17  19
ENDBRANCH   4  17
TORSDOF 5
ENDMDL
