MODEL 1
REMARK VINA RESULT:    -8.167      0.000      0.000
REMARK INTER + INTRA:         -11.944
REMARK INTER:                 -11.032
REMARK INTRA:                  -0.912
REMARK UNBOUND:                -0.912
REMARK  Name = 
REMARK  7 active torsions:
REMARK  status: ('A' for Active; 'I' for Inactive)
REMARK    1  A    between atoms: C_1  and  N_2
REMARK    2  A    between atoms: N_2  and  C_3
REMARK    3  A    between atoms: C_3  and  C_4
REMARK    4  A    between atoms: C_7  and  C_8
REMARK    5  A    between atoms: C_8  and  N_9
REMARK    6  A    between atoms: C_10  and  C_12
REMARK    7  A    between atoms: C_24  and  C_26
REMARK                            x       y       z     vdW  Elec       q    Type
REMARK                         _______ _______ _______ _____ _____    ______ ____
ROOT
ATOM      1  C   UNL     1      46.423   4.691  13.372  0.00  0.00    +0.000 A 
ATOM      2  C   UNL     1      46.712   4.292  14.686  0.00  0.00    +0.000 A 
ATOM      3  C   UNL     1      47.598   5.029  15.475  0.00  0.00    +0.000 A 
ATOM      4  C   UNL     1      48.203   6.187  14.968  0.00  0.00    +0.000 A 
ATOM      5  C   UNL     1      47.913   6.583  13.654  0.00  0.00    +0.000 A 
ATOM      6  C   UNL     1      47.022   5.851  12.868  0.00  0.00    +0.000 A 
ENDROOT
BRANCH   1   7
ATOM      7  C   UNL     1      45.500   3.864  12.515  0.00  0.00    +0.000 C 
BRANCH   7   9
ATOM      8  C   UNL     1      43.325   5.118  12.959  0.00  0.00    +0.000 C 
ATOM      9  N   UNL     1      44.257   4.482  12.038  0.00  0.00    +0.000 N 
ATOM     10  C   UNL     1      43.887   4.484  10.678  0.00  0.00    +0.000 C 
ATOM     11  O   UNL     1      42.883   5.079  10.278  0.00  0.00    +0.000 OA
BRANCH  10  12
ATOM     12  C   UNL     1      44.734   3.783   9.651  0.00  0.00    +0.000 A 
ATOM     13  C   UNL     1      45.487   4.542   8.761  0.00  0.00    +0.000 A 
ATOM     14  C   UNL     1      46.248   3.877   7.798  0.00  0.00    +0.000 A 
ATOM     15  C   UNL     1      46.235   2.487   7.761  0.00  0.00    +0.000 A 
ATOM     16  C   UNL     1      45.459   1.812   8.685  0.00  0.00    +0.000 A 
ATOM     17  N   UNL     1      44.705   2.426   9.617  0.00  0.00    +0.000 NA
ENDBRANCH  10  12
ENDBRANCH   7   9
ENDBRANCH   1   7
BRANCH   4  18
ATOM     18  C   UNL     1      49.186   6.983  15.788  0.00  0.00    +0.000 C 
BRANCH  18  19
ATOM     19  N   UNL     1      50.227   6.139  16.309  0.00  0.00    +0.000 N 
ATOM     20  C   UNL     1      50.234   5.734  17.619  0.00  0.00    +0.000 C 
ATOM     21  O   UNL     1      49.351   6.047  18.407  0.00  0.00    +0.000 OA
ATOM     22  H   UNL     1      51.092   6.097  15.779  0.00  0.00    +0.000 HD
BRANCH  20  23
ATOM     23  C   UNL     1      51.330   4.836  18.009  0.00  0.00    +0.000 A 
ATOM     24  C   UNL     1      52.450   5.356  18.645  0.00  0.00    +0.000 A 
ATOM     25  S   UNL     1      53.599   4.169  19.079  0.00  0.00    +0.000 S 
ATOM     26  C   UNL     1      52.663   2.930  18.384  0.00  0.00    +0.000 A 
ATOM     27  N   UNL     1      53.099   1.642  18.384  0.00  0.00    +0.000 NA
ATOM     28  C   UNL     1      52.303   0.811  17.795  0.00  0.00    +0.000 A 
ATOM     29  N   UNL     1      51.109   1.151  17.214  0.00  0.00    +0.000 N 
ATOM     30  C   UNL     1      50.614   2.432  17.223  0.00  0.00    +0.000 A 
ATOM     31  O   UNL     1      49.513   2.692  16.748  0.00  0.00    +0.000 OA
ATOM     32  C   UNL     1      51.480   3.410  17.851  0.00  0.00    +0.000 A 
ATOM     33  H   UNL     1      50.523   0.449  16.785  0.00  0.00    +0.000 HD
ENDBRANCH  20  23
ENDBRANCH  18  19
ENDBRANCH   4  18
TORSDOF 6
ENDMDL
MODEL 2
REMARK VINA RESULT:    -7.546      2.477      2.922
REMARK INTER + INTRA:         -11.104
REMARK INTER:                 -10.764
REMARK INTRA:                  -0.341
REMARK UNBOUND:                -0.912
REMARK  Name = 
REMARK  7 active torsions:
REMARK  status: ('A' for Active; 'I' for Inactive)
REMARK    1  A    between atoms: C_1  and  N_2
REMARK    2  A    between atoms: N_2  and  C_3
REMARK    3  A    between atoms: C_3  and  C_4
REMARK    4  A    between atoms: C_7  and  C_8
REMARK    5  A    between atoms: C_8  and  N_9
REMARK    6  A    between atoms: C_10  and  C_12
REMARK    7  A    between atoms: C_24  and  C_26
REMARK                            x       y       z     vdW  Elec       q    Type
REMARK                         _______ _______ _______ _____ _____    ______ ____
ROOT
ATOM      1  C   UNL     1      45.399   6.692  11.475  0.00  0.00    +0.000 A 
ATOM      2  C   UNL     1      45.016   7.928  12.017  0.00  0.00    +0.000 A 
ATOM      3  C   UNL     1      45.866   8.620  12.883  0.00  0.00    +0.000 A 
ATOM      4  C   UNL     1      47.121   8.093  13.215  0.00  0.00    +0.000 A 
ATOM      5  C   UNL     1      47.501   6.856  12.673  0.00  0.00    +0.000 A 
ATOM      6  C   UNL     1      46.656   6.169  11.801  0.00  0.00    +0.000 A 
ENDROOT
BRANCH   1   7
ATOM      7  C   UNL     1      44.456   5.933  10.577  0.00  0.00    +0.000 C 
BRANCH   7   9
ATOM      8  C   UNL     1      42.868   4.898  12.281  0.00  0.00    +0.000 C 
ATOM      9  N   UNL     1      43.754   4.770  11.134  0.00  0.00    +0.000 N 
ATOM     10  C   UNL     1      43.907   3.472  10.606  0.00  0.00    +0.000 C 
ATOM     11  O   UNL     1      43.249   2.518  11.028  0.00  0.00    +0.000 OA
BRANCH  10  12
ATOM     12  C   UNL     1      44.862   3.211   9.474  0.00  0.00    +0.000 A 
ATOM     13  C   UNL     1      45.310   4.280   8.704  0.00  0.00    +0.000 A 
ATOM     14  C   UNL     1      46.175   4.017   7.641  0.00  0.00    +0.000 A 
ATOM     15  C   UNL     1      46.566   2.708   7.388  0.00  0.00    +0.000 A 
ATOM     16  C   UNL     1      46.075   1.706   8.205  0.00  0.00    +0.000 A 
ATOM     17  N   UNL     1      45.228   1.926   9.230  0.00  0.00    +0.000 NA
ENDBRANCH  10  12
ENDBRANCH   7   9
ENDBRANCH   1   7
BRANCH   4  18
ATOM     18  C   UNL     1      48.044   8.804  14.171  0.00  0.00    +0.000 C 
BRANCH  18  19
ATOM     19  N   UNL     1      48.280   8.010  15.347  0.00  0.00    +0.000 N 
ATOM     20  C   UNL     1      49.516   7.484  15.622  0.00  0.00    +0.000 C 
ATOM     21  O   UNL     1      50.487   7.678  14.900  0.00  0.00    +0.000 OA
ATOM     22  H   UNL     1      47.465   7.606  15.799  0.00  0.00    +0.000 HD
BRANCH  20  23
ATOM     23  C   UNL     1      49.630   6.731  16.878  0.00  0.00    +0.000 A 
ATOM     24  C   UNL     1      50.417   7.229  17.909  0.00  0.00    +0.000 A 
ATOM     25  S   UNL     1      50.390   6.259  19.314  0.00  0.00    +0.000 S 
ATOM     26  C   UNL     1      49.370   5.117  18.574  0.00  0.00    +0.000 A 
ATOM     27  N   UNL     1      48.981   3.995  19.239  0.00  0.00    +0.000 NA
ATOM     28  C   UNL     1      48.233   3.200  18.545  0.00  0.00    +0.000 A 
ATOM     29  N   UNL     1      47.835   3.429  17.255  0.00  0.00    +0.000 N 
ATOM     30  C   UNL     1      48.174   4.565  16.560  0.00  0.00    +0.000 A 
ATOM     31  O   UNL     1      47.750   4.768  15.427  0.00  0.00    +0.000 OA
ATOM     32  C   UNL     1      49.034   5.481  17.283  0.00  0.00    +0.000 A 
ATOM     33  H   UNL     1      47.233   2.776  16.774  0.00  0.00    +0.000 HD
ENDBRANCH  20  23
ENDBRANCH  18  19
ENDBRANCH   4  18
TORSDOF 6
ENDMDL
MODEL 3
REMARK VINA RESULT:    -7.435      3.394     10.224
REMARK INTER + INTRA:         -10.954
REMARK INTER:                  -9.716
REMARK INTRA:                  -1.239
REMARK UNBOUND:                -0.912
REMARK  Name = 
REMARK  7 active torsions:
REMARK  status: ('A' for Active; 'I' for Inactive)
REMARK    1  A    between atoms: C_1  and  N_2
REMARK    2  A    between atoms: N_2  and  C_3
REMARK    3  A    between atoms: C_3  and  C_4
REMARK    4  A    between atoms: C_7  and  C_8
REMARK    5  A    between atoms: C_8  and  N_9
REMARK    6  A    between atoms: C_10  and  C_12
REMARK    7  A    between atoms: C_24  and  C_26
REMARK                            x       y       z     vdW  Elec       q    Type
REMARK                         _______ _______ _______ _____ _____    ______ ____
ROOT
ATOM      1  C   UNL     1      51.536   3.645  17.627  0.00  0.00    +0.000 A 
ATOM      2  C   UNL     1      50.760   4.813  17.580  0.00  0.00    +0.000 A 
ATOM      3  C   UNL     1      49.389   4.747  17.323  0.00  0.00    +0.000 A 
ATOM      4  C   UNL     1      48.766   3.509  17.119  0.00  0.00    +0.000 A 
ATOM      5  C   UNL     1      49.544   2.343  17.165  0.00  0.00    +0.000 A 
ATOM      6  C   UNL     1      50.912   2.408  17.430  0.00  0.00    +0.000 A 
ENDROOT
BRANCH   1   7
ATOM      7  C   UNL     1      53.023   3.732  17.861  0.00  0.00    +0.000 C 
BRANCH   7   9
ATOM      8  C   UNL     1      54.228   1.690  18.797  0.00  0.00    +0.000 C 
ATOM      9  N   UNL     1      53.591   2.985  18.990  0.00  0.00    +0.000 N 
ATOM     10  C   UNL     1      53.542   3.464  20.315  0.00  0.00    +0.000 C 
ATOM     11  O   UNL     1      54.096   2.868  21.241  0.00  0.00    +0.000 OA
BRANCH  10  12
ATOM     12  C   UNL     1      52.834   4.751  20.640  0.00  0.00    +0.000 A 
ATOM     13  C   UNL     1      51.569   4.702  21.216  0.00  0.00    +0.000 A 
ATOM     14  C   UNL     1      50.915   5.905  21.487  0.00  0.00    +0.000 A 
ATOM     15  C   UNL     1      51.544   7.107  21.183  0.00  0.00    +0.000 A 
ATOM     16  C   UNL     1      52.804   7.062  20.613  0.00  0.00    +0.000 A 
ATOM     17  N   UNL     1      53.455   5.918  20.327  0.00  0.00    +0.000 NA
ENDBRANCH  10  12
ENDBRANCH   7   9
ENDBRANCH   1   7
BRANCH   4  18
ATOM     18  C   UNL     1      47.294   3.412  16.810  0.00  0.00    +0.000 C 
BRANCH  18  19
ATOM     19  N   UNL     1      46.900   4.413  15.855  0.00  0.00    +0.000 N 
ATOM     20  C   UNL     1      46.921   4.167  14.507  0.00  0.00    +0.000 C 
ATOM     21  O   UNL     1      47.251   3.083  14.043  0.00  0.00    +0.000 OA
ATOM     22  H   UNL     1      46.895   5.376  16.177  0.00  0.00    +0.000 HD
BRANCH  20  23
ATOM     23  C   UNL     1      46.451   5.261  13.646  0.00  0.00    +0.000 A 
ATOM     24  C   UNL     1      47.252   6.380  13.457  0.00  0.00    +0.000 A 
ATOM     25  S   UNL     1      46.580   7.526  12.385  0.00  0.00    +0.000 S 
ATOM     26  C   UNL     1      45.175   6.590  12.178  0.00  0.00    +0.000 A 
ATOM     27  N   UNL     1      44.157   7.025  11.387  0.00  0.00    +0.000 NA
ATOM     28  C   UNL     1      43.139   6.230  11.346  0.00  0.00    +0.000 A 
ATOM     29  N   UNL     1      43.051   5.038  12.017  0.00  0.00    +0.000 N 
ATOM     30  C   UNL     1      44.069   4.543  12.796  0.00  0.00    +0.000 A 
ATOM     31  O   UNL     1      43.982   3.444  13.333  0.00  0.00    +0.000 OA
ATOM     32  C   UNL     1      45.227   5.409  12.896  0.00  0.00    +0.000 A 
ATOM     33  H   UNL     1      42.233   4.452  11.927  0.00  0.00    +0.000 HD
ENDBRANCH  20  23
ENDBRANCH  18  19
ENDBRANCH   4  18
TORSDOF 6
ENDMDL
MODEL 4
REMARK VINA RESULT:    -7.407      1.854      3.144
REMARK INTER + INTRA:         -10.917
REMARK INTER:                  -9.882
REMARK INTRA:                  -1.036
REMARK UNBOUND:                -0.912
REMARK  Name = 
REMARK  7 active torsions:
REMARK  status: ('A' for Active; 'I' for Inactive)
REMARK    1  A    between atoms: C_1  and  N_2
REMARK    2  A    between atoms: N_2  and  C_3
REMARK    3  A    between atoms: C_3  and  C_4
REMARK    4  A    between atoms: C_7  and  C_8
REMARK    5  A    between atoms: C_8  and  N_9
REMARK    6  A    between atoms: C_10  and  C_12
REMARK    7  A    between atoms: C_24  and  C_26
REMARK                            x       y       z     vdW  Elec       q    Type
REMARK                         _______ _______ _______ _____ _____    ______ ____
ROOT
ATOM      1  C   UNL     1      47.452   5.679  13.687  0.00  0.00    +0.000 A 
ATOM      2  C   UNL     1      46.903   4.388  13.705  0.00  0.00    +0.000 A 
ATOM      3  C   UNL     1      46.965   3.604  14.859  0.00  0.00    +0.000 A 
ATOM      4  C   UNL     1      47.570   4.101  16.021  0.00  0.00    +0.000 A 
ATOM      5  C   UNL     1      48.120   5.392  16.000  0.00  0.00    +0.000 A 
ATOM      6  C   UNL     1      48.049   6.179  14.850  0.00  0.00    +0.000 A 
ENDROOT
BRANCH   1   7
ATOM      7  C   UNL     1      47.418   6.499  12.423  0.00  0.00    +0.000 C 
BRANCH   7   9
ATOM      8  C   UNL     1      46.393   8.790  12.869  0.00  0.00    +0.000 C 
ATOM      9  N   UNL     1      46.330   7.471  12.256  0.00  0.00    +0.000 N 
ATOM     10  C   UNL     1      45.166   7.183  11.514  0.00  0.00    +0.000 C 
ATOM     11  O   UNL     1      44.298   8.035  11.311  0.00  0.00    +0.000 OA
BRANCH  10  12
ATOM     12  C   UNL     1      44.960   5.822  10.908  0.00  0.00    +0.000 A 
ATOM     13  C   UNL     1      45.590   5.511   9.707  0.00  0.00    +0.000 A 
ATOM     14  C   UNL     1      45.368   4.254   9.145  0.00  0.00    +0.000 A 
ATOM     15  C   UNL     1      44.534   3.353   9.799  0.00  0.00    +0.000 A 
ATOM     16  C   UNL     1      43.950   3.744  10.989  0.00  0.00    +0.000 A 
ATOM     17  N   UNL     1      44.135   4.955  11.550  0.00  0.00    +0.000 NA
ENDBRANCH  10  12
ENDBRANCH   7   9
ENDBRANCH   1   7
BRANCH   4  18
ATOM     18  C   UNL     1      47.678   3.265  17.270  0.00  0.00    +0.000 C 
BRANCH  18  19
ATOM     19  N   UNL     1      49.052   3.094  17.659  0.00  0.00    +0.000 N 
ATOM     20  C   UNL     1      49.893   2.255  16.974  0.00  0.00    +0.000 C 
ATOM     21  O   UNL     1      49.532   1.626  15.987  0.00  0.00    +0.000 OA
ATOM     22  H   UNL     1      49.299   3.368  18.605  0.00  0.00    +0.000 HD
BRANCH  20  23
ATOM     23  C   UNL     1      51.283   2.209  17.449  0.00  0.00    +0.000 A 
ATOM     24  C   UNL     1      51.908   0.981  17.627  0.00  0.00    +0.000 A 
ATOM     25  S   UNL     1      53.535   1.112  18.126  0.00  0.00    +0.000 S 
ATOM     26  C   UNL     1      53.443   2.810  18.173  0.00  0.00    +0.000 A 
ATOM     27  N   UNL     1      54.511   3.556  18.562  0.00  0.00    +0.000 NA
ATOM     28  C   UNL     1      54.291   4.830  18.581  0.00  0.00    +0.000 A 
ATOM     29  N   UNL     1      53.103   5.422  18.239  0.00  0.00    +0.000 N 
ATOM     30  C   UNL     1      52.012   4.710  17.805  0.00  0.00    +0.000 A 
ATOM     31  O   UNL     1      50.984   5.275  17.448  0.00  0.00    +0.000 OA
ATOM     32  C   UNL     1      52.197   3.272  17.789  0.00  0.00    +0.000 A 
ATOM     33  H   UNL     1      53.002   6.427  18.256  0.00  0.00    +0.000 HD
ENDBRANCH  20  23
ENDBRANCH  18  19
ENDBRANCH   4  18
TORSDOF 6
ENDMDL
MODEL 5
REMARK VINA RESULT:    -7.366      3.466      8.470
REMARK INTER + INTRA:         -10.861
REMARK INTER:                  -9.349
REMARK INTRA:                  -1.512
REMARK UNBOUND:                -0.912
REMARK  Name = 
REMARK  7 active torsions:
REMARK  status: ('A' for Active; 'I' for Inactive)
REMARK    1  A    between atoms: C_1  and  N_2
REMARK    2  A    between atoms: N_2  and  C_3
REMARK    3  A    between atoms: C_3  and  C_4
REMARK    4  A    between atoms: C_7  and  C_8
REMARK    5  A    between atoms: C_8  and  N_9
REMARK    6  A    between atoms: C_10  and  C_12
REMARK    7  A    between atoms: C_24  and  C_26
REMARK                            x       y       z     vdW  Elec       q    Type
REMARK                         _______ _______ _______ _____ _____    ______ ____
ROOT
ATOM      1  C   UNL     1      49.204   7.580  16.354  0.00  0.00    +0.000 A 
ATOM      2  C   UNL     1      49.562   6.678  15.340  0.00  0.00    +0.000 A 
ATOM      3  C   UNL     1      49.178   6.905  14.017  0.00  0.00    +0.000 A 
ATOM      4  C   UNL     1      48.436   8.045  13.680  0.00  0.00    +0.000 A 
ATOM      5  C   UNL     1      48.078   8.945  14.695  0.00  0.00    +0.000 A 
ATOM      6  C   UNL     1      48.470   8.723  16.016  0.00  0.00    +0.000 A 
ENDROOT
BRANCH   1   7
ATOM      7  C   UNL     1      49.586   7.302  17.785  0.00  0.00    +0.000 C 
BRANCH   7   9
ATOM      8  C   UNL     1      48.126   8.224  19.660  0.00  0.00    +0.000 C 
ATOM      9  N   UNL     1      48.511   7.138  18.770  0.00  0.00    +0.000 N 
ATOM     10  C   UNL     1      47.804   5.928  18.923  0.00  0.00    +0.000 C 
ATOM     11  O   UNL     1      46.847   5.827  19.694  0.00  0.00    +0.000 OA
BRANCH  10  12
ATOM     12  C   UNL     1      48.175   4.715  18.112  0.00  0.00    +0.000 A 
ATOM     13  C   UNL     1      47.351   4.324  17.061  0.00  0.00    +0.000 A 
ATOM     14  C   UNL     1      47.696   3.183  16.336  0.00  0.00    +0.000 A 
ATOM     15  C   UNL     1      48.844   2.478  16.679  0.00  0.00    +0.000 A 
ATOM     16  C   UNL     1      49.606   2.939  17.737  0.00  0.00    +0.000 A 
ATOM     17  N   UNL     1      49.293   4.030  18.464  0.00  0.00    +0.000 NA
ENDBRANCH  10  12
ENDBRANCH   7   9
ENDBRANCH   1   7
BRANCH   4  18
ATOM     18  C   UNL     1      47.982   8.299  12.265  0.00  0.00    +0.000 C 
BRANCH  18  19
ATOM     19  N   UNL     1      47.363   7.128  11.705  0.00  0.00    +0.000 N 
ATOM     20  C   UNL     1      46.019   7.084  11.440  0.00  0.00    +0.000 C 
ATOM     21  O   UNL     1      45.279   8.039  11.641  0.00  0.00    +0.000 OA
ATOM     22  H   UNL     1      47.874   6.254  11.789  0.00  0.00    +0.000 HD
BRANCH  20  23
ATOM     23  C   UNL     1      45.524   5.844  10.826  0.00  0.00    +0.000 A 
ATOM     24  C   UNL     1      45.779   5.591   9.484  0.00  0.00    +0.000 A 
ATOM     25  S   UNL     1      45.185   4.083   8.950  0.00  0.00    +0.000 S 
ATOM     26  C   UNL     1      44.521   3.740  10.479  0.00  0.00    +0.000 A 
ATOM     27  N   UNL     1      43.832   2.589  10.698  0.00  0.00    +0.000 NA
ATOM     28  C   UNL     1      43.356   2.474  11.895  0.00  0.00    +0.000 A 
ATOM     29  N   UNL     1      43.516   3.401  12.891  0.00  0.00    +0.000 N 
ATOM     30  C   UNL     1      44.236   4.559  12.724  0.00  0.00    +0.000 A 
ATOM     31  O   UNL     1      44.412   5.339  13.655  0.00  0.00    +0.000 OA
ATOM     32  C   UNL     1      44.771   4.750  11.391  0.00  0.00    +0.000 A 
ATOM     33  H   UNL     1      43.135   3.242  13.813  0.00  0.00    +0.000 HD
ENDBRANCH  20  23
ENDBRANCH  18  19
ENDBRANCH   4  18
TORSDOF 6
ENDMDL
MODEL 6
REMARK VINA RESULT:    -7.338      3.320      8.773
REMARK INTER + INTRA:         -10.824
REMARK INTER:                  -9.219
REMARK INTRA:                  -1.605
REMARK UNBOUND:                -0.912
REMARK  Name = 
REMARK  7 active torsions:
REMARK  status: ('A' for Active; 'I' for Inactive)
REMARK    1  A    between atoms: C_1  and  N_2
REMARK    2  A    between atoms: N_2  and  C_3
REMARK    3  A    between atoms: C_3  and  C_4
REMARK    4  A    between atoms: C_7  and  C_8
REMARK    5  A    between atoms: C_8  and  N_9
REMARK    6  A    between atoms: C_10  and  C_12
REMARK    7  A    between atoms: C_24  and  C_26
REMARK                            x       y       z     vdW  Elec       q    Type
REMARK                         _______ _______ _______ _____ _____    ______ ____
ROOT
ATOM      1  C   UNL     1      49.223   7.856  16.061  0.00  0.00    +0.000 A 
ATOM      2  C   UNL     1      49.612   6.874  15.138  0.00  0.00    +0.000 A 
ATOM      3  C   UNL     1      49.085   6.863  13.844  0.00  0.00    +0.000 A 
ATOM      4  C   UNL     1      48.166   7.842  13.446  0.00  0.00    +0.000 A 
ATOM      5  C   UNL     1      47.777   8.823  14.371  0.00  0.00    +0.000 A 
ATOM      6  C   UNL     1      48.311   8.839  15.660  0.00  0.00    +0.000 A 
ENDROOT
BRANCH   1   7
ATOM      7  C   UNL     1      49.765   7.832  17.467  0.00  0.00    +0.000 C 
BRANCH   7   9
ATOM      8  C   UNL     1      48.526   8.990  19.370  0.00  0.00    +0.000 C 
ATOM      9  N   UNL     1      48.806   7.801  18.578  0.00  0.00    +0.000 N 
ATOM     10  C   UNL     1      48.118   6.628  18.951  0.00  0.00    +0.000 C 
ATOM     11  O   UNL     1      47.254   6.633  19.830  0.00  0.00    +0.000 OA
BRANCH  10  12
ATOM     12  C   UNL     1      48.393   5.323  18.254  0.00  0.00    +0.000 A 
ATOM     13  C   UNL     1      47.453   4.820  17.361  0.00  0.00    +0.000 A 
ATOM     14  C   UNL     1      47.712   3.596  16.743  0.00  0.00    +0.000 A 
ATOM     15  C   UNL     1      48.894   2.923  17.030  0.00  0.00    +0.000 A 
ATOM     16  C   UNL     1      49.773   3.497  17.930  0.00  0.00    +0.000 A 
ATOM     17  N   UNL     1      49.546   4.671  18.552  0.00  0.00    +0.000 NA
ENDBRANCH  10  12
ENDBRANCH   7   9
ENDBRANCH   1   7
BRANCH   4  18
ATOM     18  C   UNL     1      47.559   7.836  12.066  0.00  0.00    +0.000 C 
BRANCH  18  19
ATOM     19  N   UNL     1      46.864   6.601  11.815  0.00  0.00    +0.000 N 
ATOM     20  C   UNL     1      45.519   6.474  12.049  0.00  0.00    +0.000 C 
ATOM     21  O   UNL     1      44.834   7.402  12.460  0.00  0.00    +0.000 OA
ATOM     22  H   UNL     1      47.431   5.761  11.749  0.00  0.00    +0.000 HD
BRANCH  20  23
ATOM     23  C   UNL     1      44.927   5.174  11.706  0.00  0.00    +0.000 A 
ATOM     24  C   UNL     1      44.202   4.475  12.664  0.00  0.00    +0.000 A 
ATOM     25  S   UNL     1      43.537   3.015  12.081  0.00  0.00    +0.000 S 
ATOM     26  C   UNL     1      44.238   3.241  10.548  0.00  0.00    +0.000 A 
ATOM     27  N   UNL     1      44.079   2.316   9.565  0.00  0.00    +0.000 NA
ATOM     28  C   UNL     1      44.692   2.601   8.463  0.00  0.00    +0.000 A 
ATOM     29  N   UNL     1      45.440   3.730   8.255  0.00  0.00    +0.000 N 
ATOM     30  C   UNL     1      45.596   4.708   9.207  0.00  0.00    +0.000 A 
ATOM     31  O   UNL     1      46.221   5.736   8.967  0.00  0.00    +0.000 OA
ATOM     32  C   UNL     1      44.948   4.426  10.473  0.00  0.00    +0.000 A 
ATOM     33  H   UNL     1      45.879   3.904   7.361  0.00  0.00    +0.000 HD
ENDBRANCH  20  23
ENDBRANCH  18  19
ENDBRANCH   4  18
TORSDOF 6
ENDMDL
MODEL 7
REMARK VINA RESULT:    -7.294      3.226      4.847
REMARK INTER + INTRA:         -10.765
REMARK INTER:                  -9.710
REMARK INTRA:                  -1.055
REMARK UNBOUND:                -0.912
REMARK  Name = 
REMARK  7 active torsions:
REMARK  status: ('A' for Active; 'I' for Inactive)
REMARK    1  A    between atoms: C_1  and  N_2
REMARK    2  A    between atoms: N_2  and  C_3
REMARK    3  A    between atoms: C_3  and  C_4
REMARK    4  A    between atoms: C_7  and  C_8
REMARK    5  A    between atoms: C_8  and  N_9
REMARK    6  A    between atoms: C_10  and  C_12
REMARK    7  A    between atoms: C_24  and  C_26
REMARK                            x       y       z     vdW  Elec       q    Type
REMARK                         _______ _______ _______ _____ _____    ______ ____
ROOT
ATOM      1  C   UNL     1      46.479   4.636  13.361  0.00  0.00    +0.000 A 
ATOM      2  C   UNL     1      47.019   5.818  12.831  0.00  0.00    +0.000 A 
ATOM      3  C   UNL     1      47.857   6.627  13.603  0.00  0.00    +0.000 A 
ATOM      4  C   UNL     1      48.178   6.263  14.917  0.00  0.00    +0.000 A 
ATOM      5  C   UNL     1      47.635   5.082  15.445  0.00  0.00    +0.000 A 
ATOM      6  C   UNL     1      46.806   4.270  14.671  0.00  0.00    +0.000 A 
ENDROOT
BRANCH   1   7
ATOM      7  C   UNL     1      45.541   3.795  12.535  0.00  0.00    +0.000 C 
BRANCH   7   9
ATOM      8  C   UNL     1      43.344   4.996  13.011  0.00  0.00    +0.000 C 
ATOM      9  N   UNL     1      44.287   4.403  12.074  0.00  0.00    +0.000 N 
ATOM     10  C   UNL     1      43.919   4.437  10.714  0.00  0.00    +0.000 C 
ATOM     11  O   UNL     1      42.905   5.024  10.329  0.00  0.00    +0.000 OA
BRANCH  10  12
ATOM     12  C   UNL     1      44.780   3.781   9.668  0.00  0.00    +0.000 A 
ATOM     13  C   UNL     1      45.507   4.578   8.791  0.00  0.00    +0.000 A 
ATOM     14  C   UNL     1      46.280   3.954   7.811  0.00  0.00    +0.000 A 
ATOM     15  C   UNL     1      46.306   2.565   7.745  0.00  0.00    +0.000 A 
ATOM     16  C   UNL     1      45.554   1.851   8.659  0.00  0.00    +0.000 A 
ATOM     17  N   UNL     1      44.787   2.424   9.607  0.00  0.00    +0.000 NA
ENDBRANCH  10  12
ENDBRANCH   7   9
ENDBRANCH   1   7
BRANCH   4  18
ATOM     18  C   UNL     1      49.054   7.133  15.781  0.00  0.00    +0.000 C 
BRANCH  18  19
ATOM     19  N   UNL     1      48.490   7.289  17.095  0.00  0.00    +0.000 N 
ATOM     20  C   UNL     1      49.264   7.202  18.224  0.00  0.00    +0.000 C 
ATOM     21  O   UNL     1      50.473   7.010  18.177  0.00  0.00    +0.000 OA
ATOM     22  H   UNL     1      47.486   7.168  17.180  0.00  0.00    +0.000 HD
BRANCH  20  23
ATOM     23  C   UNL     1      48.569   7.426  19.499  0.00  0.00    +0.000 A 
ATOM     24  C   UNL     1      48.643   6.465  20.499  0.00  0.00    +0.000 A 
ATOM     25  S   UNL     1      47.828   6.910  21.932  0.00  0.00    +0.000 S 
ATOM     26  C   UNL     1      47.307   8.377  21.246  0.00  0.00    +0.000 A 
ATOM     27  N   UNL     1      46.523   9.237  21.949  0.00  0.00    +0.000 NA
ATOM     28  C   UNL     1      46.175  10.296  21.294  0.00  0.00    +0.000 A 
ATOM     29  N   UNL     1      46.547  10.575  20.005  0.00  0.00    +0.000 N 
ATOM     30  C   UNL     1      47.368   9.753  19.272  0.00  0.00    +0.000 A 
ATOM     31  O   UNL     1      47.732  10.062  18.142  0.00  0.00    +0.000 OA
ATOM     32  C   UNL     1      47.768   8.537  19.951  0.00  0.00    +0.000 A 
ATOM     33  H   UNL     1      46.257  11.432  19.556  0.00  0.00    +0.000 HD
ENDBRANCH  20  23
ENDBRANCH  18  19
ENDBRANCH   4  18
TORSDOF 6
ENDMDL
MODEL 8
REMARK VINA RESULT:    -7.293      3.171      3.885
REMARK INTER + INTRA:         -10.763
REMARK INTER:                  -9.823
REMARK INTRA:                  -0.939
REMARK UNBOUND:                -0.912
REMARK  Name = 
REMARK  7 active torsions:
REMARK  status: ('A' for Active; 'I' for Inactive)
REMARK    1  A    between atoms: C_1  and  N_2
REMARK    2  A    between atoms: N_2  and  C_3
REMARK    3  A    between atoms: C_3  and  C_4
REMARK    4  A    between atoms: C_7  and  C_8
REMARK    5  A    between atoms: C_8  and  N_9
REMARK    6  A    between atoms: C_10  and  C_12
REMARK    7  A    between atoms: C_24  and  C_26
REMARK                            x       y       z     vdW  Elec       q    Type
REMARK                         _______ _______ _______ _____ _____    ______ ____
ROOT
ATOM      1  C   UNL     1      46.435   4.646  13.287  0.00  0.00    +0.000 A 
ATOM      2  C   UNL     1      46.953   5.825  12.730  0.00  0.00    +0.000 A 
ATOM      3  C   UNL     1      47.806   6.648  13.469  0.00  0.00    +0.000 A 
ATOM      4  C   UNL     1      48.165   6.301  14.778  0.00  0.00    +0.000 A 
ATOM      5  C   UNL     1      47.645   5.123  15.334  0.00  0.00    +0.000 A 
ATOM      6  C   UNL     1      46.800   4.296  14.592  0.00  0.00    +0.000 A 
ENDROOT
BRANCH   1   7
ATOM      7  C   UNL     1      45.481   3.789  12.496  0.00  0.00    +0.000 C 
BRANCH   7   9
ATOM      8  C   UNL     1      43.286   5.003  12.946  0.00  0.00    +0.000 C 
ATOM      9  N   UNL     1      44.233   4.398  12.021  0.00  0.00    +0.000 N 
ATOM     10  C   UNL     1      43.874   4.421  10.658  0.00  0.00    +0.000 C 
ATOM     11  O   UNL     1      42.866   5.009  10.261  0.00  0.00    +0.000 OA
BRANCH  10  12
ATOM     12  C   UNL     1      44.740   3.752   9.625  0.00  0.00    +0.000 A 
ATOM     13  C   UNL     1      45.481   4.538   8.748  0.00  0.00    +0.000 A 
ATOM     14  C   UNL     1      46.258   3.902   7.780  0.00  0.00    +0.000 A 
ATOM     15  C   UNL     1      46.275   2.513   7.723  0.00  0.00    +0.000 A 
ATOM     16  C   UNL     1      45.509   1.810   8.635  0.00  0.00    +0.000 A 
ATOM     17  N   UNL     1      44.739   2.395   9.572  0.00  0.00    +0.000 NA
ENDBRANCH  10  12
ENDBRANCH   7   9
ENDBRANCH   1   7
BRANCH   4  18
ATOM     18  C   UNL     1      49.059   7.186  15.609  0.00  0.00    +0.000 C 
BRANCH  18  19
ATOM     19  N   UNL     1      48.609   7.237  16.974  0.00  0.00    +0.000 N 
ATOM     20  C   UNL     1      48.952   8.273  17.805  0.00  0.00    +0.000 C 
ATOM     21  O   UNL     1      49.637   9.216  17.429  0.00  0.00    +0.000 OA
ATOM     22  H   UNL     1      48.291   6.365  17.385  0.00  0.00    +0.000 HD
BRANCH  20  23
ATOM     23  C   UNL     1      48.388   8.224  19.160  0.00  0.00    +0.000 A 
ATOM     24  C   UNL     1      47.966   9.398  19.772  0.00  0.00    +0.000 A 
ATOM     25  S   UNL     1      47.285   9.153  21.318  0.00  0.00    +0.000 S 
ATOM     26  C   UNL     1      47.578   7.479  21.244  0.00  0.00    +0.000 A 
ATOM     27  N   UNL     1      47.253   6.667  22.285  0.00  0.00    +0.000 NA
ATOM     28  C   UNL     1      47.561   5.424  22.105  0.00  0.00    +0.000 A 
ATOM     29  N   UNL     1      48.155   4.921  20.978  0.00  0.00    +0.000 N 
ATOM     30  C   UNL     1      48.466   5.699  19.889  0.00  0.00    +0.000 A 
ATOM     31  O   UNL     1      48.942   5.207  18.870  0.00  0.00    +0.000 OA
ATOM     32  C   UNL     1      48.164   7.108  20.047  0.00  0.00    +0.000 A 
ATOM     33  H   UNL     1      48.352   3.934  20.892  0.00  0.00    +0.000 HD
ENDBRANCH  20  23
ENDBRANCH  18  19
ENDBRANCH   4  18
TORSDOF 6
ENDMDL
MODEL 9
REMARK VINA RESULT:    -6.937      3.473      9.302
REMARK INTER + INTRA:         -10.282
REMARK INTER:                  -8.843
REMARK INTRA:                  -1.440
REMARK UNBOUND:                -0.912
REMARK  Name = 
REMARK  7 active torsions:
REMARK  status: ('A' for Active; 'I' for Inactive)
REMARK    1  A    between atoms: C_1  and  N_2
REMARK    2  A    between atoms: N_2  and  C_3
REMARK    3  A    between atoms: C_3  and  C_4
REMARK    4  A    between atoms: C_7  and  C_8
REMARK    5  A    between atoms: C_8  and  N_9
REMARK    6  A    between atoms: C_10  and  C_12
REMARK    7  A    between atoms: C_24  and  C_26
REMARK                            x       y       z     vdW  Elec       q    Type
REMARK                         _______ _______ _______ _____ _____    ______ ____
ROOT
ATOM      1  C   UNL     1      51.106   4.403  18.444  0.00  0.00    +0.000 A 
ATOM      2  C   UNL     1      50.020   5.272  18.634  0.00  0.00    +0.000 A 
ATOM      3  C   UNL     1      48.760   4.960  18.117  0.00  0.00    +0.000 A 
ATOM      4  C   UNL     1      48.560   3.767  17.410  0.00  0.00    +0.000 A 
ATOM      5  C   UNL     1      49.648   2.901  17.220  0.00  0.00    +0.000 A 
ATOM      6  C   UNL     1      50.904   3.208  17.744  0.00  0.00    +0.000 A 
ENDROOT
BRANCH   1   7
ATOM      7  C   UNL     1      52.470   4.771  18.968  0.00  0.00    +0.000 C 
BRANCH   7   9
ATOM      8  C   UNL     1      54.630   3.771  18.054  0.00  0.00    +0.000 C 
ATOM      9  N   UNL     1      53.593   4.792  18.022  0.00  0.00    +0.000 N 
ATOM     10  C   UNL     1      53.741   5.800  17.048  0.00  0.00    +0.000 C 
ATOM     11  O   UNL     1      54.641   5.761  16.205  0.00  0.00    +0.000 OA
BRANCH  10  12
ATOM     12  C   UNL     1      52.773   6.950  16.979  0.00  0.00    +0.000 A 
ATOM     13  C   UNL     1      51.808   6.965  15.977  0.00  0.00    +0.000 A 
ATOM     14  C   UNL     1      50.935   8.051  15.912  0.00  0.00    +0.000 A 
ATOM     15  C   UNL     1      51.049   9.075  16.845  0.00  0.00    +0.000 A 
ATOM     16  C   UNL     1      52.036   8.977  17.809  0.00  0.00    +0.000 A 
ATOM     17  N   UNL     1      52.902   7.948  17.890  0.00  0.00    +0.000 NA
ENDBRANCH  10  12
ENDBRANCH   7   9
ENDBRANCH   1   7
BRANCH   4  18
ATOM     18  C   UNL     1      47.219   3.421  16.815  0.00  0.00    +0.000 C 
BRANCH  18  19
ATOM     19  N   UNL     1      46.808   4.413  15.858  0.00  0.00    +0.000 N 
ATOM     20  C   UNL     1      46.885   4.182  14.508  0.00  0.00    +0.000 C 
ATOM     21  O   UNL     1      47.283   3.120  14.046  0.00  0.00    +0.000 OA
ATOM     22  H   UNL     1      46.746   5.371  16.188  0.00  0.00    +0.000 HD
BRANCH  20  23
ATOM     23  C   UNL     1      46.390   5.262  13.642  0.00  0.00    +0.000 A 
ATOM     24  C   UNL     1      47.171   6.393  13.441  0.00  0.00    +0.000 A 
ATOM     25  S   UNL     1      46.472   7.518  12.364  0.00  0.00    +0.000 S 
ATOM     26  C   UNL     1      45.082   6.557  12.173  0.00  0.00    +0.000 A 
ATOM     27  N   UNL     1      44.052   6.968  11.386  0.00  0.00    +0.000 NA
ATOM     28  C   UNL     1      43.047   6.155  11.358  0.00  0.00    +0.000 A 
ATOM     29  N   UNL     1      42.984   4.967  12.038  0.00  0.00    +0.000 N 
ATOM     30  C   UNL     1      44.016   4.496  12.814  0.00  0.00    +0.000 A 
ATOM     31  O   UNL     1      43.952   3.400  13.360  0.00  0.00    +0.000 OA
ATOM     32  C   UNL     1      45.159   5.382  12.900  0.00  0.00    +0.000 A 
ATOM     33  H   UNL     1      42.176   4.366  11.958  0.00  0.00    +0.000 HD
ENDBRANCH  20  23
ENDBRANCH  18  19
ENDBRANCH   4  18
TORSDOF 6
ENDMDL
