MODEL 1
REMARK VINA RESULT:    -7.177      0.000      0.000
REMARK INTER + INTRA:          -9.688
REMARK INTER:                  -8.855
REMARK INTRA:                  -0.833
REMARK UNBOUND:                -0.833
REMARK  Name = 
REMARK  4 active torsions:
REMARK  status: ('A' for Active; 'I' for Inactive)
REMARK    1  A    between atoms: C_7  and  N_8
REMARK    2  A    between atoms: N_8  and  C_9
REMARK    3  A    between atoms: C_9  and  C_10
REMARK    4  A    between atoms: C_14  and  C_15
REMARK                            x       y       z     vdW  Elec       q    Type
REMARK                         _______ _______ _______ _____ _____    ______ ____
ROOT
ATOM      1  C   UNL     1      44.027   4.732  11.287  0.00  0.00    +0.000 C 
ATOM      2  C   UNL     1      42.691   4.989  11.982  0.00  0.00    +0.000 C 
ATOM      3  C   UNL     1      43.239   6.000  11.033  0.00  0.00    +0.000 C 
ENDROOT
BRANCH   1   4
ATOM      4  C   UNL     1      45.298   4.815  12.127  0.00  0.00    +0.000 A 
ATOM      5  C   UNL     1      45.696   3.771  12.970  0.00  0.00    +0.000 A 
ATOM      6  C   UNL     1      46.882   3.877  13.679  0.00  0.00    +0.000 A 
ATOM      7  N   UNL     1      47.710   4.938  13.602  0.00  0.00    +0.000 NA
ATOM      8  C   UNL     1      47.342   5.961  12.781  0.00  0.00    +0.000 A 
ATOM      9  C   UNL     1      46.150   5.926  12.054  0.00  0.00    +0.000 A 
BRANCH   8  10
ATOM     10  C   UNL     1      48.248   7.176  12.630  0.00  0.00    +0.000 C 
ATOM     11  F   UNL     1      48.297   7.692  11.369  0.00  0.00    +0.000 F 
ATOM     12  F   UNL     1      47.870   8.214  13.436  0.00  0.00    +0.000 F 
ATOM     13  F   UNL     1      49.544   6.907  12.970  0.00  0.00    +0.000 F 
ENDBRANCH   8  10
ENDBRANCH   1   4
BRANCH   1  14
ATOM     14  N   UNL     1      44.010   3.588  10.357  0.00  0.00    +0.000 N 
ATOM     15  H   UNL     1      43.645   2.731  10.766  0.00  0.00    +0.000 HD
BRANCH  14  22
ATOM     16  F   UNL     1      45.488   5.571   8.785  0.00  0.00    +0.000 F 
ATOM     17  C   UNL     1      45.674   4.254   8.602  0.00  0.00    +0.000 A 
ATOM     18  C   UNL     1      46.576   3.874   7.608  0.00  0.00    +0.000 A 
ATOM     19  C   UNL     1      46.801   2.529   7.346  0.00  0.00    +0.000 A 
ATOM     20  C   UNL     1      46.118   1.562   8.076  0.00  0.00    +0.000 A 
ATOM     21  C   UNL     1      45.219   1.950   9.073  0.00  0.00    +0.000 A 
ATOM     22  C   UNL     1      44.995   3.308   9.380  0.00  0.00    +0.000 A 
ENDBRANCH  14  22
ENDBRANCH   1  14
TORSDOF 4
ENDMDL
MODEL 2
REMARK VINA RESULT:    -6.750      1.960      2.556
REMARK INTER + INTRA:          -9.161
REMARK INTER:                  -8.708
REMARK INTRA:                  -0.453
REMARK UNBOUND:                -0.833
REMARK  Name = 
REMARK  4 active torsions:
REMARK  status: ('A' for Active; 'I' for Inactive)
REMARK    1  A    between atoms: C_7  and  N_8
REMARK    2  A    between atoms: N_8  and  C_9
REMARK    3  A    between atoms: C_9  and  C_10
REMARK    4  A    between atoms: C_14  and  C_15
REMARK                            x       y       z     vdW  Elec       q    Type
REMARK                         _______ _______ _______ _____ _____    ______ ____
ROOT
ATOM      1  C   UNL     1      44.161   4.977  11.728  0.00  0.00    +0.000 C 
ATOM      2  C   UNL     1      42.882   5.259  12.516  0.00  0.00    +0.000 C 
ATOM      3  C   UNL     1      43.271   6.153  11.387  0.00  0.00    +0.000 C 
ENDROOT
BRANCH   1   4
ATOM      4  C   UNL     1      45.496   5.244  12.415  0.00  0.00    +0.000 A 
ATOM      5  C   UNL     1      46.394   6.206  11.938  0.00  0.00    +0.000 A 
ATOM      6  C   UNL     1      47.575   6.441  12.624  0.00  0.00    +0.000 A 
ATOM      7  N   UNL     1      47.924   5.801  13.758  0.00  0.00    +0.000 NA
ATOM      8  C   UNL     1      47.060   4.866  14.241  0.00  0.00    +0.000 A 
ATOM      9  C   UNL     1      45.863   4.567  13.588  0.00  0.00    +0.000 A 
BRANCH   8  10
ATOM     10  C   UNL     1      47.385   4.129  15.533  0.00  0.00    +0.000 C 
ATOM     11  F   UNL     1      46.361   4.084  16.432  0.00  0.00    +0.000 F 
ATOM     12  F   UNL     1      47.739   2.826  15.317  0.00  0.00    +0.000 F 
ATOM     13  F   UNL     1      48.440   4.684  16.201  0.00  0.00    +0.000 F 
ENDBRANCH   8  10
ENDBRANCH   1   4
BRANCH   1  14
ATOM     14  N   UNL     1      44.131   3.713  10.969  0.00  0.00    +0.000 N 
ATOM     15  H   UNL     1      43.996   2.888  11.547  0.00  0.00    +0.000 HD
BRANCH  14  22
ATOM     16  F   UNL     1      45.281   5.668   9.114  0.00  0.00    +0.000 F 
ATOM     17  C   UNL     1      45.444   4.349   8.929  0.00  0.00    +0.000 A 
ATOM     18  C   UNL     1      46.157   3.952   7.796  0.00  0.00    +0.000 A 
ATOM     19  C   UNL     1      46.344   2.602   7.526  0.00  0.00    +0.000 A 
ATOM     20  C   UNL     1      45.813   1.648   8.388  0.00  0.00    +0.000 A 
ATOM     21  C   UNL     1      45.106   2.054   9.523  0.00  0.00    +0.000 A 
ATOM     22  C   UNL     1      44.927   3.417   9.836  0.00  0.00    +0.000 A 
ENDBRANCH  14  22
ENDBRANCH   1  14
TORSDOF 4
ENDMDL
MODEL 3
REMARK VINA RESULT:    -6.516      3.124      6.168
REMARK INTER + INTRA:          -8.873
REMARK INTER:                  -7.979
REMARK INTRA:                  -0.894
REMARK UNBOUND:                -0.833
REMARK  Name = 
REMARK  4 active torsions:
REMARK  status: ('A' for Active; 'I' for Inactive)
REMARK    1  A    between atoms: C_7  and  N_8
REMARK    2  A    between atoms: N_8  and  C_9
REMARK    3  A    between atoms: C_9  and  C_10
REMARK    4  A    between atoms: C_14  and  C_15
REMARK                            x       y       z     vdW  Elec       q    Type
REMARK                         _______ _______ _______ _____ _____    ______ ____
ROOT
ATOM      1  C   UNL     1      45.900   7.177  12.193  0.00  0.00    +0.000 C 
ATOM      2  C   UNL     1      46.963   6.788  13.220  0.00  0.00    +0.000 C 
ATOM      3  C   UNL     1      47.377   7.275  11.873  0.00  0.00    +0.000 C 
ENDROOT
BRANCH   1   4
ATOM      4  C   UNL     1      45.084   6.059  11.553  0.00  0.00    +0.000 A 
ATOM      5  C   UNL     1      43.810   5.713  12.019  0.00  0.00    +0.000 A 
ATOM      6  C   UNL     1      43.091   4.719  11.375  0.00  0.00    +0.000 A 
ATOM      7  N   UNL     1      43.537   4.053  10.291  0.00  0.00    +0.000 NA
ATOM      8  C   UNL     1      44.771   4.381   9.819  0.00  0.00    +0.000 A 
ATOM      9  C   UNL     1      45.556   5.359  10.433  0.00  0.00    +0.000 A 
BRANCH   8  10
ATOM     10  C   UNL     1      45.320   3.683   8.581  0.00  0.00    +0.000 C 
ATOM     11  F   UNL     1      46.348   4.339   7.971  0.00  0.00    +0.000 F 
ATOM     12  F   UNL     1      45.795   2.431   8.854  0.00  0.00    +0.000 F 
ATOM     13  F   UNL     1      44.370   3.507   7.616  0.00  0.00    +0.000 F 
ENDBRANCH   8  10
ENDBRANCH   1   4
BRANCH   1  14
ATOM     14  N   UNL     1      45.093   8.349  12.580  0.00  0.00    +0.000 N 
ATOM     15  H   UNL     1      44.305   8.126  13.183  0.00  0.00    +0.000 HD
BRANCH  14  22
ATOM     16  F   UNL     1      42.827   8.559  10.734  0.00  0.00    +0.000 F 
ATOM     17  C   UNL     1      43.738   9.539  10.836  0.00  0.00    +0.000 A 
ATOM     18  C   UNL     1      43.576  10.645  10.000  0.00  0.00    +0.000 A 
ATOM     19  C   UNL     1      44.494  11.687  10.033  0.00  0.00    +0.000 A 
ATOM     20  C   UNL     1      45.580  11.619  10.900  0.00  0.00    +0.000 A 
ATOM     21  C   UNL     1      45.733  10.511  11.738  0.00  0.00    +0.000 A 
ATOM     22  C   UNL     1      44.800   9.455  11.746  0.00  0.00    +0.000 A 
ENDBRANCH  14  22
ENDBRANCH   1  14
TORSDOF 4
ENDMDL
MODEL 4
REMARK VINA RESULT:    -6.455      2.268      6.056
REMARK INTER + INTRA:          -8.797
REMARK INTER:                  -7.903
REMARK INTRA:                  -0.895
REMARK UNBOUND:                -0.833
REMARK  Name = 
REMARK  4 active torsions:
REMARK  status: ('A' for Active; 'I' for Inactive)
REMARK    1  A    between atoms: C_7  and  N_8
REMARK    2  A    between atoms: N_8  and  C_9
REMARK    3  A    between atoms: C_9  and  C_10
REMARK    4  A    between atoms: C_14  and  C_15
REMARK                            x       y       z     vdW  Elec       q    Type
REMARK                         _______ _______ _______ _____ _____    ______ ____
ROOT
ATOM      1  C   UNL     1      46.229   7.172  12.315  0.00  0.00    +0.000 C 
ATOM      2  C   UNL     1      46.425   8.594  11.790  0.00  0.00    +0.000 C 
ATOM      3  C   UNL     1      45.644   8.366  13.040  0.00  0.00    +0.000 C 
ENDROOT
BRANCH   1   4
ATOM      4  C   UNL     1      45.290   6.250  11.545  0.00  0.00    +0.000 A 
ATOM      5  C   UNL     1      43.924   6.170  11.842  0.00  0.00    +0.000 A 
ATOM      6  C   UNL     1      43.105   5.350  11.083  0.00  0.00    +0.000 A 
ATOM      7  N   UNL     1      43.539   4.612  10.042  0.00  0.00    +0.000 NA
ATOM      8  C   UNL     1      44.864   4.681   9.734  0.00  0.00    +0.000 A 
ATOM      9  C   UNL     1      45.747   5.474  10.470  0.00  0.00    +0.000 A 
BRANCH   8  10
ATOM     10  C   UNL     1      45.410   3.892   8.552  0.00  0.00    +0.000 C 
ATOM     11  F   UNL     1      46.488   4.462   7.941  0.00  0.00    +0.000 F 
ATOM     12  F   UNL     1      45.812   2.634   8.904  0.00  0.00    +0.000 F 
ATOM     13  F   UNL     1      44.480   3.713   7.568  0.00  0.00    +0.000 F 
ENDBRANCH   8  10
ENDBRANCH   1   4
BRANCH   1  14
ATOM     14  N   UNL     1      47.477   6.515  12.748  0.00  0.00    +0.000 N 
ATOM     15  H   UNL     1      47.947   5.997  12.010  0.00  0.00    +0.000 HD
BRANCH  14  22
ATOM     16  F   UNL     1      46.218   4.052  13.715  0.00  0.00    +0.000 F 
ATOM     17  C   UNL     1      47.061   4.756  14.486  0.00  0.00    +0.000 A 
ATOM     18  C   UNL     1      47.284   4.280  15.780  0.00  0.00    +0.000 A 
ATOM     19  C   UNL     1      48.125   4.970  16.643  0.00  0.00    +0.000 A 
ATOM     20  C   UNL     1      48.740   6.141  16.214  0.00  0.00    +0.000 A 
ATOM     21  C   UNL     1      48.517   6.609  14.916  0.00  0.00    +0.000 A 
ATOM     22  C   UNL     1      47.692   5.912  14.010  0.00  0.00    +0.000 A 
ENDBRANCH  14  22
ENDBRANCH   1  14
TORSDOF 4
ENDMDL
MODEL 5
REMARK VINA RESULT:    -6.060      2.673      6.201
REMARK INTER + INTRA:          -8.310
REMARK INTER:                  -7.434
REMARK INTRA:                  -0.876
REMARK UNBOUND:                -0.833
REMARK  Name = 
REMARK  4 active torsions:
REMARK  status: ('A' for Active; 'I' for Inactive)
REMARK    1  A    between atoms: C_7  and  N_8
REMARK    2  A    between atoms: N_8  and  C_9
REMARK    3  A    between atoms: C_9  and  C_10
REMARK    4  A    between atoms: C_14  and  C_15
REMARK                            x       y       z     vdW  Elec       q    Type
REMARK                         _______ _______ _______ _____ _____    ______ ____
ROOT
ATOM      1  C   UNL     1      46.384   6.614  12.905  0.00  0.00    +0.000 C 
ATOM      2  C   UNL     1      47.331   5.926  13.888  0.00  0.00    +0.000 C 
ATOM      3  C   UNL     1      47.812   6.288  12.523  0.00  0.00    +0.000 C 
ENDROOT
BRANCH   1   4
ATOM      4  C   UNL     1      45.256   5.784  12.301  0.00  0.00    +0.000 A 
ATOM      5  C   UNL     1      43.991   5.710  12.896  0.00  0.00    +0.000 A 
ATOM      6  C   UNL     1      42.987   4.978  12.283  0.00  0.00    +0.000 A 
ATOM      7  N   UNL     1      43.142   4.324  11.115  0.00  0.00    +0.000 NA
ATOM      8  C   UNL     1      44.365   4.389  10.518  0.00  0.00    +0.000 A 
ATOM      9  C   UNL     1      45.424   5.094  11.092  0.00  0.00    +0.000 A 
BRANCH   8  10
ATOM     10  C   UNL     1      44.595   3.693   9.182  0.00  0.00    +0.000 C 
ATOM     11  F   UNL     1      44.205   2.386   9.152  0.00  0.00    +0.000 F 
ATOM     12  F   UNL     1      43.926   4.299   8.155  0.00  0.00    +0.000 F 
ATOM     13  F   UNL     1      45.909   3.696   8.811  0.00  0.00    +0.000 F 
ENDBRANCH   8  10
ENDBRANCH   1   4
BRANCH   1  14
ATOM     14  N   UNL     1      45.963   7.964  13.323  0.00  0.00    +0.000 N 
ATOM     15  H   UNL     1      45.167   7.970  13.956  0.00  0.00    +0.000 HD
BRANCH  14  22
ATOM     16  F   UNL     1      48.318   9.554  12.609  0.00  0.00    +0.000 F 
ATOM     17  C   UNL     1      47.090   9.899  12.193  0.00  0.00    +0.000 A 
ATOM     18  C   UNL     1      46.982  11.066  11.434  0.00  0.00    +0.000 A 
ATOM     19  C   UNL     1      45.739  11.498  10.989  0.00  0.00    +0.000 A 
ATOM     20  C   UNL     1      44.602  10.764  11.309  0.00  0.00    +0.000 A 
ATOM     21  C   UNL     1      44.718   9.594  12.064  0.00  0.00    +0.000 A 
ATOM     22  C   UNL     1      45.970   9.117  12.502  0.00  0.00    +0.000 A 
ENDBRANCH  14  22
ENDBRANCH   1  14
TORSDOF 4
ENDMDL
MODEL 6
REMARK VINA RESULT:    -5.880      3.393      4.936
REMARK INTER + INTRA:          -8.089
REMARK INTER:                  -7.620
REMARK INTRA:                  -0.468
REMARK UNBOUND:                -0.833
REMARK  Name = 
REMARK  4 active torsions:
REMARK  status: ('A' for Active; 'I' for Inactive)
REMARK    1  A    between atoms: C_7  and  N_8
REMARK    2  A    between atoms: N_8  and  C_9
REMARK    3  A    between atoms: C_9  and  C_10
REMARK    4  A    between atoms: C_14  and  C_15
REMARK                            x       y       z     vdW  Elec       q    Type
REMARK                         _______ _______ _______ _____ _____    ______ ____
ROOT
ATOM      1  C   UNL     1      46.915   6.316  13.540  0.00  0.00    +0.000 C 
ATOM      2  C   UNL     1      46.899   7.785  13.118  0.00  0.00    +0.000 C 
ATOM      3  C   UNL     1      47.565   6.772  12.251  0.00  0.00    +0.000 C 
ENDROOT
BRANCH   1   4
ATOM      4  C   UNL     1      47.808   5.919  14.711  0.00  0.00    +0.000 A 
ATOM      5  C   UNL     1      48.856   6.736  15.152  0.00  0.00    +0.000 A 
ATOM      6  C   UNL     1      49.611   6.350  16.248  0.00  0.00    +0.000 A 
ATOM      7  N   UNL     1      49.393   5.219  16.949  0.00  0.00    +0.000 NA
ATOM      8  C   UNL     1      48.373   4.415  16.538  0.00  0.00    +0.000 A 
ATOM      9  C   UNL     1      47.587   4.735  15.429  0.00  0.00    +0.000 A 
BRANCH   8  10
ATOM     10  C   UNL     1      48.060   3.137  17.305  0.00  0.00    +0.000 C 
ATOM     11  F   UNL     1      48.532   3.115  18.584  0.00  0.00    +0.000 F 
ATOM     12  F   UNL     1      46.716   2.904  17.406  0.00  0.00    +0.000 F 
ATOM     13  F   UNL     1      48.575   2.025  16.701  0.00  0.00    +0.000 F 
ENDBRANCH   8  10
ENDBRANCH   1   4
BRANCH   1  14
ATOM     14  N   UNL     1      45.581   5.687  13.576  0.00  0.00    +0.000 N 
ATOM     15  H   UNL     1      45.327   5.314  14.487  0.00  0.00    +0.000 HD
BRANCH  14  22
ATOM     16  F   UNL     1      46.249   2.915  12.903  0.00  0.00    +0.000 F 
ATOM     17  C   UNL     1      45.352   3.611  12.188  0.00  0.00    +0.000 A 
ATOM     18  C   UNL     1      44.778   2.967  11.091  0.00  0.00    +0.000 A 
ATOM     19  C   UNL     1      43.859   3.633  10.290  0.00  0.00    +0.000 A 
ATOM     20  C   UNL     1      43.519   4.949  10.584  0.00  0.00    +0.000 A 
ATOM     21  C   UNL     1      44.093   5.587  11.687  0.00  0.00    +0.000 A 
ATOM     22  C   UNL     1      45.005   4.923  12.534  0.00  0.00    +0.000 A 
ENDBRANCH  14  22
ENDBRANCH   1  14
TORSDOF 4
ENDMDL
MODEL 7
REMARK VINA RESULT:    -5.860      2.028      5.798
REMARK INTER + INTRA:          -8.064
REMARK INTER:                  -7.159
REMARK INTRA:                  -0.905
REMARK UNBOUND:                -0.833
REMARK  Name = 
REMARK  4 active torsions:
REMARK  status: ('A' for Active; 'I' for Inactive)
REMARK    1  A    between atoms: C_7  and  N_8
REMARK    2  A    between atoms: N_8  and  C_9
REMARK    3  A    between atoms: C_9  and  C_10
REMARK    4  A    between atoms: C_14  and  C_15
REMARK                            x       y       z     vdW  Elec       q    Type
REMARK                         _______ _______ _______ _____ _____    ______ ____
ROOT
ATOM      1  C   UNL     1      46.404   5.063  13.625  0.00  0.00    +0.000 C 
ATOM      2  C   UNL     1      46.356   4.034  14.753  0.00  0.00    +0.000 C 
ATOM      3  C   UNL     1      47.363   3.891  13.662  0.00  0.00    +0.000 C 
ENDROOT
BRANCH   1   4
ATOM      4  C   UNL     1      45.275   5.053  12.600  0.00  0.00    +0.000 A 
ATOM      5  C   UNL     1      44.092   5.777  12.796  0.00  0.00    +0.000 A 
ATOM      6  C   UNL     1      43.114   5.770  11.814  0.00  0.00    +0.000 A 
ATOM      7  N   UNL     1      43.230   5.109  10.645  0.00  0.00    +0.000 NA
ATOM      8  C   UNL     1      44.376   4.405  10.434  0.00  0.00    +0.000 A 
ATOM      9  C   UNL     1      45.392   4.354  11.390  0.00  0.00    +0.000 A 
BRANCH   8  10
ATOM     10  C   UNL     1      44.577   3.659   9.121  0.00  0.00    +0.000 C 
ATOM     11  F   UNL     1      45.882   3.475   8.770  0.00  0.00    +0.000 F 
ATOM     12  F   UNL     1      44.023   2.409   9.140  0.00  0.00    +0.000 F 
ATOM     13  F   UNL     1      43.996   4.297   8.063  0.00  0.00    +0.000 F 
ENDBRANCH   8  10
ENDBRANCH   1   4
BRANCH   1  14
ATOM     14  N   UNL     1      46.789   6.417  14.064  0.00  0.00    +0.000 N 
ATOM     15  H   UNL     1      46.124   6.848  14.702  0.00  0.00    +0.000 HD
BRANCH  14  22
ATOM     16  F   UNL     1      45.669   9.012  13.290  0.00  0.00    +0.000 F 
ATOM     17  C   UNL     1      46.876   8.614  12.858  0.00  0.00    +0.000 A 
ATOM     18  C   UNL     1      47.557   9.477  11.998  0.00  0.00    +0.000 A 
ATOM     19  C   UNL     1      48.801   9.122  11.491  0.00  0.00    +0.000 A 
ATOM     20  C   UNL     1      49.362   7.898  11.842  0.00  0.00    +0.000 A 
ATOM     21  C   UNL     1      48.676   7.042  12.708  0.00  0.00    +0.000 A 
ATOM     22  C   UNL     1      47.427   7.391  13.260  0.00  0.00    +0.000 A 
ENDBRANCH  14  22
ENDBRANCH   1  14
TORSDOF 4
ENDMDL
MODEL 8
REMARK VINA RESULT:    -5.665      2.314      6.378
REMARK INTER + INTRA:          -7.822
REMARK INTER:                  -7.003
REMARK INTRA:                  -0.819
REMARK UNBOUND:                -0.833
REMARK  Name = 
REMARK  4 active torsions:
REMARK  status: ('A' for Active; 'I' for Inactive)
REMARK    1  A    between atoms: C_7  and  N_8
REMARK    2  A    between atoms: N_8  and  C_9
REMARK    3  A    between atoms: C_9  and  C_10
REMARK    4  A    between atoms: C_14  and  C_15
REMARK                            x       y       z     vdW  Elec       q    Type
REMARK                         _______ _______ _______ _____ _____    ______ ____
ROOT
ATOM      1  C   UNL     1      46.818   6.762  12.566  0.00  0.00    +0.000 C 
ATOM      2  C   UNL     1      47.595   7.793  11.747  0.00  0.00    +0.000 C 
ATOM      3  C   UNL     1      46.846   8.223  12.963  0.00  0.00    +0.000 C 
ENDROOT
BRANCH   1   4
ATOM      4  C   UNL     1      45.538   6.191  11.965  0.00  0.00    +0.000 A 
ATOM      5  C   UNL     1      44.343   6.919  11.941  0.00  0.00    +0.000 A 
ATOM      6  C   UNL     1      43.219   6.372  11.343  0.00  0.00    +0.000 A 
ATOM      7  N   UNL     1      43.197   5.160  10.754  0.00  0.00    +0.000 NA
ATOM      8  C   UNL     1      44.353   4.439  10.762  0.00  0.00    +0.000 A 
ATOM      9  C   UNL     1      45.516   4.924  11.364  0.00  0.00    +0.000 A 
BRANCH   8  10
ATOM     10  C   UNL     1      44.400   3.073  10.089  0.00  0.00    +0.000 C 
ATOM     11  F   UNL     1      45.628   2.482  10.096  0.00  0.00    +0.000 F 
ATOM     12  F   UNL     1      43.556   2.172  10.677  0.00  0.00    +0.000 F 
ATOM     13  F   UNL     1      44.020   3.123   8.778  0.00  0.00    +0.000 F 
ENDBRANCH   8  10
ENDBRANCH   1   4
BRANCH   1  14
ATOM     14  N   UNL     1      47.669   5.748  13.214  0.00  0.00    +0.000 N 
ATOM     15  H   UNL     1      47.776   4.893  12.674  0.00  0.00    +0.000 HD
BRANCH  14  22
ATOM     16  F   UNL     1      49.208   7.248  15.206  0.00  0.00    +0.000 F 
ATOM     17  C   UNL     1      48.480   6.174  15.549  0.00  0.00    +0.000 A 
ATOM     18  C   UNL     1      48.517   5.785  16.890  0.00  0.00    +0.000 A 
ATOM     19  C   UNL     1      47.808   4.668  17.313  0.00  0.00    +0.000 A 
ATOM     20  C   UNL     1      47.065   3.936  16.393  0.00  0.00    +0.000 A 
ATOM     21  C   UNL     1      47.029   4.334  15.054  0.00  0.00    +0.000 A 
ATOM     22  C   UNL     1      47.714   5.480  14.604  0.00  0.00    +0.000 A 
ENDBRANCH  14  22
ENDBRANCH   1  14
TORSDOF 4
ENDMDL
MODEL 9
REMARK VINA RESULT:    -5.330      3.091      4.212
REMARK INTER + INTRA:          -7.410
REMARK INTER:                  -6.505
REMARK INTRA:                  -0.904
REMARK UNBOUND:                -0.833
REMARK  Name = 
REMARK  4 active torsions:
REMARK  status: ('A' for Active; 'I' for Inactive)
REMARK    1  A    between atoms: C_7  and  N_8
REMARK    2  A    between atoms: N_8  and  C_9
REMARK    3  A    between atoms: C_9  and  C_10
REMARK    4  A    between atoms: C_14  and  C_15
REMARK                            x       y       z     vdW  Elec       q    Type
REMARK                         _______ _______ _______ _____ _____    ______ ____
ROOT
ATOM      1  C   UNL     1      45.650   7.901  12.554  0.00  0.00    +0.000 C 
ATOM      2  C   UNL     1      45.089   9.313  12.710  0.00  0.00    +0.000 C 
ATOM      3  C   UNL     1      45.157   8.687  11.358  0.00  0.00    +0.000 C 
ENDROOT
BRANCH   1   4
ATOM      4  C   UNL     1      47.152   7.705  12.734  0.00  0.00    +0.000 A 
ATOM      5  C   UNL     1      48.050   7.852  11.669  0.00  0.00    +0.000 A 
ATOM      6  C   UNL     1      49.409   7.708  11.894  0.00  0.00    +0.000 A 
ATOM      7  N   UNL     1      49.945   7.442  13.102  0.00  0.00    +0.000 NA
ATOM      8  C   UNL     1      49.088   7.302  14.151  0.00  0.00    +0.000 A 
ATOM      9  C   UNL     1      47.706   7.416  13.989  0.00  0.00    +0.000 A 
BRANCH   8  10
ATOM     10  C   UNL     1      49.635   7.028  15.546  0.00  0.00    +0.000 C 
ATOM     11  F   UNL     1      50.969   6.751  15.586  0.00  0.00    +0.000 F 
ATOM     12  F   UNL     1      49.455   8.084  16.395  0.00  0.00    +0.000 F 
ATOM     13  F   UNL     1      49.019   5.969  16.151  0.00  0.00    +0.000 F 
ENDBRANCH   8  10
ENDBRANCH   1   4
BRANCH   1  14
ATOM     14  N   UNL     1      44.838   6.857  13.206  0.00  0.00    +0.000 N 
ATOM     15  H   UNL     1      44.957   6.813  14.215  0.00  0.00    +0.000 HD
BRANCH  14  22
ATOM     16  F   UNL     1      46.423   4.431  13.637  0.00  0.00    +0.000 F 
ATOM     17  C   UNL     1      45.340   4.426  12.844  0.00  0.00    +0.000 A 
ATOM     18  C   UNL     1      45.024   3.224  12.209  0.00  0.00    +0.000 A 
ATOM     19  C   UNL     1      43.931   3.151  11.355  0.00  0.00    +0.000 A 
ATOM     20  C   UNL     1      43.156   4.284  11.132  0.00  0.00    +0.000 A 
ATOM     21  C   UNL     1      43.476   5.483  11.775  0.00  0.00    +0.000 A 
ATOM     22  C   UNL     1      44.561   5.577  12.670  0.00  0.00    +0.000 A 
ENDBRANCH  14  22
ENDBRANCH   1  14
TORSDOF 4
ENDMDL
