MODEL 1
REMARK VINA RESULT:    -8.015      0.000      0.000
REMARK INTER + INTRA:         -13.764
REMARK INTER:                 -12.233
REMARK INTRA:                  -1.532
REMARK UNBOUND:                -1.532
REMARK  Name = 
REMARK  9 active torsions:
REMARK  status: ('A' for Active; 'I' for Inactive)
REMARK    1  A    between atoms: C_2  and  C_3
REMARK    2  A    between atoms: C_3  and  C_4
REMARK    3  A    between atoms: C_4  and  N_5
REMARK    4  A    between atoms: C_4  and  C_13
REMARK    5  A    between atoms: N_5  and  C_6
REMARK    6  A    between atoms: C_6  and  C_7
REMARK    7  A    between atoms: C_16  and  C_17
REMARK    8  A    between atoms: C_17  and  N_18
REMARK    9  A    between atoms: C_19  and  C_21
REMARK                            x       y       z     vdW  Elec       q    Type
REMARK                         _______ _______ _______ _____ _____    ______ ____
ROOT
ATOM      1  C   UNL     1      44.999   6.160  11.401  0.00  0.00    +0.000 A 
ATOM      2  C   UNL     1      46.254   5.667  11.788  0.00  0.00    +0.000 A 
ATOM      3  C   UNL     1      47.128   6.459  12.541  0.00  0.00    +0.000 A 
ATOM      4  C   UNL     1      46.762   7.755  12.927  0.00  0.00    +0.000 A 
ATOM      5  C   UNL     1      45.535   8.267  12.502  0.00  0.00    +0.000 A 
ATOM      6  C   UNL     1      44.656   7.472  11.772  0.00  0.00    +0.000 A 
ENDROOT
BRANCH   1   7
ATOM      7  C   UNL     1      44.069   5.291  10.556  0.00  0.00    +0.000 C 
BRANCH   7   8
ATOM      8  N   UNL     1      44.832   4.188   9.945  0.00  0.00    +0.000 NA
ATOM      9  H   UNL     1      45.793   4.235  10.287  0.00  0.00    +0.000 HD
BRANCH   8  10
ATOM     10  C   UNL     1      44.873   4.243   8.482  0.00  0.00    +0.000 C 
BRANCH  10  11
ATOM     11  C   UNL     1      45.815   3.212   7.902  0.00  0.00    +0.000 A 
ATOM     12  C   UNL     1      45.850   1.910   8.424  0.00  0.00    +0.000 A 
ATOM     13  C   UNL     1      46.665   0.935   7.847  0.00  0.00    +0.000 A 
ATOM     14  C   UNL     1      47.449   1.248   6.739  0.00  0.00    +0.000 A 
ATOM     15  C   UNL     1      47.426   2.538   6.213  0.00  0.00    +0.000 A 
ATOM     16  C   UNL     1      46.614   3.516   6.790  0.00  0.00    +0.000 A 
ENDBRANCH  10  11
ENDBRANCH   8  10
ENDBRANCH   7   8
BRANCH   7  17
ATOM     17  C   UNL     1      42.880   4.806  11.396  0.00  0.00    +0.000 C 
BRANCH  17  19
ATOM     18  N   UNL     1      43.498   2.348  12.538  0.00  0.00    +0.000 NA
ATOM     19  C   UNL     1      43.217   3.462  12.020  0.00  0.00    +0.000 C 
ENDBRANCH  17  19
ENDBRANCH   7  17
ENDBRANCH   1   7
BRANCH   4  20
ATOM     20  C   UNL     1      47.656   8.605  13.785  0.00  0.00    +0.000 C 
BRANCH  20  21
ATOM     21  N   UNL     1      47.979   7.956  15.026  0.00  0.00    +0.000 N 
ATOM     22  C   UNL     1      49.225   7.419  15.214  0.00  0.00    +0.000 C 
ATOM     23  O   UNL     1      50.107   7.506  14.364  0.00  0.00    +0.000 OA
ATOM     24  H   UNL     1      47.206   7.650  15.611  0.00  0.00    +0.000 HD
BRANCH  22  25
ATOM     25  C   UNL     1      49.476   6.786  16.511  0.00  0.00    +0.000 A 
ATOM     26  C   UNL     1      50.331   7.402  17.416  0.00  0.00    +0.000 A 
ATOM     27  S   UNL     1      50.501   6.549  18.883  0.00  0.00    +0.000 S 
ATOM     28  C   UNL     1      49.472   5.306  18.341  0.00  0.00    +0.000 A 
ATOM     29  N   UNL     1      49.221   4.222  19.119  0.00  0.00    +0.000 NA
ATOM     30  C   UNL     1      48.440   3.344  18.577  0.00  0.00    +0.000 A 
ATOM     31  N   UNL     1      47.882   3.463  17.331  0.00  0.00    +0.000 N 
ATOM     32  C   UNL     1      48.096   4.549  16.512  0.00  0.00    +0.000 A 
ATOM     33  O   UNL     1      47.559   4.646  15.417  0.00  0.00    +0.000 OA
ATOM     34  C   UNL     1      48.981   5.554  17.075  0.00  0.00    +0.000 A 
ATOM     35  H   UNL     1      47.264   2.750  16.970  0.00  0.00    +0.000 HD
ENDBRANCH  22  25
ENDBRANCH  20  21
ENDBRANCH   4  20
TORSDOF 9
ENDMDL
MODEL 2
REMARK VINA RESULT:    -7.966      1.506      1.953
REMARK INTER + INTRA:         -13.688
REMARK INTER:                 -12.411
REMARK INTRA:                  -1.277
REMARK UNBOUND:                -1.532
REMARK  Name = 
REMARK  9 active torsions:
REMARK  status: ('A' for Active; 'I' for Inactive)
REMARK    1  A    between atoms: C_2  and  C_3
REMARK    2  A    between atoms: C_3  and  C_4
REMARK    3  A    between atoms: C_4  and  N_5
REMARK    4  A    between atoms: C_4  and  C_13
REMARK    5  A    between atoms: N_5  and  C_6
REMARK    6  A    between atoms: C_6  and  C_7
REMARK    7  A    between atoms: C_16  and  C_17
REMARK    8  A    between atoms: C_17  and  N_18
REMARK    9  A    between atoms: C_19  and  C_21
REMARK                            x       y       z     vdW  Elec       q    Type
REMARK                         _______ _______ _______ _____ _____    ______ ____
ROOT
ATOM      1  C   UNL     1      45.484   4.858  11.650  0.00  0.00    +0.000 A 
ATOM      2  C   UNL     1      45.941   4.517  12.931  0.00  0.00    +0.000 A 
ATOM      3  C   UNL     1      46.881   5.319  13.588  0.00  0.00    +0.000 A 
ATOM      4  C   UNL     1      47.375   6.480  12.980  0.00  0.00    +0.000 A 
ATOM      5  C   UNL     1      46.960   6.796  11.686  0.00  0.00    +0.000 A 
ATOM      6  C   UNL     1      46.009   6.011  11.041  0.00  0.00    +0.000 A 
ENDROOT
BRANCH   1   7
ATOM      7  C   UNL     1      44.478   3.955  10.937  0.00  0.00    +0.000 C 
BRANCH   7   8
ATOM      8  N   UNL     1      45.103   2.657  10.626  0.00  0.00    +0.000 NA
ATOM      9  H   UNL     1      46.110   2.800  10.535  0.00  0.00    +0.000 HD
BRANCH   8  10
ATOM     10  C   UNL     1      44.620   2.057   9.379  0.00  0.00    +0.000 C 
BRANCH  10  11
ATOM     11  C   UNL     1      45.635   2.174   8.265  0.00  0.00    +0.000 A 
ATOM     12  C   UNL     1      45.791   3.383   7.571  0.00  0.00    +0.000 A 
ATOM     13  C   UNL     1      46.775   3.518   6.591  0.00  0.00    +0.000 A 
ATOM     14  C   UNL     1      47.617   2.449   6.296  0.00  0.00    +0.000 A 
ATOM     15  C   UNL     1      47.471   1.241   6.975  0.00  0.00    +0.000 A 
ATOM     16  C   UNL     1      46.485   1.103   7.955  0.00  0.00    +0.000 A 
ENDBRANCH  10  11
ENDBRANCH   8  10
ENDBRANCH   7   8
BRANCH   7  17
ATOM     17  C   UNL     1      43.196   3.821  11.770  0.00  0.00    +0.000 C 
BRANCH  17  19
ATOM     18  N   UNL     1      41.899   6.278  11.870  0.00  0.00    +0.000 NA
ATOM     19  C   UNL     1      42.487   5.165  11.825  0.00  0.00    +0.000 C 
ENDBRANCH  17  19
ENDBRANCH   7  17
ENDBRANCH   1   7
BRANCH   4  20
ATOM     20  C   UNL     1      48.340   7.391  13.686  0.00  0.00    +0.000 C 
BRANCH  20  21
ATOM     21  N   UNL     1      48.144   7.375  15.110  0.00  0.00    +0.000 N 
ATOM     22  C   UNL     1      49.119   6.870  15.930  0.00  0.00    +0.000 C 
ATOM     23  O   UNL     1      50.190   6.460  15.491  0.00  0.00    +0.000 OA
ATOM     24  H   UNL     1      47.191   7.457  15.454  0.00  0.00    +0.000 HD
BRANCH  22  25
ATOM     25  C   UNL     1      48.845   6.901  17.369  0.00  0.00    +0.000 A 
ATOM     26  C   UNL     1      48.688   8.125  18.006  0.00  0.00    +0.000 A 
ATOM     27  S   UNL     1      48.356   7.988  19.673  0.00  0.00    +0.000 S 
ATOM     28  C   UNL     1      48.454   6.289  19.608  0.00  0.00    +0.000 A 
ATOM     29  N   UNL     1      48.305   5.541  20.729  0.00  0.00    +0.000 NA
ATOM     30  C   UNL     1      48.424   4.266  20.541  0.00  0.00    +0.000 A 
ATOM     31  N   UNL     1      48.670   3.678  19.328  0.00  0.00    +0.000 N 
ATOM     32  C   UNL     1      48.816   4.395  18.161  0.00  0.00    +0.000 A 
ATOM     33  O   UNL     1      49.001   3.844  17.085  0.00  0.00    +0.000 OA
ATOM     34  C   UNL     1      48.704   5.833  18.329  0.00  0.00    +0.000 A 
ATOM     35  H   UNL     1      48.734   2.674  19.242  0.00  0.00    +0.000 HD
ENDBRANCH  22  25
ENDBRANCH  20  21
ENDBRANCH   4  20
TORSDOF 9
ENDMDL
MODEL 3
REMARK VINA RESULT:    -7.882      2.096      2.636
REMARK INTER + INTRA:         -13.560
REMARK INTER:                 -12.197
REMARK INTRA:                  -1.364
REMARK UNBOUND:                -1.532
REMARK  Name = 
REMARK  9 active torsions:
REMARK  status: ('A' for Active; 'I' for Inactive)
REMARK    1  A    between atoms: C_2  and  C_3
REMARK    2  A    between atoms: C_3  and  C_4
REMARK    3  A    between atoms: C_4  and  N_5
REMARK    4  A    between atoms: C_4  and  C_13
REMARK    5  A    between atoms: N_5  and  C_6
REMARK    6  A    between atoms: C_6  and  C_7
REMARK    7  A    between atoms: C_16  and  C_17
REMARK    8  A    between atoms: C_17  and  N_18
REMARK    9  A    between atoms: C_19  and  C_21
REMARK                            x       y       z     vdW  Elec       q    Type
REMARK                         _______ _______ _______ _____ _____    ______ ____
ROOT
ATOM      1  C   UNL     1      45.466   4.755  11.670  0.00  0.00    +0.000 A 
ATOM      2  C   UNL     1      45.893   4.270  12.915  0.00  0.00    +0.000 A 
ATOM      3  C   UNL     1      46.810   4.995  13.684  0.00  0.00    +0.000 A 
ATOM      4  C   UNL     1      47.312   6.220  13.226  0.00  0.00    +0.000 A 
ATOM      5  C   UNL     1      46.928   6.681  11.966  0.00  0.00    +0.000 A 
ATOM      6  C   UNL     1      45.999   5.972  11.211  0.00  0.00    +0.000 A 
ENDROOT
BRANCH   1   7
ATOM      7  C   UNL     1      44.485   3.936  10.832  0.00  0.00    +0.000 C 
BRANCH   7   8
ATOM      8  N   UNL     1      45.054   2.605  10.552  0.00  0.00    +0.000 NA
ATOM      9  H   UNL     1      46.072   2.684  10.560  0.00  0.00    +0.000 HD
BRANCH   8  10
ATOM     10  C   UNL     1      44.656   2.060   9.252  0.00  0.00    +0.000 C 
BRANCH  10  11
ATOM     11  C   UNL     1      45.739   2.232   8.211  0.00  0.00    +0.000 A 
ATOM     12  C   UNL     1      46.592   1.166   7.890  0.00  0.00    +0.000 A 
ATOM     13  C   UNL     1      47.546   1.296   6.880  0.00  0.00    +0.000 A 
ATOM     14  C   UNL     1      47.654   2.493   6.175  0.00  0.00    +0.000 A 
ATOM     15  C   UNL     1      46.815   3.561   6.484  0.00  0.00    +0.000 A 
ATOM     16  C   UNL     1      45.862   3.433   7.497  0.00  0.00    +0.000 A 
ENDBRANCH  10  11
ENDBRANCH   8  10
ENDBRANCH   7   8
BRANCH   7  17
ATOM     17  C   UNL     1      43.116   3.871  11.523  0.00  0.00    +0.000 C 
BRANCH  17  19
ATOM     18  N   UNL     1      42.097   6.443  11.800  0.00  0.00    +0.000 NA
ATOM     19  C   UNL     1      42.560   5.278  11.675  0.00  0.00    +0.000 C 
ENDBRANCH  17  19
ENDBRANCH   7  17
ENDBRANCH   1   7
BRANCH   4  20
ATOM     20  C   UNL     1      48.253   7.047  14.057  0.00  0.00    +0.000 C 
BRANCH  20  21
ATOM     21  N   UNL     1      48.098   6.782  15.461  0.00  0.00    +0.000 N 
ATOM     22  C   UNL     1      49.186   6.431  16.216  0.00  0.00    +0.000 C 
ATOM     23  O   UNL     1      50.317   6.372  15.739  0.00  0.00    +0.000 OA
ATOM     24  H   UNL     1      47.163   6.570  15.799  0.00  0.00    +0.000 HD
BRANCH  22  25
ATOM     25  C   UNL     1      48.945   6.189  17.640  0.00  0.00    +0.000 A 
ATOM     26  C   UNL     1      49.259   4.949  18.184  0.00  0.00    +0.000 A 
ATOM     27  S   UNL     1      48.937   4.837  19.854  0.00  0.00    +0.000 S 
ATOM     28  C   UNL     1      48.327   6.426  19.899  0.00  0.00    +0.000 A 
ATOM     29  N   UNL     1      47.834   6.949  21.049  0.00  0.00    +0.000 NA
ATOM     30  C   UNL     1      47.384   8.157  20.937  0.00  0.00    +0.000 A 
ATOM     31  N   UNL     1      47.394   8.887  19.778  0.00  0.00    +0.000 N 
ATOM     32  C   UNL     1      47.894   8.403  18.590  0.00  0.00    +0.000 A 
ATOM     33  O   UNL     1      47.923   9.087  17.576  0.00  0.00    +0.000 OA
ATOM     34  C   UNL     1      48.398   7.043  18.666  0.00  0.00    +0.000 A 
ATOM     35  H   UNL     1      47.044   9.834  19.758  0.00  0.00    +0.000 HD
ENDBRANCH  22  25
ENDBRANCH  20  21
ENDBRANCH   4  20
TORSDOF 9
ENDMDL
MODEL 4
REMARK VINA RESULT:    -7.355      1.970      3.182
REMARK INTER + INTRA:         -12.757
REMARK INTER:                 -11.767
REMARK INTRA:                  -0.990
REMARK UNBOUND:                -1.532
REMARK  Name = 
REMARK  9 active torsions:
REMARK  status: ('A' for Active; 'I' for Inactive)
REMARK    1  A    between atoms: C_2  and  C_3
REMARK    2  A    between atoms: C_3  and  C_4
REMARK    3  A    between atoms: C_4  and  N_5
REMARK    4  A    between atoms: C_4  and  C_13
REMARK    5  A    between atoms: N_5  and  C_6
REMARK    6  A    between atoms: C_6  and  C_7
REMARK    7  A    between atoms: C_16  and  C_17
REMARK    8  A    between atoms: C_17  and  N_18
REMARK    9  A    between atoms: C_19  and  C_21
REMARK                            x       y       z     vdW  Elec       q    Type
REMARK                         _______ _______ _______ _____ _____    ______ ____
ROOT
ATOM      1  C   UNL     1      45.634   5.045  11.705  0.00  0.00    +0.000 A 
ATOM      2  C   UNL     1      45.655   3.709  12.129  0.00  0.00    +0.000 A 
ATOM      3  C   UNL     1      46.291   3.352  13.324  0.00  0.00    +0.000 A 
ATOM      4  C   UNL     1      46.909   4.325  14.119  0.00  0.00    +0.000 A 
ATOM      5  C   UNL     1      46.933   5.648  13.676  0.00  0.00    +0.000 A 
ATOM      6  C   UNL     1      46.282   6.007  12.499  0.00  0.00    +0.000 A 
ENDROOT
BRANCH   1   7
ATOM      7  C   UNL     1      44.959   5.412  10.383  0.00  0.00    +0.000 C 
BRANCH   7   8
ATOM      8  N   UNL     1      45.758   4.901   9.254  0.00  0.00    +0.000 NA
ATOM      9  H   UNL     1      46.063   5.697   8.691  0.00  0.00    +0.000 HD
BRANCH   8  10
ATOM     10  C   UNL     1      45.019   3.988   8.379  0.00  0.00    +0.000 C 
BRANCH  10  11
ATOM     11  C   UNL     1      45.936   3.018   7.669  0.00  0.00    +0.000 A 
ATOM     12  C   UNL     1      46.168   1.741   8.201  0.00  0.00    +0.000 A 
ATOM     13  C   UNL     1      46.956   0.817   7.515  0.00  0.00    +0.000 A 
ATOM     14  C   UNL     1      47.516   1.156   6.284  0.00  0.00    +0.000 A 
ATOM     15  C   UNL     1      47.295   2.421   5.745  0.00  0.00    +0.000 A 
ATOM     16  C   UNL     1      46.509   3.349   6.433  0.00  0.00    +0.000 A 
ENDBRANCH  10  11
ENDBRANCH   8  10
ENDBRANCH   7   8
BRANCH   7  17
ATOM     17  C   UNL     1      43.508   4.912  10.367  0.00  0.00    +0.000 C 
BRANCH  17  19
ATOM     18  N   UNL     1      42.393   5.238  12.894  0.00  0.00    +0.000 NA
ATOM     19  C   UNL     1      42.898   5.091  11.748  0.00  0.00    +0.000 C 
ENDBRANCH  17  19
ENDBRANCH   7  17
ENDBRANCH   1   7
BRANCH   4  20
ATOM     20  C   UNL     1      47.548   3.979  15.436  0.00  0.00    +0.000 C 
BRANCH  20  21
ATOM     21  N   UNL     1      47.516   5.087  16.351  0.00  0.00    +0.000 N 
ATOM     22  C   UNL     1      48.658   5.467  17.006  0.00  0.00    +0.000 C 
ATOM     23  O   UNL     1      49.737   4.914  16.808  0.00  0.00    +0.000 OA
ATOM     24  H   UNL     1      46.610   5.370  16.716  0.00  0.00    +0.000 HD
BRANCH  22  25
ATOM     25  C   UNL     1      48.543   6.612  17.912  0.00  0.00    +0.000 A 
ATOM     26  C   UNL     1      48.542   6.398  19.285  0.00  0.00    +0.000 A 
ATOM     27  S   UNL     1      48.421   7.833  20.198  0.00  0.00    +0.000 S 
ATOM     28  C   UNL     1      48.323   8.785  18.790  0.00  0.00    +0.000 A 
ATOM     29  N   UNL     1      48.162  10.130  18.870  0.00  0.00    +0.000 NA
ATOM     30  C   UNL     1      48.082  10.728  17.725  0.00  0.00    +0.000 A 
ATOM     31  N   UNL     1      48.158  10.098  16.511  0.00  0.00    +0.000 N 
ATOM     32  C   UNL     1      48.333   8.738  16.380  0.00  0.00    +0.000 A 
ATOM     33  O   UNL     1      48.431   8.203  15.284  0.00  0.00    +0.000 OA
ATOM     34  C   UNL     1      48.414   8.024  17.642  0.00  0.00    +0.000 A 
ATOM     35  H   UNL     1      48.106  10.623  15.650  0.00  0.00    +0.000 HD
ENDBRANCH  22  25
ENDBRANCH  20  21
ENDBRANCH   4  20
TORSDOF 9
ENDMDL
MODEL 5
REMARK VINA RESULT:    -7.014      1.570      2.103
REMARK INTER + INTRA:         -12.235
REMARK INTER:                 -10.902
REMARK INTRA:                  -1.334
REMARK UNBOUND:                -1.532
REMARK  Name = 
REMARK  9 active torsions:
REMARK  status: ('A' for Active; 'I' for Inactive)
REMARK    1  A    between atoms: C_2  and  C_3
REMARK    2  A    between atoms: C_3  and  C_4
REMARK    3  A    between atoms: C_4  and  N_5
REMARK    4  A    between atoms: C_4  and  C_13
REMARK    5  A    between atoms: N_5  and  C_6
REMARK    6  A    between atoms: C_6  and  C_7
REMARK    7  A    between atoms: C_16  and  C_17
REMARK    8  A    between atoms: C_17  and  N_18
REMARK    9  A    between atoms: C_19  and  C_21
REMARK                            x       y       z     vdW  Elec       q    Type
REMARK                         _______ _______ _______ _____ _____    ______ ____
ROOT
ATOM      1  C   UNL     1      45.077   6.152  11.413  0.00  0.00    +0.000 A 
ATOM      2  C   UNL     1      46.329   5.645  11.789  0.00  0.00    +0.000 A 
ATOM      3  C   UNL     1      47.189   6.399  12.595  0.00  0.00    +0.000 A 
ATOM      4  C   UNL     1      46.811   7.670  13.045  0.00  0.00    +0.000 A 
ATOM      5  C   UNL     1      45.587   8.199  12.632  0.00  0.00    +0.000 A 
ATOM      6  C   UNL     1      44.722   7.441  11.849  0.00  0.00    +0.000 A 
ENDROOT
BRANCH   1   7
ATOM      7  C   UNL     1      44.163   5.325  10.509  0.00  0.00    +0.000 C 
BRANCH   7   8
ATOM      8  N   UNL     1      44.929   4.230   9.888  0.00  0.00    +0.000 NA
ATOM      9  H   UNL     1      45.849   4.192  10.330  0.00  0.00    +0.000 HD
BRANCH   8  10
ATOM     10  C   UNL     1      45.130   4.400   8.447  0.00  0.00    +0.000 C 
BRANCH  10  11
ATOM     11  C   UNL     1      45.867   3.229   7.837  0.00  0.00    +0.000 A 
ATOM     12  C   UNL     1      46.661   3.408   6.694  0.00  0.00    +0.000 A 
ATOM     13  C   UNL     1      47.400   2.347   6.168  0.00  0.00    +0.000 A 
ATOM     14  C   UNL     1      47.359   1.097   6.782  0.00  0.00    +0.000 A 
ATOM     15  C   UNL     1      46.573   0.905   7.917  0.00  0.00    +0.000 A 
ATOM     16  C   UNL     1      45.830   1.965   8.442  0.00  0.00    +0.000 A 
ENDBRANCH  10  11
ENDBRANCH   8  10
ENDBRANCH   7   8
BRANCH   7  17
ATOM     17  C   UNL     1      42.939   4.833  11.294  0.00  0.00    +0.000 C 
BRANCH  17  19
ATOM     18  N   UNL     1      43.631   2.578  12.767  0.00  0.00    +0.000 NA
ATOM     19  C   UNL     1      43.318   3.600  12.099  0.00  0.00    +0.000 C 
ENDBRANCH  17  19
ENDBRANCH   7  17
ENDBRANCH   1   7
BRANCH   4  20
ATOM     20  C   UNL     1      47.690   8.478  13.959  0.00  0.00    +0.000 C 
BRANCH  20  21
ATOM     21  N   UNL     1      48.264   7.668  14.999  0.00  0.00    +0.000 N 
ATOM     22  C   UNL     1      48.429   8.184  16.257  0.00  0.00    +0.000 C 
ATOM     23  O   UNL     1      48.061   9.319  16.548  0.00  0.00    +0.000 OA
ATOM     24  H   UNL     1      48.801   6.851  14.717  0.00  0.00    +0.000 HD
BRANCH  22  25
ATOM     25  C   UNL     1      49.010   7.290  17.261  0.00  0.00    +0.000 A 
ATOM     26  C   UNL     1      48.291   7.000  18.414  0.00  0.00    +0.000 A 
ATOM     27  S   UNL     1      49.097   5.931  19.470  0.00  0.00    +0.000 S 
ATOM     28  C   UNL     1      50.452   5.852  18.442  0.00  0.00    +0.000 A 
ATOM     29  N   UNL     1      51.544   5.123  18.785  0.00  0.00    +0.000 NA
ATOM     30  C   UNL     1      52.509   5.168  17.924  0.00  0.00    +0.000 A 
ATOM     31  N   UNL     1      52.471   5.870  16.748  0.00  0.00    +0.000 N 
ATOM     32  C   UNL     1      51.382   6.614  16.352  0.00  0.00    +0.000 A 
ATOM     33  O   UNL     1      51.360   7.206  15.282  0.00  0.00    +0.000 OA
ATOM     34  C   UNL     1      50.279   6.604  17.297  0.00  0.00    +0.000 A 
ATOM     35  H   UNL     1      53.251   5.851  16.107  0.00  0.00    +0.000 HD
ENDBRANCH  22  25
ENDBRANCH  20  21
ENDBRANCH   4  20
TORSDOF 9
ENDMDL
MODEL 6
REMARK VINA RESULT:    -6.980      2.407      2.741
REMARK INTER + INTRA:         -12.184
REMARK INTER:                 -10.985
REMARK INTRA:                  -1.199
REMARK UNBOUND:                -1.532
REMARK  Name = 
REMARK  9 active torsions:
REMARK  status: ('A' for Active; 'I' for Inactive)
REMARK    1  A    between atoms: C_2  and  C_3
REMARK    2  A    between atoms: C_3  and  C_4
REMARK    3  A    between atoms: C_4  and  N_5
REMARK    4  A    between atoms: C_4  and  C_13
REMARK    5  A    between atoms: N_5  and  C_6
REMARK    6  A    between atoms: C_6  and  C_7
REMARK    7  A    between atoms: C_16  and  C_17
REMARK    8  A    between atoms: C_17  and  N_18
REMARK    9  A    between atoms: C_19  and  C_21
REMARK                            x       y       z     vdW  Elec       q    Type
REMARK                         _______ _______ _______ _____ _____    ______ ____
ROOT
ATOM      1  C   UNL     1      45.865   4.888  12.737  0.00  0.00    +0.000 A 
ATOM      2  C   UNL     1      46.248   4.201  13.898  0.00  0.00    +0.000 A 
ATOM      3  C   UNL     1      47.177   4.762  14.782  0.00  0.00    +0.000 A 
ATOM      4  C   UNL     1      47.734   6.021  14.526  0.00  0.00    +0.000 A 
ATOM      5  C   UNL     1      47.393   6.685  13.347  0.00  0.00    +0.000 A 
ATOM      6  C   UNL     1      46.454   6.139  12.478  0.00  0.00    +0.000 A 
ENDROOT
BRANCH   1   7
ATOM      7  C   UNL     1      44.871   4.248  11.768  0.00  0.00    +0.000 C 
BRANCH   7   8
ATOM      8  N   UNL     1      45.433   2.998  11.226  0.00  0.00    +0.000 NA
ATOM      9  H   UNL     1      46.409   3.168  10.977  0.00  0.00    +0.000 HD
BRANCH   8  10
ATOM     10  C   UNL     1      44.741   2.516  10.029  0.00  0.00    +0.000 C 
BRANCH  10  11
ATOM     11  C   UNL     1      45.619   2.587   8.800  0.00  0.00    +0.000 A 
ATOM     12  C   UNL     1      46.222   1.427   8.290  0.00  0.00    +0.000 A 
ATOM     13  C   UNL     1      46.974   1.474   7.116  0.00  0.00    +0.000 A 
ATOM     14  C   UNL     1      47.129   2.680   6.435  0.00  0.00    +0.000 A 
ATOM     15  C   UNL     1      46.538   3.839   6.932  0.00  0.00    +0.000 A 
ATOM     16  C   UNL     1      45.787   3.795   8.108  0.00  0.00    +0.000 A 
ENDBRANCH  10  11
ENDBRANCH   8  10
ENDBRANCH   7   8
BRANCH   7  17
ATOM     17  C   UNL     1      43.511   4.049  12.453  0.00  0.00    +0.000 C 
BRANCH  17  19
ATOM     18  N   UNL     1      41.854   6.200  11.854  0.00  0.00    +0.000 NA
ATOM     19  C   UNL     1      42.604   5.225  12.126  0.00  0.00    +0.000 C 
ENDBRANCH  17  19
ENDBRANCH   7  17
ENDBRANCH   1   7
BRANCH   4  20
ATOM     20  C   UNL     1      48.689   6.672  15.487  0.00  0.00    +0.000 C 
BRANCH  20  21
ATOM     21  N   UNL     1      49.692   5.751  15.949  0.00  0.00    +0.000 N 
ATOM     22  C   UNL     1      50.398   6.022  17.091  0.00  0.00    +0.000 C 
ATOM     23  O   UNL     1      50.175   7.020  17.771  0.00  0.00    +0.000 OA
ATOM     24  H   UNL     1      50.060   5.082  15.277  0.00  0.00    +0.000 HD
BRANCH  22  25
ATOM     25  C   UNL     1      51.392   5.027  17.498  0.00  0.00    +0.000 A 
ATOM     26  C   UNL     1      52.652   5.449  17.905  0.00  0.00    +0.000 A 
ATOM     27  S   UNL     1      53.683   4.172  18.365  0.00  0.00    +0.000 S 
ATOM     28  C   UNL     1      52.496   3.008  17.994  0.00  0.00    +0.000 A 
ATOM     29  N   UNL     1      52.756   1.683  18.127  0.00  0.00    +0.000 NA
ATOM     30  C   UNL     1      51.774   0.910  17.791  0.00  0.00    +0.000 A 
ATOM     31  N   UNL     1      50.555   1.348  17.345  0.00  0.00    +0.000 N 
ATOM     32  C   UNL     1      50.242   2.682  17.206  0.00  0.00    +0.000 A 
ATOM     33  O   UNL     1      49.135   3.049  16.837  0.00  0.00    +0.000 OA
ATOM     34  C   UNL     1      51.321   3.587  17.558  0.00  0.00    +0.000 A 
ATOM     35  H   UNL     1      49.821   0.694  17.115  0.00  0.00    +0.000 HD
ENDBRANCH  22  25
ENDBRANCH  20  21
ENDBRANCH   4  20
TORSDOF 9
ENDMDL
MODEL 7
REMARK VINA RESULT:    -6.829      2.730      4.406
REMARK INTER + INTRA:         -11.953
REMARK INTER:                 -10.596
REMARK INTRA:                  -1.358
REMARK UNBOUND:                -1.532
REMARK  Name = 
REMARK  9 active torsions:
REMARK  status: ('A' for Active; 'I' for Inactive)
REMARK    1  A    between atoms: C_2  and  C_3
REMARK    2  A    between atoms: C_3  and  C_4
REMARK    3  A    between atoms: C_4  and  N_5
REMARK    4  A    between atoms: C_4  and  C_13
REMARK    5  A    between atoms: N_5  and  C_6
REMARK    6  A    between atoms: C_6  and  C_7
REMARK    7  A    between atoms: C_16  and  C_17
REMARK    8  A    between atoms: C_17  and  N_18
REMARK    9  A    between atoms: C_19  and  C_21
REMARK                            x       y       z     vdW  Elec       q    Type
REMARK                         _______ _______ _______ _____ _____    ______ ____
ROOT
ATOM      1  C   UNL     1      45.578   4.433  12.201  0.00  0.00    +0.000 A 
ATOM      2  C   UNL     1      46.082   3.574  13.187  0.00  0.00    +0.000 A 
ATOM      3  C   UNL     1      46.965   4.051  14.163  0.00  0.00    +0.000 A 
ATOM      4  C   UNL     1      47.354   5.397  14.174  0.00  0.00    +0.000 A 
ATOM      5  C   UNL     1      46.893   6.243  13.166  0.00  0.00    +0.000 A 
ATOM      6  C   UNL     1      45.999   5.775  12.208  0.00  0.00    +0.000 A 
ENDROOT
BRANCH   1   7
ATOM      7  C   UNL     1      44.637   3.888  11.127  0.00  0.00    +0.000 C 
BRANCH   7   8
ATOM      8  N   UNL     1      45.147   2.601  10.620  0.00  0.00    +0.000 NA
ATOM      9  H   UNL     1      46.163   2.669  10.538  0.00  0.00    +0.000 HD
BRANCH   8  10
ATOM     10  C   UNL     1      44.614   2.236   9.306  0.00  0.00    +0.000 C 
BRANCH  10  11
ATOM     11  C   UNL     1      45.670   2.306   8.227  0.00  0.00    +0.000 A 
ATOM     12  C   UNL     1      45.893   3.502   7.528  0.00  0.00    +0.000 A 
ATOM     13  C   UNL     1      46.914   3.594   6.582  0.00  0.00    +0.000 A 
ATOM     14  C   UNL     1      47.729   2.493   6.327  0.00  0.00    +0.000 A 
ATOM     15  C   UNL     1      47.518   1.298   7.012  0.00  0.00    +0.000 A 
ATOM     16  C   UNL     1      46.494   1.204   7.957  0.00  0.00    +0.000 A 
ENDBRANCH  10  11
ENDBRANCH   8  10
ENDBRANCH   7   8
BRANCH   7  17
ATOM     17  C   UNL     1      43.204   3.796  11.668  0.00  0.00    +0.000 C 
BRANCH  17  19
ATOM     18  N   UNL     1      42.092   6.342  11.773  0.00  0.00    +0.000 NA
ATOM     19  C   UNL     1      42.595   5.188  11.725  0.00  0.00    +0.000 C 
ENDBRANCH  17  19
ENDBRANCH   7  17
ENDBRANCH   1   7
BRANCH   4  20
ATOM     20  C   UNL     1      48.253   5.949  15.245  0.00  0.00    +0.000 C 
BRANCH  20  21
ATOM     21  N   UNL     1      48.969   7.110  14.793  0.00  0.00    +0.000 N 
ATOM     22  C   UNL     1      50.279   7.290  15.151  0.00  0.00    +0.000 C 
ATOM     23  O   UNL     1      50.890   6.463  15.823  0.00  0.00    +0.000 OA
ATOM     24  H   UNL     1      48.422   7.906  14.475  0.00  0.00    +0.000 HD
BRANCH  22  25
ATOM     25  C   UNL     1      50.939   8.493  14.639  0.00  0.00    +0.000 A 
ATOM     26  C   UNL     1      51.542   9.372  15.531  0.00  0.00    +0.000 A 
ATOM     27  S   UNL     1      52.281  10.710  14.774  0.00  0.00    +0.000 S 
ATOM     28  C   UNL     1      51.784  10.182  13.234  0.00  0.00    +0.000 A 
ATOM     29  N   UNL     1      52.062  10.913  12.125  0.00  0.00    +0.000 NA
ATOM     30  C   UNL     1      51.608  10.408  11.024  0.00  0.00    +0.000 A 
ATOM     31  N   UNL     1      50.909   9.233  10.936  0.00  0.00    +0.000 N 
ATOM     32  C   UNL     1      50.614   8.451  12.031  0.00  0.00    +0.000 A 
ATOM     33  O   UNL     1      50.018   7.388  11.923  0.00  0.00    +0.000 OA
ATOM     34  C   UNL     1      51.093   8.988  13.292  0.00  0.00    +0.000 A 
ATOM     35  H   UNL     1      50.596   8.881  10.043  0.00  0.00    +0.000 HD
ENDBRANCH  22  25
ENDBRANCH  20  21
ENDBRANCH   4  20
TORSDOF 9
ENDMDL
MODEL 8
REMARK VINA RESULT:    -6.612      3.180      5.775
REMARK INTER + INTRA:         -11.623
REMARK INTER:                  -9.989
REMARK INTRA:                  -1.633
REMARK UNBOUND:                -1.532
REMARK  Name = 
REMARK  9 active torsions:
REMARK  status: ('A' for Active; 'I' for Inactive)
REMARK    1  A    between atoms: C_2  and  C_3
REMARK    2  A    between atoms: C_3  and  C_4
REMARK    3  A    between atoms: C_4  and  N_5
REMARK    4  A    between atoms: C_4  and  C_13
REMARK    5  A    between atoms: N_5  and  C_6
REMARK    6  A    between atoms: C_6  and  C_7
REMARK    7  A    between atoms: C_16  and  C_17
REMARK    8  A    between atoms: C_17  and  N_18
REMARK    9  A    between atoms: C_19  and  C_21
REMARK                            x       y       z     vdW  Elec       q    Type
REMARK                         _______ _______ _______ _____ _____    ______ ____
ROOT
ATOM      1  C   UNL     1      47.655   6.024  14.374  0.00  0.00    +0.000 A 
ATOM      2  C   UNL     1      47.063   4.756  14.281  0.00  0.00    +0.000 A 
ATOM      3  C   UNL     1      47.213   3.824  15.314  0.00  0.00    +0.000 A 
ATOM      4  C   UNL     1      47.952   4.144  16.460  0.00  0.00    +0.000 A 
ATOM      5  C   UNL     1      48.584   5.385  16.534  0.00  0.00    +0.000 A 
ATOM      6  C   UNL     1      48.417   6.321  15.518  0.00  0.00    +0.000 A 
ENDROOT
BRANCH   1   7
ATOM      7  C   UNL     1      47.504   7.020  13.224  0.00  0.00    +0.000 C 
BRANCH   7   8
ATOM      8  N   UNL     1      46.154   7.612  13.249  0.00  0.00    +0.000 NA
ATOM      9  H   UNL     1      45.634   7.192  14.021  0.00  0.00    +0.000 HD
BRANCH   8  10
ATOM     10  C   UNL     1      45.392   7.385  12.018  0.00  0.00    +0.000 C 
BRANCH  10  11
ATOM     11  C   UNL     1      44.798   5.996  11.968  0.00  0.00    +0.000 A 
ATOM     12  C   UNL     1      43.855   5.592  12.925  0.00  0.00    +0.000 A 
ATOM     13  C   UNL     1      43.250   4.337  12.843  0.00  0.00    +0.000 A 
ATOM     14  C   UNL     1      43.577   3.473  11.800  0.00  0.00    +0.000 A 
ATOM     15  C   UNL     1      44.514   3.860  10.844  0.00  0.00    +0.000 A 
ATOM     16  C   UNL     1      45.123   5.114  10.927  0.00  0.00    +0.000 A 
ENDBRANCH  10  11
ENDBRANCH   8  10
ENDBRANCH   7   8
BRANCH   7  17
ATOM     17  C   UNL     1      48.622   8.070  13.275  0.00  0.00    +0.000 C 
BRANCH  17  19
ATOM     18  N   UNL     1      50.443   7.577  11.232  0.00  0.00    +0.000 NA
ATOM     19  C   UNL     1      49.618   7.801  12.158  0.00  0.00    +0.000 C 
ENDBRANCH  17  19
ENDBRANCH   7  17
ENDBRANCH   1   7
BRANCH   4  20
ATOM     20  C   UNL     1      48.080   3.183  17.609  0.00  0.00    +0.000 C 
BRANCH  20  21
ATOM     21  N   UNL     1      49.454   2.968  17.974  0.00  0.00    +0.000 N 
ATOM     22  C   UNL     1      50.261   2.196  17.182  0.00  0.00    +0.000 C 
ATOM     23  O   UNL     1      49.860   1.702  16.131  0.00  0.00    +0.000 OA
ATOM     24  H   UNL     1      49.715   3.139  18.942  0.00  0.00    +0.000 HD
BRANCH  22  25
ATOM     25  C   UNL     1      51.650   2.037  17.618  0.00  0.00    +0.000 A 
ATOM     26  C   UNL     1      52.241   0.781  17.568  0.00  0.00    +0.000 A 
ATOM     27  S   UNL     1      53.864   0.770  18.091  0.00  0.00    +0.000 S 
ATOM     28  C   UNL     1      53.818   2.435  18.444  0.00  0.00    +0.000 A 
ATOM     29  N   UNL     1      54.896   3.064  18.976  0.00  0.00    +0.000 NA
ATOM     30  C   UNL     1      54.718   4.323  19.215  0.00  0.00    +0.000 A 
ATOM     31  N   UNL     1      53.559   5.007  18.958  0.00  0.00    +0.000 N 
ATOM     32  C   UNL     1      52.443   4.415  18.408  0.00  0.00    +0.000 A 
ATOM     33  O   UNL     1      51.431   5.055  18.157  0.00  0.00    +0.000 OA
ATOM     34  C   UNL     1      52.594   2.997  18.137  0.00  0.00    +0.000 A 
ATOM     35  H   UNL     1      53.487   5.996  19.150  0.00  0.00    +0.000 HD
ENDBRANCH  22  25
ENDBRANCH  20  21
ENDBRANCH   4  20
TORSDOF 9
ENDMDL
MODEL 9
REMARK VINA RESULT:    -6.256      3.055      4.735
REMARK INTER + INTRA:         -11.080
REMARK INTER:                  -9.867
REMARK INTRA:                  -1.213
REMARK UNBOUND:                -1.532
REMARK  Name = 
REMARK  9 active torsions:
REMARK  status: ('A' for Active; 'I' for Inactive)
REMARK    1  A    between atoms: C_2  and  C_3
REMARK    2  A    between atoms: C_3  and  C_4
REMARK    3  A    between atoms: C_4  and  N_5
REMARK    4  A    between atoms: C_4  and  C_13
REMARK    5  A    between atoms: N_5  and  C_6
REMARK    6  A    between atoms: C_6  and  C_7
REMARK    7  A    between atoms: C_16  and  C_17
REMARK    8  A    between atoms: C_17  and  N_18
REMARK    9  A    between atoms: C_19  and  C_21
REMARK                            x       y       z     vdW  Elec       q    Type
REMARK                         _______ _______ _______ _____ _____    ______ ____
ROOT
ATOM      1  C   UNL     1      47.542   5.700  14.306  0.00  0.00    +0.000 A 
ATOM      2  C   UNL     1      47.168   4.622  15.120  0.00  0.00    +0.000 A 
ATOM      3  C   UNL     1      47.598   4.552  16.450  0.00  0.00    +0.000 A 
ATOM      4  C   UNL     1      48.403   5.563  16.992  0.00  0.00    +0.000 A 
ATOM      5  C   UNL     1      48.818   6.612  16.171  0.00  0.00    +0.000 A 
ATOM      6  C   UNL     1      48.373   6.693  14.855  0.00  0.00    +0.000 A 
ENDROOT
BRANCH   1   7
ATOM      7  C   UNL     1      47.085   5.745  12.848  0.00  0.00    +0.000 C 
BRANCH   7   8
ATOM      8  N   UNL     1      45.614   5.696  12.782  0.00  0.00    +0.000 NA
ATOM      9  H   UNL     1      45.242   6.000  13.683  0.00  0.00    +0.000 HD
BRANCH   8  10
ATOM     10  C   UNL     1      45.084   4.358  12.507  0.00  0.00    +0.000 C 
BRANCH  10  11
ATOM     11  C   UNL     1      45.000   4.077  11.023  0.00  0.00    +0.000 A 
ATOM     12  C   UNL     1      45.424   5.038  10.094  0.00  0.00    +0.000 A 
ATOM     13  C   UNL     1      45.415   4.758   8.727  0.00  0.00    +0.000 A 
ATOM     14  C   UNL     1      44.989   3.511   8.273  0.00  0.00    +0.000 A 
ATOM     15  C   UNL     1      44.562   2.549   9.186  0.00  0.00    +0.000 A 
ATOM     16  C   UNL     1      44.567   2.828  10.554  0.00  0.00    +0.000 A 
ENDBRANCH  10  11
ENDBRANCH   8  10
ENDBRANCH   7   8
BRANCH   7  17
ATOM     17  C   UNL     1      47.678   6.971  12.139  0.00  0.00    +0.000 C 
BRANCH  17  19
ATOM     18  N   UNL     1      45.767   8.987  12.030  0.00  0.00    +0.000 NA
ATOM     19  C   UNL     1      46.634   8.074  12.080  0.00  0.00    +0.000 C 
ENDBRANCH  17  19
ENDBRANCH   7  17
ENDBRANCH   1   7
BRANCH   4  20
ATOM     20  C   UNL     1      48.831   5.543  18.433  0.00  0.00    +0.000 C 
BRANCH  20  21
ATOM     21  N   UNL     1      49.908   4.618  18.657  0.00  0.00    +0.000 N 
ATOM     22  C   UNL     1      51.206   5.055  18.620  0.00  0.00    +0.000 C 
ATOM     23  O   UNL     1      51.490   6.236  18.439  0.00  0.00    +0.000 OA
ATOM     24  H   UNL     1      49.708   3.627  18.543  0.00  0.00    +0.000 HD
BRANCH  22  25
ATOM     25  C   UNL     1      52.242   4.051  18.870  0.00  0.00    +0.000 A 
ATOM     26  C   UNL     1      53.295   4.356  19.725  0.00  0.00    +0.000 A 
ATOM     27  S   UNL     1      54.403   3.076  19.925  0.00  0.00    +0.000 S 
ATOM     28  C   UNL     1      53.538   2.086  18.843  0.00  0.00    +0.000 A 
ATOM     29  N   UNL     1      53.983   0.843  18.530  0.00  0.00    +0.000 NA
ATOM     30  C   UNL     1      53.242   0.208  17.680  0.00  0.00    +0.000 A 
ATOM     31  N   UNL     1      52.092   0.705  17.126  0.00  0.00    +0.000 N 
ATOM     32  C   UNL     1      51.595   1.955  17.422  0.00  0.00    +0.000 A 
ATOM     33  O   UNL     1      50.548   2.364  16.939  0.00  0.00    +0.000 OA
ATOM     34  C   UNL     1      52.404   2.710  18.362  0.00  0.00    +0.000 A 
ATOM     35  H   UNL     1      51.546   0.153  16.481  0.00  0.00    +0.000 HD
ENDBRANCH  22  25
ENDBRANCH  20  21
ENDBRANCH   4  20
TORSDOF 9
ENDMDL
