MODEL 1
REMARK VINA RESULT:    -7.850      0.000      0.000
REMARK INTER + INTRA:         -11.805
REMARK INTER:                 -11.062
REMARK INTRA:                  -0.743
REMARK UNBOUND:                -0.743
REMARK  Name = 
REMARK  7 active torsions:
REMARK  status: ('A' for Active; 'I' for Inactive)
REMARK    1  A    between atoms: C_2  and  C_4
REMARK    2  A    between atoms: C_7  and  O_8
REMARK    3  A    between atoms: O_8  and  C_9
REMARK    4  A    between atoms: C_9  and  C_10
REMARK    5  A    between atoms: C_10  and  C_11
REMARK    6  A    between atoms: C_15  and  O_16
REMARK    7  A    between atoms: O_16  and  C_17
REMARK                            x       y       z     vdW  Elec       q    Type
REMARK                         _______ _______ _______ _____ _____    ______ ____
ROOT
ATOM      1  C   UNL     1      43.619   3.988  11.003  0.00  0.00    +0.000 C 
ENDROOT
BRANCH   1   2
ATOM      2  O   UNL     1      43.761   4.523   9.676  0.00  0.00    +0.000 OA
BRANCH   2   6
ATOM      3  C   UNL     1      46.548   2.395   7.506  0.00  0.00    +0.000 A 
ATOM      4  C   UNL     1      45.772   1.731   8.462  0.00  0.00    +0.000 A 
ATOM      5  C   UNL     1      44.830   2.457   9.198  0.00  0.00    +0.000 A 
ATOM      6  C   UNL     1      44.701   3.816   8.948  0.00  0.00    +0.000 A 
ATOM      7  N   UNL     1      45.447   4.475   8.035  0.00  0.00    +0.000 NA
ATOM      8  C   UNL     1      46.359   3.757   7.343  0.00  0.00    +0.000 A 
BRANCH   3  10
ATOM      9  N   UNL     1      48.719   2.430   6.422  0.00  0.00    +0.000 N 
ATOM     10  C   UNL     1      47.569   1.732   6.670  0.00  0.00    +0.000 C 
ATOM     11  O   UNL     1      47.417   0.592   6.255  0.00  0.00    +0.000 OA
ATOM     12  H   UNL     1      49.455   1.914   5.958  0.00  0.00    +0.000 HD
ATOM     13  H   UNL     1      48.986   3.237   6.967  0.00  0.00    +0.000 HD
ENDBRANCH   3  10
ENDBRANCH   2   6
ENDBRANCH   1   2
BRANCH   1  14
ATOM     14  C   UNL     1      43.694   5.110  12.036  0.00  0.00    +0.000 C 
BRANCH  14  15
ATOM     15  C   UNL     1      45.111   5.307  12.517  0.00  0.00    +0.000 A 
ATOM     16  C   UNL     1      45.882   6.374  12.046  0.00  0.00    +0.000 A 
ATOM     17  C   UNL     1      47.163   6.597  12.558  0.00  0.00    +0.000 A 
ATOM     18  C   UNL     1      47.693   5.757  13.545  0.00  0.00    +0.000 A 
ATOM     19  C   UNL     1      46.939   4.682  14.012  0.00  0.00    +0.000 A 
ATOM     20  C   UNL     1      45.653   4.470  13.505  0.00  0.00    +0.000 A 
BRANCH  19  21
ATOM     21  O   UNL     1      47.325   3.802  14.994  0.00  0.00    +0.000 OA
BRANCH  21  22
ATOM     22  C   UNL     1      47.299   4.221  16.378  0.00  0.00    +0.000 C 
ATOM     23  C   UNL     1      48.621   4.633  17.039  0.00  0.00    +0.000 C 
ATOM     24  O   UNL     1      48.485   3.633  18.074  0.00  0.00    +0.000 OA
ATOM     25  C   UNL     1      47.325   3.079  17.411  0.00  0.00    +0.000 C 
ENDBRANCH  21  22
ENDBRANCH  19  21
ENDBRANCH  14  15
ENDBRANCH   1  14
TORSDOF 7
ENDMDL
MODEL 2
REMARK VINA RESULT:    -7.232      2.400      3.911
REMARK INTER + INTRA:         -10.934
REMARK INTER:                 -10.150
REMARK INTRA:                  -0.784
REMARK UNBOUND:                -0.743
REMARK  Name = 
REMARK  7 active torsions:
REMARK  status: ('A' for Active; 'I' for Inactive)
REMARK    1  A    between atoms: C_2  and  C_4
REMARK    2  A    between atoms: C_7  and  O_8
REMARK    3  A    between atoms: O_8  and  C_9
REMARK    4  A    between atoms: C_9  and  C_10
REMARK    5  A    between atoms: C_10  and  C_11
REMARK    6  A    between atoms: C_15  and  O_16
REMARK    7  A    between atoms: O_16  and  C_17
REMARK                            x       y       z     vdW  Elec       q    Type
REMARK                         _______ _______ _______ _____ _____    ______ ____
ROOT
ATOM      1  C   UNL     1      43.478   3.995  11.158  0.00  0.00    +0.000 C 
ENDROOT
BRANCH   1   2
ATOM      2  O   UNL     1      43.724   4.624   9.889  0.00  0.00    +0.000 OA
BRANCH   2   6
ATOM      3  C   UNL     1      46.444   2.465   7.665  0.00  0.00    +0.000 A 
ATOM      4  C   UNL     1      45.644   1.801   8.602  0.00  0.00    +0.000 A 
ATOM      5  C   UNL     1      44.724   2.538   9.356  0.00  0.00    +0.000 A 
ATOM      6  C   UNL     1      44.641   3.906   9.143  0.00  0.00    +0.000 A 
ATOM      7  N   UNL     1      45.411   4.564   8.249  0.00  0.00    +0.000 NA
ATOM      8  C   UNL     1      46.300   3.836   7.539  0.00  0.00    +0.000 A 
BRANCH   3  10
ATOM      9  N   UNL     1      48.538   2.525   6.439  0.00  0.00    +0.000 N 
ATOM     10  C   UNL     1      47.444   1.791   6.813  0.00  0.00    +0.000 C 
ATOM     11  O   UNL     1      47.328   0.618   6.492  0.00  0.00    +0.000 OA
ATOM     12  H   UNL     1      49.269   2.012   5.965  0.00  0.00    +0.000 HD
ATOM     13  H   UNL     1      48.795   3.382   6.906  0.00  0.00    +0.000 HD
ENDBRANCH   3  10
ENDBRANCH   2   6
ENDBRANCH   1   2
BRANCH   1  14
ATOM     14  C   UNL     1      43.444   5.042  12.269  0.00  0.00    +0.000 C 
BRANCH  14  15
ATOM     15  C   UNL     1      44.842   5.457  12.661  0.00  0.00    +0.000 A 
ATOM     16  C   UNL     1      45.637   4.623  13.452  0.00  0.00    +0.000 A 
ATOM     17  C   UNL     1      46.958   4.977  13.742  0.00  0.00    +0.000 A 
ATOM     18  C   UNL     1      47.501   6.169  13.248  0.00  0.00    +0.000 A 
ATOM     19  C   UNL     1      46.713   7.015  12.471  0.00  0.00    +0.000 A 
ATOM     20  C   UNL     1      45.395   6.651  12.174  0.00  0.00    +0.000 A 
BRANCH  19  21
ATOM     21  O   UNL     1      47.128   8.196  11.902  0.00  0.00    +0.000 OA
BRANCH  21  22
ATOM     22  C   UNL     1      46.794   9.450  12.538  0.00  0.00    +0.000 C 
ATOM     23  C   UNL     1      45.742  10.348  11.872  0.00  0.00    +0.000 C 
ATOM     24  O   UNL     1      46.665  11.455  11.769  0.00  0.00    +0.000 OA
ATOM     25  C   UNL     1      47.750  10.619  12.231  0.00  0.00    +0.000 C 
ENDBRANCH  21  22
ENDBRANCH  19  21
ENDBRANCH  14  15
ENDBRANCH   1  14
TORSDOF 7
ENDMDL
MODEL 3
REMARK VINA RESULT:    -6.691      2.813      8.124
REMARK INTER + INTRA:         -10.172
REMARK INTER:                  -9.503
REMARK INTRA:                  -0.669
REMARK UNBOUND:                -0.743
REMARK  Name = 
REMARK  7 active torsions:
REMARK  status: ('A' for Active; 'I' for Inactive)
REMARK    1  A    between atoms: C_2  and  C_4
REMARK    2  A    between atoms: C_7  and  O_8
REMARK    3  A    between atoms: O_8  and  C_9
REMARK    4  A    between atoms: C_9  and  C_10
REMARK    5  A    between atoms: C_10  and  C_11
REMARK    6  A    between atoms: C_15  and  O_16
REMARK    7  A    between atoms: O_16  and  C_17
REMARK                            x       y       z     vdW  Elec       q    Type
REMARK                         _______ _______ _______ _____ _____    ______ ____
ROOT
ATOM      1  C   UNL     1      45.851   6.405  12.157  0.00  0.00    +0.000 C 
ENDROOT
BRANCH   1   2
ATOM      2  O   UNL     1      47.237   6.344  12.533  0.00  0.00    +0.000 OA
BRANCH   2   6
ATOM      3  C   UNL     1      47.719   4.521  16.199  0.00  0.00    +0.000 A 
ATOM      4  C   UNL     1      48.382   5.726  15.941  0.00  0.00    +0.000 A 
ATOM      5  C   UNL     1      48.218   6.340  14.694  0.00  0.00    +0.000 A 
ATOM      6  C   UNL     1      47.398   5.725  13.759  0.00  0.00    +0.000 A 
ATOM      7  N   UNL     1      46.757   4.558  13.989  0.00  0.00    +0.000 NA
ATOM      8  C   UNL     1      46.939   3.977  15.194  0.00  0.00    +0.000 A 
BRANCH   3  10
ATOM      9  N   UNL     1      46.904   2.790  17.692  0.00  0.00    +0.000 N 
ATOM     10  C   UNL     1      47.817   3.787  17.477  0.00  0.00    +0.000 C 
ATOM     11  O   UNL     1      48.700   4.024  18.288  0.00  0.00    +0.000 OA
ATOM     12  H   UNL     1      47.064   2.217  18.510  0.00  0.00    +0.000 HD
ATOM     13  H   UNL     1      46.355   2.393  16.944  0.00  0.00    +0.000 HD
ENDBRANCH   3  10
ENDBRANCH   2   6
ENDBRANCH   1   2
BRANCH   1  14
ATOM     14  C   UNL     1      45.714   6.405  10.636  0.00  0.00    +0.000 C 
BRANCH  14  15
ATOM     15  C   UNL     1      45.391   5.023  10.123  0.00  0.00    +0.000 A 
ATOM     16  C   UNL     1      44.680   4.117  10.916  0.00  0.00    +0.000 A 
ATOM     17  C   UNL     1      44.313   2.869  10.403  0.00  0.00    +0.000 A 
ATOM     18  C   UNL     1      44.653   2.509   9.093  0.00  0.00    +0.000 A 
ATOM     19  C   UNL     1      45.374   3.398   8.299  0.00  0.00    +0.000 A 
ATOM     20  C   UNL     1      45.729   4.650   8.813  0.00  0.00    +0.000 A 
BRANCH  19  21
ATOM     21  O   UNL     1      45.746   3.183   6.994  0.00  0.00    +0.000 OA
BRANCH  21  22
ATOM     22  C   UNL     1      47.133   2.925   6.681  0.00  0.00    +0.000 C 
ATOM     23  C   UNL     1      47.490   2.496   5.250  0.00  0.00    +0.000 C 
ATOM     24  O   UNL     1      48.096   1.265   5.706  0.00  0.00    +0.000 OA
ATOM     25  C   UNL     1      47.642   1.520   7.056  0.00  0.00    +0.000 C 
ENDBRANCH  21  22
ENDBRANCH  19  21
ENDBRANCH  14  15
ENDBRANCH   1  14
TORSDOF 7
ENDMDL
MODEL 4
REMARK VINA RESULT:    -6.674      2.140      2.765
REMARK INTER + INTRA:         -10.148
REMARK INTER:                  -9.495
REMARK INTRA:                  -0.653
REMARK UNBOUND:                -0.743
REMARK  Name = 
REMARK  7 active torsions:
REMARK  status: ('A' for Active; 'I' for Inactive)
REMARK    1  A    between atoms: C_2  and  C_4
REMARK    2  A    between atoms: C_7  and  O_8
REMARK    3  A    between atoms: O_8  and  C_9
REMARK    4  A    between atoms: C_9  and  C_10
REMARK    5  A    between atoms: C_10  and  C_11
REMARK    6  A    between atoms: C_15  and  O_16
REMARK    7  A    between atoms: O_16  and  C_17
REMARK                            x       y       z     vdW  Elec       q    Type
REMARK                         _______ _______ _______ _____ _____    ______ ____
ROOT
ATOM      1  C   UNL     1      43.999   4.845  11.042  0.00  0.00    +0.000 C 
ENDROOT
BRANCH   1   2
ATOM      2  O   UNL     1      43.623   4.651   9.669  0.00  0.00    +0.000 OA
BRANCH   2   6
ATOM      3  C   UNL     1      46.428   2.405   7.646  0.00  0.00    +0.000 A 
ATOM      4  C   UNL     1      45.651   1.797   8.639  0.00  0.00    +0.000 A 
ATOM      5  C   UNL     1      44.702   2.564   9.325  0.00  0.00    +0.000 A 
ATOM      6  C   UNL     1      44.569   3.904   8.990  0.00  0.00    +0.000 A 
ATOM      7  N   UNL     1      45.317   4.508   8.040  0.00  0.00    +0.000 NA
ATOM      8  C   UNL     1      46.235   3.752   7.398  0.00  0.00    +0.000 A 
BRANCH   3  10
ATOM      9  N   UNL     1      48.577   2.402   6.518  0.00  0.00    +0.000 N 
ATOM     10  C   UNL     1      47.456   1.695   6.858  0.00  0.00    +0.000 C 
ATOM     11  O   UNL     1      47.335   0.516   6.560  0.00  0.00    +0.000 OA
ATOM     12  H   UNL     1      49.321   1.867   6.091  0.00  0.00    +0.000 HD
ATOM     13  H   UNL     1      48.827   3.267   6.975  0.00  0.00    +0.000 HD
ENDBRANCH   3  10
ENDBRANCH   2   6
ENDBRANCH   1   2
BRANCH   1  14
ATOM     14  C   UNL     1      44.993   5.998  11.160  0.00  0.00    +0.000 C 
BRANCH  14  15
ATOM     15  C   UNL     1      45.897   5.811  12.355  0.00  0.00    +0.000 A 
ATOM     16  C   UNL     1      45.684   4.759  13.252  0.00  0.00    +0.000 A 
ATOM     17  C   UNL     1      46.573   4.545  14.309  0.00  0.00    +0.000 A 
ATOM     18  C   UNL     1      47.685   5.378  14.485  0.00  0.00    +0.000 A 
ATOM     19  C   UNL     1      47.898   6.438  13.607  0.00  0.00    +0.000 A 
ATOM     20  C   UNL     1      47.012   6.642  12.544  0.00  0.00    +0.000 A 
BRANCH  19  21
ATOM     21  O   UNL     1      48.960   7.310  13.649  0.00  0.00    +0.000 OA
BRANCH  21  22
ATOM     22  C   UNL     1      49.503   7.711  14.927  0.00  0.00    +0.000 C 
ATOM     23  C   UNL     1      48.653   8.620  15.827  0.00  0.00    +0.000 C 
ATOM     24  O   UNL     1      49.678   9.639  15.867  0.00  0.00    +0.000 OA
ATOM     25  C   UNL     1      50.460   8.918  14.886  0.00  0.00    +0.000 C 
ENDBRANCH  21  22
ENDBRANCH  19  21
ENDBRANCH  14  15
ENDBRANCH   1  14
TORSDOF 7
ENDMDL
MODEL 5
REMARK VINA RESULT:    -6.510      2.993      4.912
REMARK INTER + INTRA:          -9.917
REMARK INTER:                  -9.460
REMARK INTRA:                  -0.457
REMARK UNBOUND:                -0.743
REMARK  Name = 
REMARK  7 active torsions:
REMARK  status: ('A' for Active; 'I' for Inactive)
REMARK    1  A    between atoms: C_2  and  C_4
REMARK    2  A    between atoms: C_7  and  O_8
REMARK    3  A    between atoms: O_8  and  C_9
REMARK    4  A    between atoms: C_9  and  C_10
REMARK    5  A    between atoms: C_10  and  C_11
REMARK    6  A    between atoms: C_15  and  O_16
REMARK    7  A    between atoms: O_16  and  C_17
REMARK                            x       y       z     vdW  Elec       q    Type
REMARK                         _______ _______ _______ _____ _____    ______ ____
ROOT
ATOM      1  C   UNL     1      43.969   4.530  11.453  0.00  0.00    +0.000 C 
ENDROOT
BRANCH   1   2
ATOM      2  O   UNL     1      43.745   4.669  10.041  0.00  0.00    +0.000 OA
BRANCH   2   6
ATOM      3  C   UNL     1      46.356   2.326   7.874  0.00  0.00    +0.000 A 
ATOM      4  C   UNL     1      46.366   3.713   7.689  0.00  0.00    +0.000 A 
ATOM      5  C   UNL     1      45.476   4.504   8.425  0.00  0.00    +0.000 A 
ATOM      6  C   UNL     1      44.615   3.877   9.314  0.00  0.00    +0.000 A 
ATOM      7  N   UNL     1      44.586   2.539   9.498  0.00  0.00    +0.000 NA
ATOM      8  C   UNL     1      45.446   1.793   8.770  0.00  0.00    +0.000 A 
BRANCH   3  10
ATOM      9  N   UNL     1      48.371   1.929   6.582  0.00  0.00    +0.000 N 
ATOM     10  C   UNL     1      47.250   1.395   7.157  0.00  0.00    +0.000 C 
ATOM     11  O   UNL     1      47.026   0.194   7.115  0.00  0.00    +0.000 OA
ATOM     12  H   UNL     1      49.033   1.262   6.207  0.00  0.00    +0.000 HD
ATOM     13  H   UNL     1      48.720   2.843   6.831  0.00  0.00    +0.000 HD
ENDBRANCH   3  10
ENDBRANCH   2   6
ENDBRANCH   1   2
BRANCH   1  14
ATOM     14  C   UNL     1      45.464   4.579  11.759  0.00  0.00    +0.000 C 
BRANCH  14  15
ATOM     15  C   UNL     1      45.860   5.929  12.304  0.00  0.00    +0.000 A 
ATOM     16  C   UNL     1      47.080   6.100  12.967  0.00  0.00    +0.000 A 
ATOM     17  C   UNL     1      47.476   7.370  13.396  0.00  0.00    +0.000 A 
ATOM     18  C   UNL     1      46.659   8.486  13.171  0.00  0.00    +0.000 A 
ATOM     19  C   UNL     1      45.436   8.324  12.525  0.00  0.00    +0.000 A 
ATOM     20  C   UNL     1      45.049   7.054  12.087  0.00  0.00    +0.000 A 
BRANCH  19  21
ATOM     21  O   UNL     1      44.555   9.334  12.217  0.00  0.00    +0.000 OA
BRANCH  21  22
ATOM     22  C   UNL     1      44.171   9.550  10.841  0.00  0.00    +0.000 C 
ATOM     23  C   UNL     1      44.355  10.953  10.245  0.00  0.00    +0.000 C 
ATOM     24  O   UNL     1      42.952  11.062   9.915  0.00  0.00    +0.000 OA
ATOM     25  C   UNL     1      42.673   9.825  10.611  0.00  0.00    +0.000 C 
ENDBRANCH  21  22
ENDBRANCH  19  21
ENDBRANCH  14  15
ENDBRANCH   1  14
TORSDOF 7
ENDMDL
MODEL 6
REMARK VINA RESULT:    -6.379      3.684      8.246
REMARK INTER + INTRA:          -9.732
REMARK INTER:                  -9.569
REMARK INTRA:                  -0.163
REMARK UNBOUND:                -0.743
REMARK  Name = 
REMARK  7 active torsions:
REMARK  status: ('A' for Active; 'I' for Inactive)
REMARK    1  A    between atoms: C_2  and  C_4
REMARK    2  A    between atoms: C_7  and  O_8
REMARK    3  A    between atoms: O_8  and  C_9
REMARK    4  A    between atoms: C_9  and  C_10
REMARK    5  A    between atoms: C_10  and  C_11
REMARK    6  A    between atoms: C_15  and  O_16
REMARK    7  A    between atoms: O_16  and  C_17
REMARK                            x       y       z     vdW  Elec       q    Type
REMARK                         _______ _______ _______ _____ _____    ______ ____
ROOT
ATOM      1  C   UNL     1      46.932   4.742  14.930  0.00  0.00    +0.000 C 
ENDROOT
BRANCH   1   2
ATOM      2  O   UNL     1      46.764   3.878  16.066  0.00  0.00    +0.000 OA
BRANCH   2   6
ATOM      3  C   UNL     1      50.370   2.334  17.336  0.00  0.00    +0.000 A 
ATOM      4  C   UNL     1      49.884   3.510  17.920  0.00  0.00    +0.000 A 
ATOM      5  C   UNL     1      48.662   4.031  17.484  0.00  0.00    +0.000 A 
ATOM      6  C   UNL     1      47.975   3.357  16.485  0.00  0.00    +0.000 A 
ATOM      7  N   UNL     1      48.433   2.227  15.904  0.00  0.00    +0.000 NA
ATOM      8  C   UNL     1      49.622   1.746  16.331  0.00  0.00    +0.000 A 
BRANCH   3  10
ATOM      9  N   UNL     1      51.591   0.377  18.090  0.00  0.00    +0.000 N 
ATOM     10  C   UNL     1      51.645   1.693  17.717  0.00  0.00    +0.000 C 
ATOM     11  O   UNL     1      52.708   2.293  17.659  0.00  0.00    +0.000 OA
ATOM     12  H   UNL     1      52.484  -0.078  18.224  0.00  0.00    +0.000 HD
ATOM     13  H   UNL     1      50.795  -0.208  17.884  0.00  0.00    +0.000 HD
ENDBRANCH   3  10
ENDBRANCH   2   6
ENDBRANCH   1   2
BRANCH   1  14
ATOM     14  C   UNL     1      46.901   3.928  13.638  0.00  0.00    +0.000 C 
BRANCH  14  15
ATOM     15  C   UNL     1      45.604   4.142  12.895  0.00  0.00    +0.000 A 
ATOM     16  C   UNL     1      44.620   4.992  13.411  0.00  0.00    +0.000 A 
ATOM     17  C   UNL     1      43.458   5.249  12.678  0.00  0.00    +0.000 A 
ATOM     18  C   UNL     1      43.263   4.660  11.422  0.00  0.00    +0.000 A 
ATOM     19  C   UNL     1      44.230   3.801  10.906  0.00  0.00    +0.000 A 
ATOM     20  C   UNL     1      45.396   3.556  11.637  0.00  0.00    +0.000 A 
BRANCH  19  21
ATOM     21  O   UNL     1      44.176   3.182   9.680  0.00  0.00    +0.000 OA
BRANCH  21  22
ATOM     22  C   UNL     1      44.560   3.915   8.494  0.00  0.00    +0.000 C 
ATOM     23  C   UNL     1      45.468   3.219   7.470  0.00  0.00    +0.000 C 
ATOM     24  O   UNL     1      46.477   4.249   7.575  0.00  0.00    +0.000 OA
ATOM     25  C   UNL     1      45.758   4.867   8.667  0.00  0.00    +0.000 C 
ENDBRANCH  21  22
ENDBRANCH  19  21
ENDBRANCH  14  15
ENDBRANCH   1  14
TORSDOF 7
ENDMDL
MODEL 7
REMARK VINA RESULT:    -6.244      3.605      7.741
REMARK INTER + INTRA:          -9.541
REMARK INTER:                  -8.780
REMARK INTRA:                  -0.761
REMARK UNBOUND:                -0.743
REMARK  Name = 
REMARK  7 active torsions:
REMARK  status: ('A' for Active; 'I' for Inactive)
REMARK    1  A    between atoms: C_2  and  C_4
REMARK    2  A    between atoms: C_7  and  O_8
REMARK    3  A    between atoms: O_8  and  C_9
REMARK    4  A    between atoms: C_9  and  C_10
REMARK    5  A    between atoms: C_10  and  C_11
REMARK    6  A    between atoms: C_15  and  O_16
REMARK    7  A    between atoms: O_16  and  C_17
REMARK                            x       y       z     vdW  Elec       q    Type
REMARK                         _______ _______ _______ _____ _____    ______ ____
ROOT
ATOM      1  C   UNL     1      49.569   7.378  13.332  0.00  0.00    +0.000 C 
ENDROOT
BRANCH   1   2
ATOM      2  O   UNL     1      49.190   7.816  14.647  0.00  0.00    +0.000 OA
BRANCH   2   6
ATOM      3  C   UNL     1      48.051   4.652  17.033  0.00  0.00    +0.000 A 
ATOM      4  C   UNL     1      48.798   5.696  17.591  0.00  0.00    +0.000 A 
ATOM      5  C   UNL     1      49.184   6.766  16.777  0.00  0.00    +0.000 A 
ATOM      6  C   UNL     1      48.809   6.750  15.441  0.00  0.00    +0.000 A 
ATOM      7  N   UNL     1      48.096   5.746  14.885  0.00  0.00    +0.000 NA
ATOM      8  C   UNL     1      47.743   4.716  15.686  0.00  0.00    +0.000 A 
BRANCH   3  10
ATOM      9  N   UNL     1      48.288   3.151  18.926  0.00  0.00    +0.000 N 
ATOM     10  C   UNL     1      47.587   3.475  17.795  0.00  0.00    +0.000 C 
ATOM     11  O   UNL     1      46.595   2.844  17.461  0.00  0.00    +0.000 OA
ATOM     12  H   UNL     1      47.882   2.425  19.501  0.00  0.00    +0.000 HD
ATOM     13  H   UNL     1      48.921   3.799  19.370  0.00  0.00    +0.000 HD
ENDBRANCH   3  10
ENDBRANCH   2   6
ENDBRANCH   1   2
BRANCH   1  14
ATOM     14  C   UNL     1      48.939   8.280  12.273  0.00  0.00    +0.000 C 
BRANCH  14  15
ATOM     15  C   UNL     1      47.477   7.953  12.086  0.00  0.00    +0.000 A 
ATOM     16  C   UNL     1      46.514   8.967  12.085  0.00  0.00    +0.000 A 
ATOM     17  C   UNL     1      45.174   8.666  11.829  0.00  0.00    +0.000 A 
ATOM     18  C   UNL     1      44.776   7.348  11.572  0.00  0.00    +0.000 A 
ATOM     19  C   UNL     1      45.724   6.327  11.585  0.00  0.00    +0.000 A 
ATOM     20  C   UNL     1      47.066   6.635  11.830  0.00  0.00    +0.000 A 
BRANCH  19  21
ATOM     21  O   UNL     1      45.475   5.001  11.323  0.00  0.00    +0.000 OA
BRANCH  21  22
ATOM     22  C   UNL     1      44.137   4.583  10.971  0.00  0.00    +0.000 C 
ATOM     23  C   UNL     1      43.246   3.987  12.070  0.00  0.00    +0.000 C 
ATOM     24  O   UNL     1      43.065   2.754  11.338  0.00  0.00    +0.000 OA
ATOM     25  C   UNL     1      44.028   3.179  10.347  0.00  0.00    +0.000 C 
ENDBRANCH  21  22
ENDBRANCH  19  21
ENDBRANCH  14  15
ENDBRANCH   1  14
TORSDOF 7
ENDMDL
MODEL 8
REMARK VINA RESULT:    -6.219      3.223      7.621
REMARK INTER + INTRA:          -9.506
REMARK INTER:                  -9.011
REMARK INTRA:                  -0.495
REMARK UNBOUND:                -0.743
REMARK  Name = 
REMARK  7 active torsions:
REMARK  status: ('A' for Active; 'I' for Inactive)
REMARK    1  A    between atoms: C_2  and  C_4
REMARK    2  A    between atoms: C_7  and  O_8
REMARK    3  A    between atoms: O_8  and  C_9
REMARK    4  A    between atoms: C_9  and  C_10
REMARK    5  A    between atoms: C_10  and  C_11
REMARK    6  A    between atoms: C_15  and  O_16
REMARK    7  A    between atoms: O_16  and  C_17
REMARK                            x       y       z     vdW  Elec       q    Type
REMARK                         _______ _______ _______ _____ _____    ______ ____
ROOT
ATOM      1  C   UNL     1      47.069   7.600  12.837  0.00  0.00    +0.000 C 
ENDROOT
BRANCH   1   2
ATOM      2  O   UNL     1      48.310   7.051  13.309  0.00  0.00    +0.000 OA
BRANCH   2   6
ATOM      3  C   UNL     1      47.685   4.350  16.361  0.00  0.00    +0.000 A 
ATOM      4  C   UNL     1      46.972   4.210  15.166  0.00  0.00    +0.000 A 
ATOM      5  C   UNL     1      47.185   5.130  14.134  0.00  0.00    +0.000 A 
ATOM      6  C   UNL     1      48.102   6.151  14.338  0.00  0.00    +0.000 A 
ATOM      7  N   UNL     1      48.793   6.306  15.489  0.00  0.00    +0.000 NA
ATOM      8  C   UNL     1      48.563   5.414  16.477  0.00  0.00    +0.000 A 
BRANCH   3  10
ATOM      9  N   UNL     1      48.517   3.497  18.476  0.00  0.00    +0.000 N 
ATOM     10  C   UNL     1      47.544   3.439  17.515  0.00  0.00    +0.000 C 
ATOM     11  O   UNL     1      46.579   2.698  17.633  0.00  0.00    +0.000 OA
ATOM     12  H   UNL     1      48.338   2.961  19.314  0.00  0.00    +0.000 HD
ATOM     13  H   UNL     1      49.158   4.273  18.545  0.00  0.00    +0.000 HD
ENDBRANCH   3  10
ENDBRANCH   2   6
ENDBRANCH   1   2
BRANCH   1  14
ATOM     14  C   UNL     1      46.816   7.170  11.393  0.00  0.00    +0.000 C 
BRANCH  14  15
ATOM     15  C   UNL     1      45.566   6.330  11.292  0.00  0.00    +0.000 A 
ATOM     16  C   UNL     1      44.303   6.908  11.459  0.00  0.00    +0.000 A 
ATOM     17  C   UNL     1      43.149   6.140  11.281  0.00  0.00    +0.000 A 
ATOM     18  C   UNL     1      43.239   4.785  10.937  0.00  0.00    +0.000 A 
ATOM     19  C   UNL     1      44.492   4.196  10.783  0.00  0.00    +0.000 A 
ATOM     20  C   UNL     1      45.644   4.971  10.950  0.00  0.00    +0.000 A 
BRANCH  19  21
ATOM     21  O   UNL     1      44.722   2.890  10.421  0.00  0.00    +0.000 OA
BRANCH  21  22
ATOM     22  C   UNL     1      44.664   2.517   9.026  0.00  0.00    +0.000 C 
ATOM     23  C   UNL     1      45.851   1.750   8.427  0.00  0.00    +0.000 C 
ATOM     24  O   UNL     1      46.073   2.761   7.418  0.00  0.00    +0.000 OA
ATOM     25  C   UNL     1      45.081   3.617   8.031  0.00  0.00    +0.000 C 
ENDBRANCH  21  22
ENDBRANCH  19  21
ENDBRANCH  14  15
ENDBRANCH   1  14
TORSDOF 7
ENDMDL
MODEL 9
REMARK VINA RESULT:    -6.132      4.130      5.801
REMARK INTER + INTRA:          -9.384
REMARK INTER:                  -8.700
REMARK INTRA:                  -0.685
REMARK UNBOUND:                -0.743
REMARK  Name = 
REMARK  7 active torsions:
REMARK  status: ('A' for Active; 'I' for Inactive)
REMARK    1  A    between atoms: C_2  and  C_4
REMARK    2  A    between atoms: C_7  and  O_8
REMARK    3  A    between atoms: O_8  and  C_9
REMARK    4  A    between atoms: C_9  and  C_10
REMARK    5  A    between atoms: C_10  and  C_11
REMARK    6  A    between atoms: C_15  and  O_16
REMARK    7  A    between atoms: O_16  and  C_17
REMARK                            x       y       z     vdW  Elec       q    Type
REMARK                         _______ _______ _______ _____ _____    ______ ____
ROOT
ATOM      1  C   UNL     1      49.134   7.550  13.435  0.00  0.00    +0.000 C 
ENDROOT
BRANCH   1   2
ATOM      2  O   UNL     1      48.796   6.201  13.075  0.00  0.00    +0.000 OA
BRANCH   2   6
ATOM      3  C   UNL     1      44.732   5.768  12.531  0.00  0.00    +0.000 A 
ATOM      4  C   UNL     1      45.402   4.902  13.403  0.00  0.00    +0.000 A 
ATOM      5  C   UNL     1      46.782   5.051  13.582  0.00  0.00    +0.000 A 
ATOM      6  C   UNL     1      47.433   6.058  12.885  0.00  0.00    +0.000 A 
ATOM      7  N   UNL     1      46.803   6.896  12.033  0.00  0.00    +0.000 NA
ATOM      8  C   UNL     1      45.473   6.728  11.866  0.00  0.00    +0.000 A 
BRANCH   3  10
ATOM      9  N   UNL     1      42.799   6.488  11.252  0.00  0.00    +0.000 N 
ATOM     10  C   UNL     1      43.280   5.706  12.266  0.00  0.00    +0.000 C 
ATOM     11  O   UNL     1      42.545   4.956  12.892  0.00  0.00    +0.000 OA
ATOM     12  H   UNL     1      41.830   6.338  11.003  0.00  0.00    +0.000 HD
ATOM     13  H   UNL     1      43.403   6.893  10.553  0.00  0.00    +0.000 HD
ENDBRANCH   3  10
ENDBRANCH   2   6
ENDBRANCH   1   2
BRANCH   1  14
ATOM     14  C   UNL     1      48.870   7.782  14.921  0.00  0.00    +0.000 C 
BRANCH  14  15
ATOM     15  C   UNL     1      49.728   6.875  15.770  0.00  0.00    +0.000 A 
ATOM     16  C   UNL     1      51.119   7.024  15.790  0.00  0.00    +0.000 A 
ATOM     17  C   UNL     1      51.899   6.236  16.641  0.00  0.00    +0.000 A 
ATOM     18  C   UNL     1      51.301   5.287  17.481  0.00  0.00    +0.000 A 
ATOM     19  C   UNL     1      49.918   5.120  17.458  0.00  0.00    +0.000 A 
ATOM     20  C   UNL     1      49.141   5.920  16.614  0.00  0.00    +0.000 A 
BRANCH  19  21
ATOM     21  O   UNL     1      49.205   4.250  18.247  0.00  0.00    +0.000 OA
BRANCH  21  22
ATOM     22  C   UNL     1      49.089   2.864  17.855  0.00  0.00    +0.000 C 
ATOM     23  C   UNL     1      50.286   2.200  17.159  0.00  0.00    +0.000 C 
ATOM     24  O   UNL     1      49.498   1.862  15.995  0.00  0.00    +0.000 OA
ATOM     25  C   UNL     1      48.377   2.617  16.511  0.00  0.00    +0.000 C 
ENDBRANCH  21  22
ENDBRANCH  19  21
ENDBRANCH  14  15
ENDBRANCH   1  14
TORSDOF 7
ENDMDL
