MODEL 1
REMARK VINA RESULT:    -8.221      0.000      0.000
REMARK INTER + INTRA:         -11.837
REMARK INTER:                 -11.104
REMARK INTRA:                  -0.732
REMARK UNBOUND:                -0.732
REMARK  Name = 
REMARK  6 active torsions:
REMARK  status: ('A' for Active; 'I' for Inactive)
REMARK    1  A    between atoms: C_2  and  C_3
REMARK    2  A    between atoms: C_7  and  C_8
REMARK    3  A    between atoms: C_8  and  C_9
REMARK    4  A    between atoms: C_12  and  C_13
REMARK    5  A    between atoms: C_13  and  N_14
REMARK    6  A    between atoms: C_15  and  C_17
REMARK                            x       y       z     vdW  Elec       q    Type
REMARK                         _______ _______ _______ _____ _____    ______ ____
ROOT
ATOM      1  C   UNL     1      46.852   7.874  13.288  0.00  0.00    +0.000 C 
ENDROOT
BRANCH   1   5
ATOM      2  C   UNL     1      44.894   4.943  10.774  0.00  0.00    +0.000 A 
ATOM      3  C   UNL     1      45.897   5.769  10.253  0.00  0.00    +0.000 A 
ATOM      4  C   UNL     1      46.513   6.735  11.056  0.00  0.00    +0.000 A 
ATOM      5  C   UNL     1      46.148   6.882  12.399  0.00  0.00    +0.000 A 
ATOM      6  C   UNL     1      45.105   6.096  12.904  0.00  0.00    +0.000 A 
ATOM      7  C   UNL     1      44.489   5.129  12.102  0.00  0.00    +0.000 A 
BRANCH   2   8
ATOM      8  C   UNL     1      44.277   3.854   9.925  0.00  0.00    +0.000 C 
BRANCH   8  13
ATOM      9  C   UNL     1      46.351   1.428   7.817  0.00  0.00    +0.000 A 
ATOM     10  C   UNL     1      46.867   2.280   6.837  0.00  0.00    +0.000 A 
ATOM     11  C   UNL     1      46.567   3.642   6.870  0.00  0.00    +0.000 A 
ATOM     12  C   UNL     1      45.742   4.154   7.877  0.00  0.00    +0.000 A 
ATOM     13  C   UNL     1      45.198   3.308   8.855  0.00  0.00    +0.000 A 
ATOM     14  C   UNL     1      45.523   1.942   8.823  0.00  0.00    +0.000 A 
BRANCH   9  16
ATOM     15  N   UNL     1      46.919  -1.104   7.772  0.00  0.00    +0.000 NA
ATOM     16  C   UNL     1      46.662   0.031   7.790  0.00  0.00    +0.000 C 
ENDBRANCH   9  16
ENDBRANCH   8  13
ENDBRANCH   2   8
ENDBRANCH   1   5
BRANCH   1  17
ATOM     17  N   UNL     1      47.337   7.253  14.492  0.00  0.00    +0.000 N 
ATOM     18  C   UNL     1      48.618   6.771  14.574  0.00  0.00    +0.000 C 
ATOM     19  O   UNL     1      49.419   6.882  13.648  0.00  0.00    +0.000 OA
ATOM     20  H   UNL     1      46.640   6.940  15.160  0.00  0.00    +0.000 HD
BRANCH  18  21
ATOM     21  C   UNL     1      49.008   6.178  15.858  0.00  0.00    +0.000 A 
ATOM     22  C   UNL     1      50.055   6.729  16.584  0.00  0.00    +0.000 A 
ATOM     23  S   UNL     1      50.316   5.970  18.089  0.00  0.00    +0.000 S 
ATOM     24  C   UNL     1      49.078   4.840  17.795  0.00  0.00    +0.000 A 
ATOM     25  N   UNL     1      48.782   3.873  18.704  0.00  0.00    +0.000 NA
ATOM     26  C   UNL     1      47.847   3.062  18.336  0.00  0.00    +0.000 A 
ATOM     27  N   UNL     1      47.180   3.132  17.140  0.00  0.00    +0.000 N 
ATOM     28  C   UNL     1      47.421   4.108  16.205  0.00  0.00    +0.000 A 
ATOM     29  O   UNL     1      46.779   4.167  15.162  0.00  0.00    +0.000 OA
ATOM     30  C   UNL     1      48.470   5.044  16.570  0.00  0.00    +0.000 A 
ATOM     31  H   UNL     1      46.457   2.466  16.910  0.00  0.00    +0.000 HD
ENDBRANCH  18  21
ENDBRANCH   1  17
TORSDOF 6
ENDMDL
MODEL 2
REMARK VINA RESULT:    -7.660      1.338      1.889
REMARK INTER + INTRA:         -11.079
REMARK INTER:                  -9.879
REMARK INTRA:                  -1.200
REMARK UNBOUND:                -0.732
REMARK  Name = 
REMARK  6 active torsions:
REMARK  status: ('A' for Active; 'I' for Inactive)
REMARK    1  A    between atoms: C_2  and  C_3
REMARK    2  A    between atoms: C_7  and  C_8
REMARK    3  A    between atoms: C_8  and  C_9
REMARK    4  A    between atoms: C_12  and  C_13
REMARK    5  A    between atoms: C_13  and  N_14
REMARK    6  A    between atoms: C_15  and  C_17
REMARK                            x       y       z     vdW  Elec       q    Type
REMARK                         _______ _______ _______ _____ _____    ______ ____
ROOT
ATOM      1  C   UNL     1      47.634   8.260  13.692  0.00  0.00    +0.000 C 
ENDROOT
BRANCH   1   5
ATOM      2  C   UNL     1      44.823   6.141  11.169  0.00  0.00    +0.000 A 
ATOM      3  C   UNL     1      45.988   5.510  11.622  0.00  0.00    +0.000 A 
ATOM      4  C   UNL     1      46.910   6.199  12.416  0.00  0.00    +0.000 A 
ATOM      5  C   UNL     1      46.678   7.530  12.783  0.00  0.00    +0.000 A 
ATOM      6  C   UNL     1      45.543   8.179  12.282  0.00  0.00    +0.000 A 
ATOM      7  C   UNL     1      44.620   7.490  11.490  0.00  0.00    +0.000 A 
BRANCH   2   8
ATOM      8  C   UNL     1      43.794   5.375  10.369  0.00  0.00    +0.000 C 
BRANCH   8  13
ATOM      9  C   UNL     1      45.610   3.116   7.873  0.00  0.00    +0.000 A 
ATOM     10  C   UNL     1      45.398   1.853   8.433  0.00  0.00    +0.000 A 
ATOM     11  C   UNL     1      44.647   1.727   9.602  0.00  0.00    +0.000 A 
ATOM     12  C   UNL     1      44.116   2.864  10.220  0.00  0.00    +0.000 A 
ATOM     13  C   UNL     1      44.339   4.141   9.683  0.00  0.00    +0.000 A 
ATOM     14  C   UNL     1      45.080   4.253   8.495  0.00  0.00    +0.000 A 
BRANCH   9  16
ATOM     15  N   UNL     1      46.996   3.361   5.692  0.00  0.00    +0.000 NA
ATOM     16  C   UNL     1      46.374   3.249   6.669  0.00  0.00    +0.000 C 
ENDBRANCH   9  16
ENDBRANCH   8  13
ENDBRANCH   2   8
ENDBRANCH   1   5
BRANCH   1  17
ATOM     17  N   UNL     1      47.911   7.503  14.884  0.00  0.00    +0.000 N 
ATOM     18  C   UNL     1      49.185   7.094  15.184  0.00  0.00    +0.000 C 
ATOM     19  O   UNL     1      50.148   7.386  14.478  0.00  0.00    +0.000 OA
ATOM     20  H   UNL     1      47.121   7.055  15.337  0.00  0.00    +0.000 HD
BRANCH  18  21
ATOM     21  C   UNL     1      49.350   6.348  16.435  0.00  0.00    +0.000 A 
ATOM     22  C   UNL     1      50.226   6.813  17.406  0.00  0.00    +0.000 A 
ATOM     23  S   UNL     1      50.229   5.873  18.830  0.00  0.00    +0.000 S 
ATOM     24  C   UNL     1      49.105   4.777  18.174  0.00  0.00    +0.000 A 
ATOM     25  N   UNL     1      48.677   3.701  18.887  0.00  0.00    +0.000 NA
ATOM     26  C   UNL     1      47.854   2.934  18.253  0.00  0.00    +0.000 A 
ATOM     27  N   UNL     1      47.418   3.147  16.971  0.00  0.00    +0.000 N 
ATOM     28  C   UNL     1      47.795   4.236  16.224  0.00  0.00    +0.000 A 
ATOM     29  O   UNL     1      47.355   4.419  15.094  0.00  0.00    +0.000 OA
ATOM     30  C   UNL     1      48.727   5.128  16.890  0.00  0.00    +0.000 A 
ATOM     31  H   UNL     1      46.772   2.509  16.531  0.00  0.00    +0.000 HD
ENDBRANCH  18  21
ENDBRANCH   1  17
TORSDOF 6
ENDMDL
MODEL 3
REMARK VINA RESULT:    -7.553      2.258      3.824
REMARK INTER + INTRA:         -10.935
REMARK INTER:                  -9.658
REMARK INTRA:                  -1.277
REMARK UNBOUND:                -0.732
REMARK  Name = 
REMARK  6 active torsions:
REMARK  status: ('A' for Active; 'I' for Inactive)
REMARK    1  A    between atoms: C_2  and  C_3
REMARK    2  A    between atoms: C_7  and  C_8
REMARK    3  A    between atoms: C_8  and  C_9
REMARK    4  A    between atoms: C_12  and  C_13
REMARK    5  A    between atoms: C_13  and  N_14
REMARK    6  A    between atoms: C_15  and  C_17
REMARK                            x       y       z     vdW  Elec       q    Type
REMARK                         _______ _______ _______ _____ _____    ______ ____
ROOT
ATOM      1  C   UNL     1      47.093   4.956  14.750  0.00  0.00    +0.000 C 
ENDROOT
BRANCH   1   5
ATOM      2  C   UNL     1      45.065   4.323  10.977  0.00  0.00    +0.000 A 
ATOM      3  C   UNL     1      45.658   5.558  11.267  0.00  0.00    +0.000 A 
ATOM      4  C   UNL     1      46.291   5.774  12.495  0.00  0.00    +0.000 A 
ATOM      5  C   UNL     1      46.357   4.753  13.451  0.00  0.00    +0.000 A 
ATOM      6  C   UNL     1      45.713   3.538  13.185  0.00  0.00    +0.000 A 
ATOM      7  C   UNL     1      45.081   3.321  11.956  0.00  0.00    +0.000 A 
BRANCH   2   8
ATOM      8  C   UNL     1      44.441   4.068   9.624  0.00  0.00    +0.000 C 
BRANCH   8  13
ATOM      9  C   UNL     1      46.481   1.481   7.680  0.00  0.00    +0.000 A 
ATOM     10  C   UNL     1      47.095   2.279   6.711  0.00  0.00    +0.000 A 
ATOM     11  C   UNL     1      46.871   3.656   6.700  0.00  0.00    +0.000 A 
ATOM     12  C   UNL     1      46.025   4.237   7.650  0.00  0.00    +0.000 A 
ATOM     13  C   UNL     1      45.384   3.446   8.616  0.00  0.00    +0.000 A 
ATOM     14  C   UNL     1      45.632   2.064   8.629  0.00  0.00    +0.000 A 
BRANCH   9  16
ATOM     15  N   UNL     1      46.904  -1.080   7.711  0.00  0.00    +0.000 NA
ATOM     16  C   UNL     1      46.713   0.068   7.699  0.00  0.00    +0.000 C 
ENDBRANCH   9  16
ENDBRANCH   8  13
ENDBRANCH   2   8
ENDBRANCH   1   5
BRANCH   1  17
ATOM     17  N   UNL     1      47.727   6.247  14.802  0.00  0.00    +0.000 N 
ATOM     18  C   UNL     1      48.829   6.465  15.587  0.00  0.00    +0.000 C 
ATOM     19  O   UNL     1      49.350   5.567  16.245  0.00  0.00    +0.000 OA
ATOM     20  H   UNL     1      47.184   7.038  14.469  0.00  0.00    +0.000 HD
BRANCH  18  21
ATOM     21  C   UNL     1      49.401   7.814  15.544  0.00  0.00    +0.000 A 
ATOM     22  C   UNL     1      49.499   8.561  16.710  0.00  0.00    +0.000 A 
ATOM     23  S   UNL     1      50.267  10.069  16.492  0.00  0.00    +0.000 S 
ATOM     24  C   UNL     1      50.440   9.801  14.820  0.00  0.00    +0.000 A 
ATOM     25  N   UNL     1      51.022  10.732  14.018  0.00  0.00    +0.000 NA
ATOM     26  C   UNL     1      51.054  10.414  12.767  0.00  0.00    +0.000 A 
ATOM     27  N   UNL     1      50.558   9.247  12.246  0.00  0.00    +0.000 N 
ATOM     28  C   UNL     1      49.992   8.264  13.019  0.00  0.00    +0.000 A 
ATOM     29  O   UNL     1      49.594   7.213  12.527  0.00  0.00    +0.000 OA
ATOM     30  C   UNL     1      49.927   8.576  14.436  0.00  0.00    +0.000 A 
ATOM     31  H   UNL     1      50.614   9.057  11.256  0.00  0.00    +0.000 HD
ENDBRANCH  18  21
ENDBRANCH   1  17
TORSDOF 6
ENDMDL
MODEL 4
REMARK VINA RESULT:    -7.279      4.690     10.120
REMARK INTER + INTRA:         -10.565
REMARK INTER:                  -9.345
REMARK INTRA:                  -1.220
REMARK UNBOUND:                -0.732
REMARK  Name = 
REMARK  6 active torsions:
REMARK  status: ('A' for Active; 'I' for Inactive)
REMARK    1  A    between atoms: C_2  and  C_3
REMARK    2  A    between atoms: C_7  and  C_8
REMARK    3  A    between atoms: C_8  and  C_9
REMARK    4  A    between atoms: C_12  and  C_13
REMARK    5  A    between atoms: C_13  and  N_14
REMARK    6  A    between atoms: C_15  and  C_17
REMARK                            x       y       z     vdW  Elec       q    Type
REMARK                         _______ _______ _______ _____ _____    ______ ____
ROOT
ATOM      1  C   UNL     1      47.984   4.616  16.260  0.00  0.00    +0.000 C 
ENDROOT
BRANCH   1   5
ATOM      2  C   UNL     1      48.124   7.569  19.424  0.00  0.00    +0.000 A 
ATOM      3  C   UNL     1      47.305   6.438  19.541  0.00  0.00    +0.000 A 
ATOM      4  C   UNL     1      47.238   5.496  18.510  0.00  0.00    +0.000 A 
ATOM      5  C   UNL     1      48.000   5.658  17.347  0.00  0.00    +0.000 A 
ATOM      6  C   UNL     1      48.774   6.817  17.204  0.00  0.00    +0.000 A 
ATOM      7  C   UNL     1      48.843   7.759  18.236  0.00  0.00    +0.000 A 
BRANCH   2   8
ATOM      8  C   UNL     1      48.249   8.550  20.566  0.00  0.00    +0.000 C 
BRANCH   8  13
ATOM      9  C   UNL     1      45.449  11.151  20.404  0.00  0.00    +0.000 A 
ATOM     10  C   UNL     1      46.146  12.287  19.985  0.00  0.00    +0.000 A 
ATOM     11  C   UNL     1      47.515  12.209  19.730  0.00  0.00    +0.000 A 
ATOM     12  C   UNL     1      48.193  10.997  19.904  0.00  0.00    +0.000 A 
ATOM     13  C   UNL     1      47.512   9.853  20.345  0.00  0.00    +0.000 A 
ATOM     14  C   UNL     1      46.129   9.939  20.579  0.00  0.00    +0.000 A 
BRANCH   9  16
ATOM     15  N   UNL     1      42.897  11.286  20.862  0.00  0.00    +0.000 NA
ATOM     16  C   UNL     1      44.041  11.225  20.659  0.00  0.00    +0.000 C 
ENDBRANCH   9  16
ENDBRANCH   8  13
ENDBRANCH   2   8
ENDBRANCH   1   5
BRANCH   1  17
ATOM     17  N   UNL     1      47.015   4.929  15.242  0.00  0.00    +0.000 N 
ATOM     18  C   UNL     1      47.378   5.589  14.097  0.00  0.00    +0.000 C 
ATOM     19  O   UNL     1      48.543   5.906  13.867  0.00  0.00    +0.000 OA
ATOM     20  H   UNL     1      46.038   4.897  15.514  0.00  0.00    +0.000 HD
BRANCH  18  21
ATOM     21  C   UNL     1      46.310   5.835  13.122  0.00  0.00    +0.000 A 
ATOM     22  C   UNL     1      45.969   7.138  12.785  0.00  0.00    +0.000 A 
ATOM     23  S   UNL     1      44.770   7.238  11.575  0.00  0.00    +0.000 S 
ATOM     24  C   UNL     1      44.622   5.544  11.505  0.00  0.00    +0.000 A 
ATOM     25  N   UNL     1      43.737   4.952  10.659  0.00  0.00    +0.000 NA
ATOM     26  C   UNL     1      43.704   3.664  10.736  0.00  0.00    +0.000 A 
ATOM     27  N   UNL     1      44.478   2.913  11.583  0.00  0.00    +0.000 N 
ATOM     28  C   UNL     1      45.408   3.462  12.431  0.00  0.00    +0.000 A 
ATOM     29  O   UNL     1      46.114   2.759  13.147  0.00  0.00    +0.000 OA
ATOM     30  C   UNL     1      45.481   4.911  12.386  0.00  0.00    +0.000 A 
ATOM     31  H   UNL     1      44.405   1.906  11.596  0.00  0.00    +0.000 HD
ENDBRANCH  18  21
ENDBRANCH   1  17
TORSDOF 6
ENDMDL
MODEL 5
REMARK VINA RESULT:    -7.259      2.568      3.494
REMARK INTER + INTRA:         -10.538
REMARK INTER:                  -9.365
REMARK INTRA:                  -1.173
REMARK UNBOUND:                -0.732
REMARK  Name = 
REMARK  6 active torsions:
REMARK  status: ('A' for Active; 'I' for Inactive)
REMARK    1  A    between atoms: C_2  and  C_3
REMARK    2  A    between atoms: C_7  and  C_8
REMARK    3  A    between atoms: C_8  and  C_9
REMARK    4  A    between atoms: C_12  and  C_13
REMARK    5  A    between atoms: C_13  and  N_14
REMARK    6  A    between atoms: C_15  and  C_17
REMARK                            x       y       z     vdW  Elec       q    Type
REMARK                         _______ _______ _______ _____ _____    ______ ____
ROOT
ATOM      1  C   UNL     1      49.079   6.909  14.591  0.00  0.00    +0.000 C 
ENDROOT
BRANCH   1   5
ATOM      2  C   UNL     1      45.863   5.987  11.841  0.00  0.00    +0.000 A 
ATOM      3  C   UNL     1      45.958   5.325  13.071  0.00  0.00    +0.000 A 
ATOM      4  C   UNL     1      47.010   5.602  13.951  0.00  0.00    +0.000 A 
ATOM      5  C   UNL     1      47.979   6.557  13.622  0.00  0.00    +0.000 A 
ATOM      6  C   UNL     1      47.917   7.177  12.368  0.00  0.00    +0.000 A 
ATOM      7  C   UNL     1      46.865   6.902  11.489  0.00  0.00    +0.000 A 
BRANCH   2   8
ATOM      8  C   UNL     1      44.689   5.738  10.922  0.00  0.00    +0.000 C 
BRANCH   8  13
ATOM      9  C   UNL     1      45.598   3.295   8.122  0.00  0.00    +0.000 A 
ATOM     10  C   UNL     1      45.061   2.100   8.608  0.00  0.00    +0.000 A 
ATOM     11  C   UNL     1      44.384   2.086   9.828  0.00  0.00    +0.000 A 
ATOM     12  C   UNL     1      44.251   3.265  10.569  0.00  0.00    +0.000 A 
ATOM     13  C   UNL     1      44.803   4.469  10.105  0.00  0.00    +0.000 A 
ATOM     14  C   UNL     1      45.465   4.474   8.866  0.00  0.00    +0.000 A 
BRANCH   9  16
ATOM     15  N   UNL     1      46.852   3.328   5.850  0.00  0.00    +0.000 NA
ATOM     16  C   UNL     1      46.288   3.315   6.867  0.00  0.00    +0.000 C 
ENDBRANCH   9  16
ENDBRANCH   8  13
ENDBRANCH   2   8
ENDBRANCH   1   5
BRANCH   1  17
ATOM     17  N   UNL     1      48.686   6.652  15.951  0.00  0.00    +0.000 N 
ATOM     18  C   UNL     1      49.544   6.051  16.836  0.00  0.00    +0.000 C 
ATOM     19  O   UNL     1      50.693   5.745  16.525  0.00  0.00    +0.000 OA
ATOM     20  H   UNL     1      47.691   6.671  16.154  0.00  0.00    +0.000 HD
BRANCH  18  21
ATOM     21  C   UNL     1      49.042   5.860  18.200  0.00  0.00    +0.000 A 
ATOM     22  C   UNL     1      49.119   4.608  18.796  0.00  0.00    +0.000 A 
ATOM     23  S   UNL     1      48.571   4.586  20.411  0.00  0.00    +0.000 S 
ATOM     24  C   UNL     1      48.154   6.234  20.350  0.00  0.00    +0.000 A 
ATOM     25  N   UNL     1      47.607   6.859  21.427  0.00  0.00    +0.000 NA
ATOM     26  C   UNL     1      47.306   8.099  21.229  0.00  0.00    +0.000 A 
ATOM     27  N   UNL     1      47.505   8.772  20.051  0.00  0.00    +0.000 N 
ATOM     28  C   UNL     1      48.084   8.194  18.948  0.00  0.00    +0.000 A 
ATOM     29  O   UNL     1      48.287   8.835  17.923  0.00  0.00    +0.000 OA
ATOM     30  C   UNL     1      48.437   6.796  19.118  0.00  0.00    +0.000 A 
ATOM     31  H   UNL     1      47.248   9.744  19.959  0.00  0.00    +0.000 HD
ENDBRANCH  18  21
ENDBRANCH   1  17
TORSDOF 6
ENDMDL
MODEL 6
REMARK VINA RESULT:    -7.257      2.950      8.547
REMARK INTER + INTRA:         -10.534
REMARK INTER:                  -9.260
REMARK INTRA:                  -1.275
REMARK UNBOUND:                -0.732
REMARK  Name = 
REMARK  6 active torsions:
REMARK  status: ('A' for Active; 'I' for Inactive)
REMARK    1  A    between atoms: C_2  and  C_3
REMARK    2  A    between atoms: C_7  and  C_8
REMARK    3  A    between atoms: C_8  and  C_9
REMARK    4  A    between atoms: C_12  and  C_13
REMARK    5  A    between atoms: C_13  and  N_14
REMARK    6  A    between atoms: C_15  and  C_17
REMARK                            x       y       z     vdW  Elec       q    Type
REMARK                         _______ _______ _______ _____ _____    ______ ____
ROOT
ATOM      1  C   UNL     1      47.770   7.892  11.880  0.00  0.00    +0.000 C 
ENDROOT
BRANCH   1   5
ATOM      2  C   UNL     1      49.443   8.133  15.867  0.00  0.00    +0.000 A 
ATOM      3  C   UNL     1      48.248   8.793  15.555  0.00  0.00    +0.000 A 
ATOM      4  C   UNL     1      47.719   8.739  14.262  0.00  0.00    +0.000 A 
ATOM      5  C   UNL     1      48.367   8.010  13.258  0.00  0.00    +0.000 A 
ATOM      6  C   UNL     1      49.592   7.398  13.554  0.00  0.00    +0.000 A 
ATOM      7  C   UNL     1      50.121   7.451  14.847  0.00  0.00    +0.000 A 
BRANCH   2   8
ATOM      8  C   UNL     1      49.978   8.135  17.280  0.00  0.00    +0.000 C 
BRANCH   8  13
ATOM      9  C   UNL     1      48.322   4.846  18.316  0.00  0.00    +0.000 A 
ATOM     10  C   UNL     1      48.884   4.635  19.578  0.00  0.00    +0.000 A 
ATOM     11  C   UNL     1      49.778   5.567  20.107  0.00  0.00    +0.000 A 
ATOM     12  C   UNL     1      50.121   6.705  19.370  0.00  0.00    +0.000 A 
ATOM     13  C   UNL     1      49.582   6.921  18.093  0.00  0.00    +0.000 A 
ATOM     14  C   UNL     1      48.668   5.986  17.579  0.00  0.00    +0.000 A 
BRANCH   9  16
ATOM     15  N   UNL     1      46.644   3.128  17.333  0.00  0.00    +0.000 NA
ATOM     16  C   UNL     1      47.398   3.896  17.773  0.00  0.00    +0.000 C 
ENDBRANCH   9  16
ENDBRANCH   8  13
ENDBRANCH   2   8
ENDBRANCH   1   5
BRANCH   1  17
ATOM     17  N   UNL     1      47.060   6.651  11.716  0.00  0.00    +0.000 N 
ATOM     18  C   UNL     1      45.701   6.585  11.876  0.00  0.00    +0.000 C 
ATOM     19  O   UNL     1      45.023   7.581  12.123  0.00  0.00    +0.000 OA
ATOM     20  H   UNL     1      47.611   5.799  11.755  0.00  0.00    +0.000 HD
BRANCH  18  21
ATOM     21  C   UNL     1      45.084   5.272  11.663  0.00  0.00    +0.000 A 
ATOM     22  C   UNL     1      44.433   4.636  12.712  0.00  0.00    +0.000 A 
ATOM     23  S   UNL     1      43.701   3.161  12.267  0.00  0.00    +0.000 S 
ATOM     24  C   UNL     1      44.280   3.292  10.672  0.00  0.00    +0.000 A 
ATOM     25  N   UNL     1      44.015   2.329   9.749  0.00  0.00    +0.000 NA
ATOM     26  C   UNL     1      44.547   2.538   8.591  0.00  0.00    +0.000 A 
ATOM     27  N   UNL     1      45.319   3.625   8.272  0.00  0.00    +0.000 N 
ATOM     28  C   UNL     1      45.587   4.638   9.159  0.00  0.00    +0.000 A 
ATOM     29  O   UNL     1      46.248   5.617   8.830  0.00  0.00    +0.000 OA
ATOM     30  C   UNL     1      45.015   4.448  10.480  0.00  0.00    +0.000 A 
ATOM     31  H   UNL     1      45.707   3.731   7.347  0.00  0.00    +0.000 HD
ENDBRANCH  18  21
ENDBRANCH   1  17
TORSDOF 6
ENDMDL
MODEL 7
REMARK VINA RESULT:    -7.234      4.357     10.019
REMARK INTER + INTRA:         -10.503
REMARK INTER:                  -9.238
REMARK INTRA:                  -1.265
REMARK UNBOUND:                -0.732
REMARK  Name = 
REMARK  6 active torsions:
REMARK  status: ('A' for Active; 'I' for Inactive)
REMARK    1  A    between atoms: C_2  and  C_3
REMARK    2  A    between atoms: C_7  and  C_8
REMARK    3  A    between atoms: C_8  and  C_9
REMARK    4  A    between atoms: C_12  and  C_13
REMARK    5  A    between atoms: C_13  and  N_14
REMARK    6  A    between atoms: C_15  and  C_17
REMARK                            x       y       z     vdW  Elec       q    Type
REMARK                         _______ _______ _______ _____ _____    ______ ____
ROOT
ATOM      1  C   UNL     1      47.939   4.281  16.149  0.00  0.00    +0.000 C 
ENDROOT
BRANCH   1   5
ATOM      2  C   UNL     1      48.168   6.967  19.538  0.00  0.00    +0.000 A 
ATOM      3  C   UNL     1      47.082   6.095  19.393  0.00  0.00    +0.000 A 
ATOM      4  C   UNL     1      46.992   5.245  18.286  0.00  0.00    +0.000 A 
ATOM      5  C   UNL     1      47.995   5.239  17.310  0.00  0.00    +0.000 A 
ATOM      6  C   UNL     1      49.052   6.152  17.425  0.00  0.00    +0.000 A 
ATOM      7  C   UNL     1      49.143   7.001  18.532  0.00  0.00    +0.000 A 
BRANCH   2   8
ATOM      8  C   UNL     1      48.299   7.835  20.768  0.00  0.00    +0.000 C 
BRANCH   8  13
ATOM      9  C   UNL     1      46.889  11.202  19.626  0.00  0.00    +0.000 A 
ATOM     10  C   UNL     1      45.910  11.439  20.594  0.00  0.00    +0.000 A 
ATOM     11  C   UNL     1      45.722  10.526  21.632  0.00  0.00    +0.000 A 
ATOM     12  C   UNL     1      46.504   9.367  21.696  0.00  0.00    +0.000 A 
ATOM     13  C   UNL     1      47.476   9.104  20.719  0.00  0.00    +0.000 A 
ATOM     14  C   UNL     1      47.670  10.041  19.691  0.00  0.00    +0.000 A 
BRANCH   9  16
ATOM     15  N   UNL     1      47.250  12.904  17.699  0.00  0.00    +0.000 NA
ATOM     16  C   UNL     1      47.091  12.142  18.563  0.00  0.00    +0.000 C 
ENDBRANCH   9  16
ENDBRANCH   8  13
ENDBRANCH   2   8
ENDBRANCH   1   5
BRANCH   1  17
ATOM     17  N   UNL     1      46.973   4.697  15.167  0.00  0.00    +0.000 N 
ATOM     18  C   UNL     1      47.332   5.501  14.116  0.00  0.00    +0.000 C 
ATOM     19  O   UNL     1      48.492   5.868  13.940  0.00  0.00    +0.000 OA
ATOM     20  H   UNL     1      45.994   4.612  15.421  0.00  0.00    +0.000 HD
BRANCH  18  21
ATOM     21  C   UNL     1      46.268   5.843  13.166  0.00  0.00    +0.000 A 
ATOM     22  C   UNL     1      45.979   7.174  12.902  0.00  0.00    +0.000 A 
ATOM     23  S   UNL     1      44.776   7.389  11.712  0.00  0.00    +0.000 S 
ATOM     24  C   UNL     1      44.557   5.709  11.553  0.00  0.00    +0.000 A 
ATOM     25  N   UNL     1      43.641   5.201  10.686  0.00  0.00    +0.000 NA
ATOM     26  C   UNL     1      43.554   3.912  10.695  0.00  0.00    +0.000 A 
ATOM     27  N   UNL     1      44.302   3.085  11.493  0.00  0.00    +0.000 N 
ATOM     28  C   UNL     1      45.261   3.549  12.359  0.00  0.00    +0.000 A 
ATOM     29  O   UNL     1      45.942   2.781  13.029  0.00  0.00    +0.000 OA
ATOM     30  C   UNL     1      45.394   4.995  12.390  0.00  0.00    +0.000 A 
ATOM     31  H   UNL     1      44.187   2.084  11.453  0.00  0.00    +0.000 HD
ENDBRANCH  18  21
ENDBRANCH   1  17
TORSDOF 6
ENDMDL
MODEL 8
REMARK VINA RESULT:    -7.157      5.069      7.474
REMARK INTER + INTRA:         -10.400
REMARK INTER:                  -9.281
REMARK INTRA:                  -1.118
REMARK UNBOUND:                -0.732
REMARK  Name = 
REMARK  6 active torsions:
REMARK  status: ('A' for Active; 'I' for Inactive)
REMARK    1  A    between atoms: C_2  and  C_3
REMARK    2  A    between atoms: C_7  and  C_8
REMARK    3  A    between atoms: C_8  and  C_9
REMARK    4  A    between atoms: C_12  and  C_13
REMARK    5  A    between atoms: C_13  and  N_14
REMARK    6  A    between atoms: C_15  and  C_17
REMARK                            x       y       z     vdW  Elec       q    Type
REMARK                         _______ _______ _______ _____ _____    ______ ____
ROOT
ATOM      1  C   UNL     1      46.650   8.390  12.677  0.00  0.00    +0.000 C 
ENDROOT
BRANCH   1   5
ATOM      2  C   UNL     1      50.766   8.783  11.393  0.00  0.00    +0.000 A 
ATOM      3  C   UNL     1      49.904   9.886  11.366  0.00  0.00    +0.000 A 
ATOM      4  C   UNL     1      48.567   9.757  11.755  0.00  0.00    +0.000 A 
ATOM      5  C   UNL     1      48.070   8.524  12.194  0.00  0.00    +0.000 A 
ATOM      6  C   UNL     1      48.916   7.407  12.166  0.00  0.00    +0.000 A 
ATOM      7  C   UNL     1      50.253   7.537  11.778  0.00  0.00    +0.000 A 
BRANCH   2   8
ATOM      8  C   UNL     1      52.227   8.939  11.038  0.00  0.00    +0.000 C 
BRANCH   8  13
ATOM      9  C   UNL     1      52.838   7.230   7.670  0.00  0.00    +0.000 A 
ATOM     10  C   UNL     1      53.048   8.329   6.833  0.00  0.00    +0.000 A 
ATOM     11  C   UNL     1      53.019   9.621   7.359  0.00  0.00    +0.000 A 
ATOM     12  C   UNL     1      52.768   9.817   8.721  0.00  0.00    +0.000 A 
ATOM     13  C   UNL     1      52.533   8.726   9.571  0.00  0.00    +0.000 A 
ATOM     14  C   UNL     1      52.585   7.429   9.033  0.00  0.00    +0.000 A 
BRANCH   9  16
ATOM     15  N   UNL     1      52.906   4.825   6.697  0.00  0.00    +0.000 NA
ATOM     16  C   UNL     1      52.875   5.902   7.136  0.00  0.00    +0.000 C 
ENDBRANCH   9  16
ENDBRANCH   8  13
ENDBRANCH   2   8
ENDBRANCH   1   5
BRANCH   1  17
ATOM     17  N   UNL     1      46.148   7.056  12.478  0.00  0.00    +0.000 N 
ATOM     18  C   UNL     1      45.031   6.824  11.717  0.00  0.00    +0.000 C 
ATOM     19  O   UNL     1      44.434   7.731  11.140  0.00  0.00    +0.000 OA
ATOM     20  H   UNL     1      46.469   6.343  13.125  0.00  0.00    +0.000 HD
BRANCH  18  21
ATOM     21  C   UNL     1      44.625   5.423  11.568  0.00  0.00    +0.000 A 
ATOM     22  C   UNL     1      43.946   4.787  12.598  0.00  0.00    +0.000 A 
ATOM     23  S   UNL     1      43.476   3.191  12.221  0.00  0.00    +0.000 S 
ATOM     24  C   UNL     1      44.217   3.275  10.692  0.00  0.00    +0.000 A 
ATOM     25  N   UNL     1      44.194   2.213   9.843  0.00  0.00    +0.000 NA
ATOM     26  C   UNL     1      44.826   2.403   8.733  0.00  0.00    +0.000 A 
ATOM     27  N   UNL     1      45.479   3.560   8.395  0.00  0.00    +0.000 N 
ATOM     28  C   UNL     1      45.502   4.669   9.204  0.00  0.00    +0.000 A 
ATOM     29  O   UNL     1      46.059   5.704   8.854  0.00  0.00    +0.000 OA
ATOM     30  C   UNL     1      44.808   4.505  10.469  0.00  0.00    +0.000 A 
ATOM     31  H   UNL     1      45.956   3.646   7.510  0.00  0.00    +0.000 HD
ENDBRANCH  18  21
ENDBRANCH   1  17
TORSDOF 6
ENDMDL
MODEL 9
REMARK VINA RESULT:    -6.939      3.999      9.054
REMARK INTER + INTRA:         -10.106
REMARK INTER:                  -8.959
REMARK INTRA:                  -1.147
REMARK UNBOUND:                -0.732
REMARK  Name = 
REMARK  6 active torsions:
REMARK  status: ('A' for Active; 'I' for Inactive)
REMARK    1  A    between atoms: C_2  and  C_3
REMARK    2  A    between atoms: C_7  and  C_8
REMARK    3  A    between atoms: C_8  and  C_9
REMARK    4  A    between atoms: C_12  and  C_13
REMARK    5  A    between atoms: C_13  and  N_14
REMARK    6  A    between atoms: C_15  and  C_17
REMARK                            x       y       z     vdW  Elec       q    Type
REMARK                         _______ _______ _______ _____ _____    ______ ____
ROOT
ATOM      1  C   UNL     1      47.309   3.334  16.824  0.00  0.00    +0.000 C 
ENDROOT
BRANCH   1   5
ATOM      2  C   UNL     1      51.491   3.795  17.847  0.00  0.00    +0.000 A 
ATOM      3  C   UNL     1      51.001   2.565  17.391  0.00  0.00    +0.000 A 
ATOM      4  C   UNL     1      49.646   2.405  17.085  0.00  0.00    +0.000 A 
ATOM      5  C   UNL     1      48.757   3.478  17.214  0.00  0.00    +0.000 A 
ATOM      6  C   UNL     1      49.234   4.692  17.725  0.00  0.00    +0.000 A 
ATOM      7  C   UNL     1      50.589   4.852  18.030  0.00  0.00    +0.000 A 
BRANCH   2   8
ATOM      8  C   UNL     1      52.967   3.986  18.113  0.00  0.00    +0.000 C 
BRANCH   8  13
ATOM      9  C   UNL     1      54.098   7.019  16.075  0.00  0.00    +0.000 A 
ATOM     10  C   UNL     1      54.402   7.937  17.084  0.00  0.00    +0.000 A 
ATOM     11  C   UNL     1      54.266   7.569  18.423  0.00  0.00    +0.000 A 
ATOM     12  C   UNL     1      53.816   6.287  18.756  0.00  0.00    +0.000 A 
ATOM     13  C   UNL     1      53.486   5.362  17.755  0.00  0.00    +0.000 A 
ATOM     14  C   UNL     1      53.646   5.736  16.410  0.00  0.00    +0.000 A 
BRANCH   9  16
ATOM     15  N   UNL     1      54.359   7.686  13.580  0.00  0.00    +0.000 NA
ATOM     16  C   UNL     1      54.244   7.390  14.699  0.00  0.00    +0.000 C 
ENDBRANCH   9  16
ENDBRANCH   8  13
ENDBRANCH   2   8
ENDBRANCH   1   5
BRANCH   1  17
ATOM     17  N   UNL     1      46.906   4.361  15.899  0.00  0.00    +0.000 N 
ATOM     18  C   UNL     1      46.942   4.150  14.545  0.00  0.00    +0.000 C 
ATOM     19  O   UNL     1      47.277   3.071  14.061  0.00  0.00    +0.000 OA
ATOM     20  H   UNL     1      46.863   5.309  16.257  0.00  0.00    +0.000 HD
BRANCH  18  21
ATOM     21  C   UNL     1      46.488   5.260  13.702  0.00  0.00    +0.000 A 
ATOM     22  C   UNL     1      47.303   6.370  13.523  0.00  0.00    +0.000 A 
ATOM     23  S   UNL     1      46.657   7.524  12.445  0.00  0.00    +0.000 S 
ATOM     24  C   UNL     1      45.239   6.609  12.229  0.00  0.00    +0.000 A 
ATOM     25  N   UNL     1      44.240   7.047  11.417  0.00  0.00    +0.000 NA
ATOM     26  C   UNL     1      43.207   6.272  11.375  0.00  0.00    +0.000 A 
ATOM     27  N   UNL     1      43.085   5.097  12.072  0.00  0.00    +0.000 N 
ATOM     28  C   UNL     1      44.079   4.598  12.877  0.00  0.00    +0.000 A 
ATOM     29  O   UNL     1      43.954   3.523  13.454  0.00  0.00    +0.000 OA
ATOM     30  C   UNL     1      45.261   5.436  12.962  0.00  0.00    +0.000 A 
ATOM     31  H   UNL     1      42.250   4.535  11.996  0.00  0.00    +0.000 HD
ENDBRANCH  18  21
ENDBRANCH   1  17
TORSDOF 6
ENDMDL
