MODEL 1
REMARK VINA RESULT:    -7.715      0.000      0.000
REMARK INTER + INTRA:         -10.101
REMARK INTER:                  -9.519
REMARK INTRA:                  -0.582
REMARK UNBOUND:                -0.582
REMARK  Name = 
REMARK  4 active torsions:
REMARK  status: ('A' for Active; 'I' for Inactive)
REMARK    1  A    between atoms: C_2  and  C_4
REMARK    2  A    between atoms: C_8  and  O_9
REMARK    3  A    between atoms: O_9  and  C_10
REMARK    4  A    between atoms: C_10  and  C_11
REMARK                            x       y       z     vdW  Elec       q    Type
REMARK                         _______ _______ _______ _____ _____    ______ ____
ROOT
ATOM      1  C   UNL     1      43.705   4.169  11.325  0.00  0.00    +0.000 C 
ENDROOT
BRANCH   1   2
ATOM      2  C   UNL     1      44.959   4.333  12.140  0.00  0.00    +0.000 A 
ATOM      3  C   UNL     1      45.489   3.277  12.873  0.00  0.00    +0.000 A 
ATOM      4  C   UNL     1      46.694   3.478  13.518  0.00  0.00    +0.000 A 
ATOM      5  N   UNL     1      47.387   4.640  13.487  0.00  0.00    +0.000 NA
ATOM      6  C   UNL     1      46.856   5.691  12.828  0.00  0.00    +0.000 A 
ATOM      7  N   UNL     1      47.554   6.880  12.797  0.00  0.00    +0.000 N 
ATOM      8  C   UNL     1      49.011   6.862  12.854  0.00  0.00    +0.000 C 
ATOM      9  C   UNL     1      49.520   7.664  14.048  0.00  0.00    +0.000 C 
ATOM     10  C   UNL     1      48.897   9.057  14.093  0.00  0.00    +0.000 C 
ATOM     11  C   UNL     1      47.374   8.966  14.065  0.00  0.00    +0.000 C 
ATOM     12  C   UNL     1      46.883   8.172  12.854  0.00  0.00    +0.000 C 
ATOM     13  C   UNL     1      45.641   5.557  12.154  0.00  0.00    +0.000 A 
ENDBRANCH   1   2
BRANCH   1  14
ATOM     14  O   UNL     1      43.854   3.056  10.447  0.00  0.00    +0.000 OA
BRANCH  14  19
ATOM     15  C   UNL     1      46.254   2.044   7.918  0.00  0.00    +0.000 A 
ATOM     16  C   UNL     1      46.595   3.257   7.312  0.00  0.00    +0.000 A 
ATOM     17  C   UNL     1      46.002   4.441   7.746  0.00  0.00    +0.000 A 
ATOM     18  C   UNL     1      45.073   4.418   8.791  0.00  0.00    +0.000 A 
ATOM     19  C   UNL     1      44.739   3.212   9.413  0.00  0.00    +0.000 A 
ATOM     20  C   UNL     1      45.337   2.028   8.978  0.00  0.00    +0.000 A 
BRANCH  15  22
ATOM     21  N   UNL     1      47.754   0.919   6.372  0.00  0.00    +0.000 N 
ATOM     22  C   UNL     1      46.890   0.798   7.422  0.00  0.00    +0.000 C 
ATOM     23  O   UNL     1      46.686  -0.284   7.956  0.00  0.00    +0.000 OA
ATOM     24  H   UNL     1      48.262   0.084   6.106  0.00  0.00    +0.000 HD
ATOM     25  H   UNL     1      48.119   1.810   6.066  0.00  0.00    +0.000 HD
ENDBRANCH  15  22
ENDBRANCH  14  19
ENDBRANCH   1  14
TORSDOF 4
ENDMDL
MODEL 2
REMARK VINA RESULT:    -7.386      2.249      3.419
REMARK INTER + INTRA:          -9.695
REMARK INTER:                  -9.064
REMARK INTRA:                  -0.631
REMARK UNBOUND:                -0.582
REMARK  Name = 
REMARK  4 active torsions:
REMARK  status: ('A' for Active; 'I' for Inactive)
REMARK    1  A    between atoms: C_2  and  C_4
REMARK    2  A    between atoms: C_8  and  O_9
REMARK    3  A    between atoms: O_9  and  C_10
REMARK    4  A    between atoms: C_10  and  C_11
REMARK                            x       y       z     vdW  Elec       q    Type
REMARK                         _______ _______ _______ _____ _____    ______ ____
ROOT
ATOM      1  C   UNL     1      44.909   5.708  11.633  0.00  0.00    +0.000 C 
ENDROOT
BRANCH   1   2
ATOM      2  C   UNL     1      46.205   5.875  12.379  0.00  0.00    +0.000 A 
ATOM      3  C   UNL     1      47.250   6.627  11.854  0.00  0.00    +0.000 A 
ATOM      4  C   UNL     1      48.371   6.813  12.640  0.00  0.00    +0.000 A 
ATOM      5  N   UNL     1      48.518   6.305  13.885  0.00  0.00    +0.000 NA
ATOM      6  C   UNL     1      47.536   5.526  14.385  0.00  0.00    +0.000 A 
ATOM      7  N   UNL     1      47.681   5.000  15.652  0.00  0.00    +0.000 N 
ATOM      8  C   UNL     1      48.457   5.729  16.649  0.00  0.00    +0.000 C 
ATOM      9  C   UNL     1      49.613   4.879  17.168  0.00  0.00    +0.000 C 
ATOM     10  C   UNL     1      49.136   3.498  17.613  0.00  0.00    +0.000 C 
ATOM     11  C   UNL     1      48.370   2.807  16.490  0.00  0.00    +0.000 C 
ATOM     12  C   UNL     1      47.207   3.666  15.994  0.00  0.00    +0.000 C 
ATOM     13  C   UNL     1      46.376   5.296  13.643  0.00  0.00    +0.000 A 
ENDBRANCH   1   2
BRANCH   1  14
ATOM     14  O   UNL     1      45.172   5.656  10.234  0.00  0.00    +0.000 OA
BRANCH  14  19
ATOM     15  C   UNL     1      46.269   3.061   7.944  0.00  0.00    +0.000 A 
ATOM     16  C   UNL     1      45.508   1.957   8.339  0.00  0.00    +0.000 A 
ATOM     17  C   UNL     1      44.618   2.074   9.405  0.00  0.00    +0.000 A 
ATOM     18  C   UNL     1      44.478   3.294  10.072  0.00  0.00    +0.000 A 
ATOM     19  C   UNL     1      45.221   4.407   9.671  0.00  0.00    +0.000 A 
ATOM     20  C   UNL     1      46.111   4.288   8.602  0.00  0.00    +0.000 A 
BRANCH  15  22
ATOM     21  N   UNL     1      47.006   3.671   5.710  0.00  0.00    +0.000 N 
ATOM     22  C   UNL     1      47.221   2.901   6.816  0.00  0.00    +0.000 C 
ATOM     23  O   UNL     1      48.182   2.146   6.888  0.00  0.00    +0.000 OA
ATOM     24  H   UNL     1      47.714   3.633   4.988  0.00  0.00    +0.000 HD
ATOM     25  H   UNL     1      46.374   4.460   5.709  0.00  0.00    +0.000 HD
ENDBRANCH  15  22
ENDBRANCH  14  19
ENDBRANCH   1  14
TORSDOF 4
ENDMDL
MODEL 3
REMARK VINA RESULT:    -7.001      2.764      4.484
REMARK INTER + INTRA:          -9.220
REMARK INTER:                  -8.672
REMARK INTRA:                  -0.548
REMARK UNBOUND:                -0.582
REMARK  Name = 
REMARK  4 active torsions:
REMARK  status: ('A' for Active; 'I' for Inactive)
REMARK    1  A    between atoms: C_2  and  C_4
REMARK    2  A    between atoms: C_8  and  O_9
REMARK    3  A    between atoms: O_9  and  C_10
REMARK    4  A    between atoms: C_10  and  C_11
REMARK                            x       y       z     vdW  Elec       q    Type
REMARK                         _______ _______ _______ _____ _____    ______ ____
ROOT
ATOM      1  C   UNL     1      46.600   6.661  11.756  0.00  0.00    +0.000 C 
ENDROOT
BRANCH   1   2
ATOM      2  C   UNL     1      47.612   6.619  12.869  0.00  0.00    +0.000 A 
ATOM      3  C   UNL     1      48.783   7.368  12.811  0.00  0.00    +0.000 A 
ATOM      4  C   UNL     1      49.617   7.351  13.912  0.00  0.00    +0.000 A 
ATOM      5  N   UNL     1      49.369   6.647  15.040  0.00  0.00    +0.000 NA
ATOM      6  C   UNL     1      48.266   5.870  15.089  0.00  0.00    +0.000 A 
ATOM      7  N   UNL     1      48.011   5.145  16.234  0.00  0.00    +0.000 N 
ATOM      8  C   UNL     1      48.463   5.654  17.524  0.00  0.00    +0.000 C 
ATOM      9  C   UNL     1      49.390   4.655  18.209  0.00  0.00    +0.000 C 
ATOM     10  C   UNL     1      48.774   3.258  18.254  0.00  0.00    +0.000 C 
ATOM     11  C   UNL     1      48.370   2.805  16.854  0.00  0.00    +0.000 C 
ATOM     12  C   UNL     1      47.429   3.811  16.190  0.00  0.00    +0.000 C 
ATOM     13  C   UNL     1      47.381   5.840  14.010  0.00  0.00    +0.000 A 
ENDBRANCH   1   2
BRANCH   1  14
ATOM     14  O   UNL     1      45.295   6.474  12.297  0.00  0.00    +0.000 OA
BRANCH  14  19
ATOM     15  C   UNL     1      44.455   3.476  10.430  0.00  0.00    +0.000 A 
ATOM     16  C   UNL     1      43.619   2.785  11.312  0.00  0.00    +0.000 A 
ATOM     17  C   UNL     1      43.339   3.323  12.567  0.00  0.00    +0.000 A 
ATOM     18  C   UNL     1      43.885   4.555  12.940  0.00  0.00    +0.000 A 
ATOM     19  C   UNL     1      44.706   5.259  12.057  0.00  0.00    +0.000 A 
ATOM     20  C   UNL     1      44.984   4.720  10.800  0.00  0.00    +0.000 A 
BRANCH  15  22
ATOM     21  N   UNL     1      44.305   3.543   8.005  0.00  0.00    +0.000 N 
ATOM     22  C   UNL     1      44.748   2.870   9.107  0.00  0.00    +0.000 C 
ATOM     23  O   UNL     1      45.395   1.836   9.002  0.00  0.00    +0.000 OA
ATOM     24  H   UNL     1      44.596   3.180   7.106  0.00  0.00    +0.000 HD
ATOM     25  H   UNL     1      43.981   4.500   8.044  0.00  0.00    +0.000 HD
ENDBRANCH  15  22
ENDBRANCH  14  19
ENDBRANCH   1  14
TORSDOF 4
ENDMDL
MODEL 4
REMARK VINA RESULT:    -6.864      2.955      4.965
REMARK INTER + INTRA:          -9.050
REMARK INTER:                  -8.402
REMARK INTRA:                  -0.649
REMARK UNBOUND:                -0.582
REMARK  Name = 
REMARK  4 active torsions:
REMARK  status: ('A' for Active; 'I' for Inactive)
REMARK    1  A    between atoms: C_2  and  C_4
REMARK    2  A    between atoms: C_8  and  O_9
REMARK    3  A    between atoms: O_9  and  C_10
REMARK    4  A    between atoms: C_10  and  C_11
REMARK                            x       y       z     vdW  Elec       q    Type
REMARK                         _______ _______ _______ _____ _____    ______ ____
ROOT
ATOM      1  C   UNL     1      47.760   7.214  11.690  0.00  0.00    +0.000 C 
ENDROOT
BRANCH   1   2
ATOM      2  C   UNL     1      48.487   7.007  12.991  0.00  0.00    +0.000 A 
ATOM      3  C   UNL     1      49.688   7.654  13.260  0.00  0.00    +0.000 A 
ATOM      4  C   UNL     1      50.246   7.487  14.514  0.00  0.00    +0.000 A 
ATOM      5  N   UNL     1      49.700   6.729  15.492  0.00  0.00    +0.000 NA
ATOM      6  C   UNL     1      48.565   6.049  15.226  0.00  0.00    +0.000 A 
ATOM      7  N   UNL     1      48.007   5.269  16.217  0.00  0.00    +0.000 N 
ATOM      8  C   UNL     1      48.186   5.644  17.615  0.00  0.00    +0.000 C 
ATOM      9  C   UNL     1      48.863   4.522  18.397  0.00  0.00    +0.000 C 
ATOM     10  C   UNL     1      48.159   3.185  18.180  0.00  0.00    +0.000 C 
ATOM     11  C   UNL     1      48.055   2.869  16.691  0.00  0.00    +0.000 C 
ATOM     12  C   UNL     1      47.361   3.996  15.927  0.00  0.00    +0.000 C 
ATOM     13  C   UNL     1      47.949   6.171  13.979  0.00  0.00    +0.000 A 
ENDBRANCH   1   2
BRANCH   1  14
ATOM     14  O   UNL     1      46.368   6.980  11.883  0.00  0.00    +0.000 OA
BRANCH  14  19
ATOM     15  C   UNL     1      44.399   3.996  11.248  0.00  0.00    +0.000 A 
ATOM     16  C   UNL     1      44.574   3.796   9.876  0.00  0.00    +0.000 A 
ATOM     17  C   UNL     1      45.356   4.684   9.139  0.00  0.00    +0.000 A 
ATOM     18  C   UNL     1      45.971   5.768   9.772  0.00  0.00    +0.000 A 
ATOM     19  C   UNL     1      45.815   5.965  11.146  0.00  0.00    +0.000 A 
ATOM     20  C   UNL     1      45.034   5.073  11.882  0.00  0.00    +0.000 A 
BRANCH  15  22
ATOM     21  N   UNL     1      43.458   3.227  13.353  0.00  0.00    +0.000 N 
ATOM     22  C   UNL     1      43.547   3.043  12.002  0.00  0.00    +0.000 C 
ATOM     23  O   UNL     1      42.917   2.158  11.439  0.00  0.00    +0.000 OA
ATOM     24  H   UNL     1      42.797   2.640  13.846  0.00  0.00    +0.000 HD
ATOM     25  H   UNL     1      43.770   4.073  13.810  0.00  0.00    +0.000 HD
ENDBRANCH  15  22
ENDBRANCH  14  19
ENDBRANCH   1  14
TORSDOF 4
ENDMDL
MODEL 5
REMARK VINA RESULT:    -6.607      3.958      7.836
REMARK INTER + INTRA:          -8.734
REMARK INTER:                  -8.049
REMARK INTRA:                  -0.685
REMARK UNBOUND:                -0.582
REMARK  Name = 
REMARK  4 active torsions:
REMARK  status: ('A' for Active; 'I' for Inactive)
REMARK    1  A    between atoms: C_2  and  C_4
REMARK    2  A    between atoms: C_8  and  O_9
REMARK    3  A    between atoms: O_9  and  C_10
REMARK    4  A    between atoms: C_10  and  C_11
REMARK                            x       y       z     vdW  Elec       q    Type
REMARK                         _______ _______ _______ _____ _____    ______ ____
ROOT
ATOM      1  C   UNL     1      49.179   6.886  14.960  0.00  0.00    +0.000 C 
ENDROOT
BRANCH   1   2
ATOM      2  C   UNL     1      47.949   7.112  14.125  0.00  0.00    +0.000 A 
ATOM      3  C   UNL     1      47.457   8.392  13.892  0.00  0.00    +0.000 A 
ATOM      4  C   UNL     1      46.380   8.525  13.037  0.00  0.00    +0.000 A 
ATOM      5  N   UNL     1      45.770   7.489  12.417  0.00  0.00    +0.000 NA
ATOM      6  C   UNL     1      46.200   6.236  12.678  0.00  0.00    +0.000 A 
ATOM      7  N   UNL     1      45.580   5.174  12.054  0.00  0.00    +0.000 N 
ATOM      8  C   UNL     1      44.990   5.360  10.733  0.00  0.00    +0.000 C 
ATOM      9  C   UNL     1      43.502   5.023  10.748  0.00  0.00    +0.000 C 
ATOM     10  C   UNL     1      43.244   3.655  11.376  0.00  0.00    +0.000 C 
ATOM     11  C   UNL     1      43.868   3.576  12.766  0.00  0.00    +0.000 C 
ATOM     12  C   UNL     1      45.361   3.902  12.729  0.00  0.00    +0.000 C 
ATOM     13  C   UNL     1      47.284   6.030  13.534  0.00  0.00    +0.000 A 
ENDBRANCH   1   2
BRANCH   1  14
ATOM     14  O   UNL     1      48.902   7.232  16.315  0.00  0.00    +0.000 OA
BRANCH  14  19
ATOM     15  C   UNL     1      49.144   3.816  17.521  0.00  0.00    +0.000 A 
ATOM     16  C   UNL     1      48.541   3.889  18.780  0.00  0.00    +0.000 A 
ATOM     17  C   UNL     1      48.053   5.108  19.246  0.00  0.00    +0.000 A 
ATOM     18  C   UNL     1      48.159   6.255  18.455  0.00  0.00    +0.000 A 
ATOM     19  C   UNL     1      48.745   6.187  17.188  0.00  0.00    +0.000 A 
ATOM     20  C   UNL     1      49.230   4.964  16.722  0.00  0.00    +0.000 A 
BRANCH  15  22
ATOM     21  N   UNL     1      50.616   1.908  17.840  0.00  0.00    +0.000 N 
ATOM     22  C   UNL     1      49.669   2.507  17.059  0.00  0.00    +0.000 C 
ATOM     23  O   UNL     1      49.244   1.965  16.047  0.00  0.00    +0.000 OA
ATOM     24  H   UNL     1      50.895   0.972  17.575  0.00  0.00    +0.000 HD
ATOM     25  H   UNL     1      50.814   2.209  18.784  0.00  0.00    +0.000 HD
ENDBRANCH  15  22
ENDBRANCH  14  19
ENDBRANCH   1  14
TORSDOF 4
ENDMDL
MODEL 6
REMARK VINA RESULT:    -6.337      4.327      5.313
REMARK INTER + INTRA:          -8.401
REMARK INTER:                  -8.027
REMARK INTRA:                  -0.373
REMARK UNBOUND:                -0.582
REMARK  Name = 
REMARK  4 active torsions:
REMARK  status: ('A' for Active; 'I' for Inactive)
REMARK    1  A    between atoms: C_2  and  C_4
REMARK    2  A    between atoms: C_8  and  O_9
REMARK    3  A    between atoms: O_9  and  C_10
REMARK    4  A    between atoms: C_10  and  C_11
REMARK                            x       y       z     vdW  Elec       q    Type
REMARK                         _______ _______ _______ _____ _____    ______ ____
ROOT
ATOM      1  C   UNL     1      47.023   4.817  14.400  0.00  0.00    +0.000 C 
ENDROOT
BRANCH   1   2
ATOM      2  C   UNL     1      47.579   4.277  15.690  0.00  0.00    +0.000 A 
ATOM      3  C   UNL     1      47.930   2.938  15.822  0.00  0.00    +0.000 A 
ATOM      4  C   UNL     1      48.523   2.539  17.005  0.00  0.00    +0.000 A 
ATOM      5  N   UNL     1      48.775   3.368  18.044  0.00  0.00    +0.000 NA
ATOM      6  C   UNL     1      48.388   4.657  17.952  0.00  0.00    +0.000 A 
ATOM      7  N   UNL     1      48.638   5.506  19.010  0.00  0.00    +0.000 N 
ATOM      8  C   UNL     1      49.797   5.271  19.863  0.00  0.00    +0.000 C 
ATOM      9  C   UNL     1      49.375   5.082  21.317  0.00  0.00    +0.000 C 
ATOM     10  C   UNL     1      48.456   6.209  21.784  0.00  0.00    +0.000 C 
ATOM     11  C   UNL     1      47.259   6.348  20.849  0.00  0.00    +0.000 C 
ATOM     12  C   UNL     1      47.702   6.552  19.400  0.00  0.00    +0.000 C 
ATOM     13  C   UNL     1      47.783   5.127  16.785  0.00  0.00    +0.000 A 
ENDBRANCH   1   2
BRANCH   1  14
ATOM     14  O   UNL     1      46.139   3.858  13.828  0.00  0.00    +0.000 OA
BRANCH  14  19
ATOM     15  C   UNL     1      44.437   4.007  10.624  0.00  0.00    +0.000 A 
ATOM     16  C   UNL     1      43.570   5.090  10.784  0.00  0.00    +0.000 A 
ATOM     17  C   UNL     1      43.539   5.782  11.994  0.00  0.00    +0.000 A 
ATOM     18  C   UNL     1      44.379   5.398  13.043  0.00  0.00    +0.000 A 
ATOM     19  C   UNL     1      45.262   4.327  12.885  0.00  0.00    +0.000 A 
ATOM     20  C   UNL     1      45.293   3.638  11.671  0.00  0.00    +0.000 A 
BRANCH  15  22
ATOM     21  N   UNL     1      44.291   4.030   8.198  0.00  0.00    +0.000 N 
ATOM     22  C   UNL     1      44.435   3.280   9.330  0.00  0.00    +0.000 C 
ATOM     23  O   UNL     1      44.600   2.068   9.272  0.00  0.00    +0.000 OA
ATOM     24  H   UNL     1      44.393   3.543   7.317  0.00  0.00    +0.000 HD
ATOM     25  H   UNL     1      44.388   5.036   8.195  0.00  0.00    +0.000 HD
ENDBRANCH  15  22
ENDBRANCH  14  19
ENDBRANCH   1  14
TORSDOF 4
ENDMDL
MODEL 7
REMARK VINA RESULT:    -6.251      4.598      6.185
REMARK INTER + INTRA:          -8.295
REMARK INTER:                  -7.860
REMARK INTRA:                  -0.434
REMARK UNBOUND:                -0.582
REMARK  Name = 
REMARK  4 active torsions:
REMARK  status: ('A' for Active; 'I' for Inactive)
REMARK    1  A    between atoms: C_2  and  C_4
REMARK    2  A    between atoms: C_8  and  O_9
REMARK    3  A    between atoms: O_9  and  C_10
REMARK    4  A    between atoms: C_10  and  C_11
REMARK                            x       y       z     vdW  Elec       q    Type
REMARK                         _______ _______ _______ _____ _____    ______ ____
ROOT
ATOM      1  C   UNL     1      46.963   4.771  14.624  0.00  0.00    +0.000 C 
ENDROOT
BRANCH   1   2
ATOM      2  C   UNL     1      47.579   4.223  15.882  0.00  0.00    +0.000 A 
ATOM      3  C   UNL     1      48.018   2.906  15.958  0.00  0.00    +0.000 A 
ATOM      4  C   UNL     1      48.660   2.503  17.114  0.00  0.00    +0.000 A 
ATOM      5  N   UNL     1      48.882   3.309  18.178  0.00  0.00    +0.000 NA
ATOM      6  C   UNL     1      48.411   4.573  18.141  0.00  0.00    +0.000 A 
ATOM      7  N   UNL     1      48.628   5.398  19.225  0.00  0.00    +0.000 N 
ATOM      8  C   UNL     1      49.818   5.208  20.046  0.00  0.00    +0.000 C 
ATOM      9  C   UNL     1      49.441   4.940  21.500  0.00  0.00    +0.000 C 
ATOM     10  C   UNL     1      48.461   5.988  22.026  0.00  0.00    +0.000 C 
ATOM     11  C   UNL     1      47.238   6.082  21.119  0.00  0.00    +0.000 C 
ATOM     12  C   UNL     1      47.636   6.366  19.670  0.00  0.00    +0.000 C 
ATOM     13  C   UNL     1      47.752   5.044  17.004  0.00  0.00    +0.000 A 
ENDBRANCH   1   2
BRANCH   1  14
ATOM     14  O   UNL     1      46.674   3.699  13.732  0.00  0.00    +0.000 OA
BRANCH  14  19
ATOM     15  C   UNL     1      44.443   5.662  11.647  0.00  0.00    +0.000 A 
ATOM     16  C   UNL     1      43.745   4.683  10.933  0.00  0.00    +0.000 A 
ATOM     17  C   UNL     1      44.034   3.336  11.139  0.00  0.00    +0.000 A 
ATOM     18  C   UNL     1      45.013   2.961  12.064  0.00  0.00    +0.000 A 
ATOM     19  C   UNL     1      45.702   3.933  12.794  0.00  0.00    +0.000 A 
ATOM     20  C   UNL     1      45.409   5.282  12.588  0.00  0.00    +0.000 A 
BRANCH  15  22
ATOM     21  N   UNL     1      42.835   7.386  11.055  0.00  0.00    +0.000 N 
ATOM     22  C   UNL     1      44.124   7.089  11.394  0.00  0.00    +0.000 C 
ATOM     23  O   UNL     1      44.965   7.969  11.524  0.00  0.00    +0.000 OA
ATOM     24  H   UNL     1      42.601   8.368  10.984  0.00  0.00    +0.000 HD
ATOM     25  H   UNL     1      42.076   6.727  11.167  0.00  0.00    +0.000 HD
ENDBRANCH  15  22
ENDBRANCH  14  19
ENDBRANCH   1  14
TORSDOF 4
ENDMDL
MODEL 8
REMARK VINA RESULT:    -6.075      4.398      5.973
REMARK INTER + INTRA:          -8.078
REMARK INTER:                  -7.515
REMARK INTRA:                  -0.563
REMARK UNBOUND:                -0.582
REMARK  Name = 
REMARK  4 active torsions:
REMARK  status: ('A' for Active; 'I' for Inactive)
REMARK    1  A    between atoms: C_2  and  C_4
REMARK    2  A    between atoms: C_8  and  O_9
REMARK    3  A    between atoms: O_9  and  C_10
REMARK    4  A    between atoms: C_10  and  C_11
REMARK                            x       y       z     vdW  Elec       q    Type
REMARK                         _______ _______ _______ _____ _____    ______ ____
ROOT
ATOM      1  C   UNL     1      46.979   4.070  14.837  0.00  0.00    +0.000 C 
ENDROOT
BRANCH   1   2
ATOM      2  C   UNL     1      47.578   4.141  16.215  0.00  0.00    +0.000 A 
ATOM      3  C   UNL     1      47.839   2.991  16.951  0.00  0.00    +0.000 A 
ATOM      4  C   UNL     1      48.478   3.133  18.169  0.00  0.00    +0.000 A 
ATOM      5  N   UNL     1      48.857   4.321  18.692  0.00  0.00    +0.000 NA
ATOM      6  C   UNL     1      48.559   5.450  18.016  0.00  0.00    +0.000 A 
ATOM      7  N   UNL     1      48.938   6.666  18.546  0.00  0.00    +0.000 N 
ATOM      8  C   UNL     1      50.131   6.746  19.382  0.00  0.00    +0.000 C 
ATOM      9  C   UNL     1      49.792   7.294  20.765  0.00  0.00    +0.000 C 
ATOM     10  C   UNL     1      48.990   8.590  20.671  0.00  0.00    +0.000 C 
ATOM     11  C   UNL     1      47.748   8.391  19.809  0.00  0.00    +0.000 C 
ATOM     12  C   UNL     1      48.108   7.856  18.423  0.00  0.00    +0.000 C 
ATOM     13  C   UNL     1      47.914   5.379  16.780  0.00  0.00    +0.000 A 
ENDBRANCH   1   2
BRANCH   1  14
ATOM     14  O   UNL     1      47.568   5.072  14.013  0.00  0.00    +0.000 OA
BRANCH  14  19
ATOM     15  C   UNL     1      44.489   5.912  12.284  0.00  0.00    +0.000 A 
ATOM     16  C   UNL     1      44.755   7.188  11.779  0.00  0.00    +0.000 A 
ATOM     17  C   UNL     1      45.985   7.791  12.032  0.00  0.00    +0.000 A 
ATOM     18  C   UNL     1      46.955   7.120  12.782  0.00  0.00    +0.000 A 
ATOM     19  C   UNL     1      46.703   5.837  13.275  0.00  0.00    +0.000 A 
ATOM     20  C   UNL     1      45.471   5.234  13.018  0.00  0.00    +0.000 A 
BRANCH  15  22
ATOM     21  N   UNL     1      42.128   6.157  11.758  0.00  0.00    +0.000 N 
ATOM     22  C   UNL     1      43.163   5.302  12.012  0.00  0.00    +0.000 C 
ATOM     23  O   UNL     1      43.009   4.089  11.972  0.00  0.00    +0.000 OA
ATOM     24  H   UNL     1      41.253   5.735  11.473  0.00  0.00    +0.000 HD
ATOM     25  H   UNL     1      42.268   7.136  11.553  0.00  0.00    +0.000 HD
ENDBRANCH  15  22
ENDBRANCH  14  19
ENDBRANCH   1  14
TORSDOF 4
ENDMDL
MODEL 9
REMARK VINA RESULT:    -6.051      2.990      5.097
REMARK INTER + INTRA:          -8.048
REMARK INTER:                  -7.411
REMARK INTRA:                  -0.637
REMARK UNBOUND:                -0.582
REMARK  Name = 
REMARK  4 active torsions:
REMARK  status: ('A' for Active; 'I' for Inactive)
REMARK    1  A    between atoms: C_2  and  C_4
REMARK    2  A    between atoms: C_8  and  O_9
REMARK    3  A    between atoms: O_9  and  C_10
REMARK    4  A    between atoms: C_10  and  C_11
REMARK                            x       y       z     vdW  Elec       q    Type
REMARK                         _______ _______ _______ _____ _____    ______ ____
ROOT
ATOM      1  C   UNL     1      45.379   8.540  12.677  0.00  0.00    +0.000 C 
ENDROOT
BRANCH   1   2
ATOM      2  C   UNL     1      46.557   9.311  12.146  0.00  0.00    +0.000 A 
ATOM      3  C   UNL     1      46.412  10.601  11.648  0.00  0.00    +0.000 A 
ATOM      4  C   UNL     1      47.555  11.280  11.268  0.00  0.00    +0.000 A 
ATOM      5  N   UNL     1      48.803  10.765  11.344  0.00  0.00    +0.000 NA
ATOM      6  C   UNL     1      48.954   9.494  11.772  0.00  0.00    +0.000 A 
ATOM      7  N   UNL     1      50.224   8.961  11.847  0.00  0.00    +0.000 N 
ATOM      8  C   UNL     1      51.358   9.838  12.113  0.00  0.00    +0.000 C 
ATOM      9  C   UNL     1      52.390   9.751  10.992  0.00  0.00    +0.000 C 
ATOM     10  C   UNL     1      52.761   8.302  10.684  0.00  0.00    +0.000 C 
ATOM     11  C   UNL     1      51.512   7.480  10.385  0.00  0.00    +0.000 C 
ATOM     12  C   UNL     1      50.497   7.567  11.525  0.00  0.00    +0.000 C 
ATOM     13  C   UNL     1      47.841   8.751  12.170  0.00  0.00    +0.000 A 
ENDBRANCH   1   2
BRANCH   1  14
ATOM     14  O   UNL     1      45.770   7.194  12.930  0.00  0.00    +0.000 OA
BRANCH  14  19
ATOM     15  C   UNL     1      44.725   4.902  10.315  0.00  0.00    +0.000 A 
ATOM     16  C   UNL     1      43.625   4.259  10.889  0.00  0.00    +0.000 A 
ATOM     17  C   UNL     1      43.228   4.585  12.184  0.00  0.00    +0.000 A 
ATOM     18  C   UNL     1      43.923   5.560  12.907  0.00  0.00    +0.000 A 
ATOM     19  C   UNL     1      45.013   6.219  12.334  0.00  0.00    +0.000 A 
ATOM     20  C   UNL     1      45.407   5.892  11.035  0.00  0.00    +0.000 A 
BRANCH  15  22
ATOM     21  N   UNL     1      44.343   3.621   8.285  0.00  0.00    +0.000 N 
ATOM     22  C   UNL     1      45.134   4.521   8.940  0.00  0.00    +0.000 C 
ATOM     23  O   UNL     1      46.111   5.020   8.398  0.00  0.00    +0.000 OA
ATOM     24  H   UNL     1      44.568   3.444   7.314  0.00  0.00    +0.000 HD
ATOM     25  H   UNL     1      43.417   3.373   8.607  0.00  0.00    +0.000 HD
ENDBRANCH  15  22
ENDBRANCH  14  19
ENDBRANCH   1  14
TORSDOF 4
ENDMDL
