MODEL 1
REMARK VINA RESULT:    -8.209      0.000      0.000
REMARK INTER + INTRA:         -13.398
REMARK INTER:                 -12.528
REMARK INTRA:                  -0.870
REMARK UNBOUND:                -0.870
REMARK  Name = 
REMARK  11 active torsions:
REMARK  status: ('A' for Active; 'I' for Inactive)
REMARK    1  A    between atoms: C_1  and  N_2
REMARK    2  A    between atoms: C_4  and  C_5
REMARK    3  A    between atoms: N_7  and  C_8
REMARK    4  A    between atoms: C_8  and  C_9
REMARK    5  A    between atoms: C_12  and  C_13
REMARK    6  A    between atoms: C_13  and  N_14
REMARK    7  A    between atoms: N_14  and  CA_15
REMARK    8  A    between atoms: CA_15  and  C_16
REMARK    9  A    between atoms: CA_15  and  C_18
REMARK   10  A    between atoms: C_16  and  O_17
REMARK   11  A    between atoms: C_27  and  O_28
REMARK                            x       y       z     vdW  Elec       q    Type
REMARK                         _______ _______ _______ _____ _____    ______ ____
ROOT
ATOM      1  C   UNL     1      46.217   7.856  12.936  0.00  0.00    +0.000 A 
ATOM      2  C   UNL     1      45.834   6.582  13.372  0.00  0.00    +0.000 A 
ATOM      3  C   UNL     1      44.745   5.929  12.786  0.00  0.00    +0.000 A 
ATOM      4  C   UNL     1      44.022   6.535  11.748  0.00  0.00    +0.000 A 
ATOM      5  C   UNL     1      44.410   7.808  11.312  0.00  0.00    +0.000 A 
ATOM      6  C   UNL     1      45.500   8.460  11.895  0.00  0.00    +0.000 A 
ENDROOT
BRANCH   1   7
ATOM      7  C   UNL     1      47.404   8.549  13.544  0.00  0.00    +0.000 C 
BRANCH   7  10
ATOM      8  C   UNL     1      48.692   6.925  14.836  0.00  0.00    +0.000 C 
ATOM      9  O   UNL     1      49.235   6.478  13.832  0.00  0.00    +0.000 OA
ATOM     10  N   UNL     1      47.776   7.943  14.799  0.00  0.00    +0.000 N 
ATOM     11  H   UNL     1      47.359   8.296  15.647  0.00  0.00    +0.000 HD
BRANCH   8  15
ATOM     12  C   UNL     1      50.554   6.304  19.448  0.00  0.00    +0.000 C 
ATOM     13  N   UNL     1      49.822   6.090  18.220  0.00  0.00    +0.000 N 
ATOM     14  C   UNL     1      49.831   6.924  17.131  0.00  0.00    +0.000 A 
ATOM     15  C   UNL     1      48.999   6.383  16.158  0.00  0.00    +0.000 A 
ATOM     16  C   UNL     1      48.478   5.161  16.705  0.00  0.00    +0.000 A 
ATOM     17  C   UNL     1      47.613   4.138  16.294  0.00  0.00    +0.000 A 
ATOM     18  N   UNL     1      47.342   3.107  17.112  0.00  0.00    +0.000 NA
ATOM     19  C   UNL     1      47.928   3.100  18.321  0.00  0.00    +0.000 A 
ATOM     20  N   UNL     1      48.773   4.009  18.839  0.00  0.00    +0.000 NA
ATOM     21  C   UNL     1      49.008   5.017  17.980  0.00  0.00    +0.000 A 
BRANCH  17  22
ATOM     22  O   UNL     1      46.986   4.096  15.073  0.00  0.00    +0.000 OA
ATOM     23  H   UNL     1      46.652   3.184  14.942  0.00  0.00    +0.000 HD
ENDBRANCH  17  22
ENDBRANCH   8  15
ENDBRANCH   7  10
ENDBRANCH   1   7
BRANCH   4  24
ATOM     24  C   UNL     1      42.886   5.810  11.060  0.00  0.00    +0.000 C 
BRANCH  24  25
ATOM     25  N   UNL     1      43.372   4.937   9.994  0.00  0.00    +0.000 NA
ATOM     26  H   UNL     1      43.901   5.515   9.336  0.00  0.00    +0.000 HD
BRANCH  25  27
ATOM     27  CA  UNL     1      44.287   3.871  10.470  0.00  0.00    +0.000 C 
BRANCH  27  28
ATOM     28  C   UNL     1      45.144   3.358   9.312  0.00  0.00    +0.000 A 
ATOM     29  C   UNL     1      45.728   4.258   8.407  0.00  0.00    +0.000 A 
ATOM     30  C   UNL     1      46.508   3.795   7.344  0.00  0.00    +0.000 A 
ATOM     31  C   UNL     1      46.710   2.426   7.166  0.00  0.00    +0.000 A 
ATOM     32  C   UNL     1      46.147   1.521   8.058  0.00  0.00    +0.000 A 
ATOM     33  C   UNL     1      45.381   1.984   9.128  0.00  0.00    +0.000 A 
ENDBRANCH  27  28
BRANCH  27  34
ATOM     34  C   UNL     1      43.536   2.697  11.157  0.00  0.00    +0.000 C 
BRANCH  34  35
ATOM     35  O   UNL     1      44.004   2.452  12.483  0.00  0.00    +0.000 OA
ATOM     36  H   UNL     1      44.582   3.207  12.700  0.00  0.00    +0.000 HD
ENDBRANCH  34  35
ENDBRANCH  27  34
ENDBRANCH  25  27
ENDBRANCH  24  25
ENDBRANCH   4  24
TORSDOF 10
ENDMDL
MODEL 2
REMARK VINA RESULT:    -7.853      1.679      2.142
REMARK INTER + INTRA:         -12.855
REMARK INTER:                 -11.705
REMARK INTRA:                  -1.149
REMARK UNBOUND:                -0.870
REMARK  Name = 
REMARK  11 active torsions:
REMARK  status: ('A' for Active; 'I' for Inactive)
REMARK    1  A    between atoms: C_1  and  N_2
REMARK    2  A    between atoms: C_4  and  C_5
REMARK    3  A    between atoms: N_7  and  C_8
REMARK    4  A    between atoms: C_8  and  C_9
REMARK    5  A    between atoms: C_12  and  C_13
REMARK    6  A    between atoms: C_13  and  N_14
REMARK    7  A    between atoms: N_14  and  CA_15
REMARK    8  A    between atoms: CA_15  and  C_16
REMARK    9  A    between atoms: CA_15  and  C_18
REMARK   10  A    between atoms: C_16  and  O_17
REMARK   11  A    between atoms: C_27  and  O_28
REMARK                            x       y       z     vdW  Elec       q    Type
REMARK                         _______ _______ _______ _____ _____    ______ ____
ROOT
ATOM      1  C   UNL     1      47.147   6.742  13.208  0.00  0.00    +0.000 A 
ATOM      2  C   UNL     1      46.791   7.465  12.063  0.00  0.00    +0.000 A 
ATOM      3  C   UNL     1      45.577   7.216  11.415  0.00  0.00    +0.000 A 
ATOM      4  C   UNL     1      44.692   6.244  11.904  0.00  0.00    +0.000 A 
ATOM      5  C   UNL     1      45.050   5.525  13.051  0.00  0.00    +0.000 A 
ATOM      6  C   UNL     1      46.261   5.775  13.700  0.00  0.00    +0.000 A 
ENDROOT
BRANCH   1   7
ATOM      7  C   UNL     1      48.438   7.026  13.923  0.00  0.00    +0.000 C 
BRANCH   7  10
ATOM      8  C   UNL     1      49.027   6.710  16.271  0.00  0.00    +0.000 C 
ATOM      9  O   UNL     1      49.967   5.974  15.991  0.00  0.00    +0.000 OA
ATOM     10  N   UNL     1      48.215   7.277  15.325  0.00  0.00    +0.000 N 
ATOM     11  H   UNL     1      47.458   7.889  15.591  0.00  0.00    +0.000 HD
BRANCH   8  15
ATOM     12  C   UNL     1      47.768   9.155  20.461  0.00  0.00    +0.000 C 
ATOM     13  N   UNL     1      48.153   8.107  19.544  0.00  0.00    +0.000 N 
ATOM     14  C   UNL     1      48.371   8.265  18.199  0.00  0.00    +0.000 A 
ATOM     15  C   UNL     1      48.715   7.030  17.663  0.00  0.00    +0.000 A 
ATOM     16  C   UNL     1      48.703   6.097  18.756  0.00  0.00    +0.000 A 
ATOM     17  C   UNL     1      48.944   4.729  18.941  0.00  0.00    +0.000 A 
ATOM     18  N   UNL     1      48.827   4.177  20.161  0.00  0.00    +0.000 NA
ATOM     19  C   UNL     1      48.477   4.982  21.178  0.00  0.00    +0.000 A 
ATOM     20  N   UNL     1      48.219   6.301  21.141  0.00  0.00    +0.000 NA
ATOM     21  C   UNL     1      48.350   6.800  19.899  0.00  0.00    +0.000 A 
BRANCH  17  22
ATOM     22  O   UNL     1      49.302   3.861  17.939  0.00  0.00    +0.000 OA
ATOM     23  H   UNL     1      49.972   3.247  18.303  0.00  0.00    +0.000 HD
ENDBRANCH  17  22
ENDBRANCH   8  15
ENDBRANCH   7  10
ENDBRANCH   1   7
BRANCH   4  24
ATOM     24  C   UNL     1      43.346   6.014  11.252  0.00  0.00    +0.000 C 
BRANCH  24  25
ATOM     25  N   UNL     1      43.420   4.991  10.211  0.00  0.00    +0.000 NA
ATOM     26  H   UNL     1      43.850   5.417   9.386  0.00  0.00    +0.000 HD
BRANCH  25  27
ATOM     27  CA  UNL     1      44.257   3.824  10.584  0.00  0.00    +0.000 C 
BRANCH  27  28
ATOM     28  C   UNL     1      45.103   3.382   9.390  0.00  0.00    +0.000 A 
ATOM     29  C   UNL     1      45.633   4.333   8.504  0.00  0.00    +0.000 A 
ATOM     30  C   UNL     1      46.403   3.934   7.408  0.00  0.00    +0.000 A 
ATOM     31  C   UNL     1      46.650   2.580   7.179  0.00  0.00    +0.000 A 
ATOM     32  C   UNL     1      46.141   1.625   8.052  0.00  0.00    +0.000 A 
ATOM     33  C   UNL     1      45.385   2.024   9.154  0.00  0.00    +0.000 A 
ENDBRANCH  27  28
BRANCH  27  34
ATOM     34  C   UNL     1      43.419   2.635  11.132  0.00  0.00    +0.000 C 
BRANCH  34  35
ATOM     35  O   UNL     1      43.737   2.324  12.488  0.00  0.00    +0.000 OA
ATOM     36  H   UNL     1      42.929   1.925  12.862  0.00  0.00    +0.000 HD
ENDBRANCH  34  35
ENDBRANCH  27  34
ENDBRANCH  25  27
ENDBRANCH  24  25
ENDBRANCH   4  24
TORSDOF 10
ENDMDL
MODEL 3
REMARK VINA RESULT:    -7.636      2.267      7.860
REMARK INTER + INTRA:         -12.524
REMARK INTER:                 -10.674
REMARK INTRA:                  -1.850
REMARK UNBOUND:                -0.870
REMARK  Name = 
REMARK  11 active torsions:
REMARK  status: ('A' for Active; 'I' for Inactive)
REMARK    1  A    between atoms: C_1  and  N_2
REMARK    2  A    between atoms: C_4  and  C_5
REMARK    3  A    between atoms: N_7  and  C_8
REMARK    4  A    between atoms: C_8  and  C_9
REMARK    5  A    between atoms: C_12  and  C_13
REMARK    6  A    between atoms: C_13  and  N_14
REMARK    7  A    between atoms: N_14  and  CA_15
REMARK    8  A    between atoms: CA_15  and  C_16
REMARK    9  A    between atoms: CA_15  and  C_18
REMARK   10  A    between atoms: C_16  and  O_17
REMARK   11  A    between atoms: C_27  and  O_28
REMARK                            x       y       z     vdW  Elec       q    Type
REMARK                         _______ _______ _______ _____ _____    ______ ____
ROOT
ATOM      1  C   UNL     1      48.572   8.077  13.426  0.00  0.00    +0.000 A 
ATOM      2  C   UNL     1      48.368   9.227  14.199  0.00  0.00    +0.000 A 
ATOM      3  C   UNL     1      48.437   9.165  15.594  0.00  0.00    +0.000 A 
ATOM      4  C   UNL     1      48.717   7.954  16.244  0.00  0.00    +0.000 A 
ATOM      5  C   UNL     1      48.923   6.807  15.467  0.00  0.00    +0.000 A 
ATOM      6  C   UNL     1      48.858   6.868  14.073  0.00  0.00    +0.000 A 
ENDROOT
BRANCH   1   7
ATOM      7  C   UNL     1      48.527   8.146  11.925  0.00  0.00    +0.000 C 
BRANCH   7  10
ATOM      8  C   UNL     1      46.415   7.040  11.395  0.00  0.00    +0.000 C 
ATOM      9  O   UNL     1      45.755   7.956  11.873  0.00  0.00    +0.000 OA
ATOM     10  N   UNL     1      47.785   7.040  11.374  0.00  0.00    +0.000 N 
ATOM     11  H   UNL     1      48.296   6.275  10.959  0.00  0.00    +0.000 HD
BRANCH   8  15
ATOM     12  C   UNL     1      44.821   3.559   8.160  0.00  0.00    +0.000 C 
ATOM     13  N   UNL     1      45.041   4.308   9.376  0.00  0.00    +0.000 N 
ATOM     14  C   UNL     1      45.778   5.461   9.481  0.00  0.00    +0.000 A 
ATOM     15  C   UNL     1      45.761   5.872  10.808  0.00  0.00    +0.000 A 
ATOM     16  C   UNL     1      44.965   4.911  11.520  0.00  0.00    +0.000 A 
ATOM     17  C   UNL     1      44.538   4.706  12.839  0.00  0.00    +0.000 A 
ATOM     18  N   UNL     1      43.771   3.647  13.148  0.00  0.00    +0.000 NA
ATOM     19  C   UNL     1      43.437   2.808  12.154  0.00  0.00    +0.000 A 
ATOM     20  N   UNL     1      43.774   2.885  10.855  0.00  0.00    +0.000 NA
ATOM     21  C   UNL     1      44.540   3.961  10.602  0.00  0.00    +0.000 A 
BRANCH  17  22
ATOM     22  O   UNL     1      44.850   5.529  13.893  0.00  0.00    +0.000 OA
ATOM     23  H   UNL     1      44.066   5.574  14.478  0.00  0.00    +0.000 HD
ENDBRANCH  17  22
ENDBRANCH   8  15
ENDBRANCH   7  10
ENDBRANCH   1   7
BRANCH   4  24
ATOM     24  C   UNL     1      48.862   7.890  17.748  0.00  0.00    +0.000 C 
BRANCH  24  25
ATOM     25  N   UNL     1      47.790   7.106  18.359  0.00  0.00    +0.000 NA
ATOM     26  H   UNL     1      47.236   6.696  17.603  0.00  0.00    +0.000 HD
BRANCH  25  27
ATOM     27  CA  UNL     1      48.278   5.985  19.199  0.00  0.00    +0.000 C 
BRANCH  27  28
ATOM     28  C   UNL     1      48.466   4.731  18.343  0.00  0.00    +0.000 A 
ATOM     29  C   UNL     1      49.727   4.122  18.244  0.00  0.00    +0.000 A 
ATOM     30  C   UNL     1      49.906   2.979  17.460  0.00  0.00    +0.000 A 
ATOM     31  C   UNL     1      48.829   2.432  16.760  0.00  0.00    +0.000 A 
ATOM     32  C   UNL     1      47.572   3.017  16.856  0.00  0.00    +0.000 A 
ATOM     33  C   UNL     1      47.390   4.149  17.650  0.00  0.00    +0.000 A 
ENDBRANCH  27  28
BRANCH  27  34
ATOM     34  C   UNL     1      47.346   5.689  20.406  0.00  0.00    +0.000 C 
BRANCH  34  35
ATOM     35  O   UNL     1      47.825   4.614  21.214  0.00  0.00    +0.000 OA
ATOM     36  H   UNL     1      48.658   4.323  20.796  0.00  0.00    +0.000 HD
ENDBRANCH  34  35
ENDBRANCH  27  34
ENDBRANCH  25  27
ENDBRANCH  24  25
ENDBRANCH   4  24
TORSDOF 10
ENDMDL
MODEL 4
REMARK VINA RESULT:    -7.403      1.467      1.989
REMARK INTER + INTRA:         -12.169
REMARK INTER:                 -11.161
REMARK INTRA:                  -1.007
REMARK UNBOUND:                -0.870
REMARK  Name = 
REMARK  11 active torsions:
REMARK  status: ('A' for Active; 'I' for Inactive)
REMARK    1  A    between atoms: C_1  and  N_2
REMARK    2  A    between atoms: C_4  and  C_5
REMARK    3  A    between atoms: N_7  and  C_8
REMARK    4  A    between atoms: C_8  and  C_9
REMARK    5  A    between atoms: C_12  and  C_13
REMARK    6  A    between atoms: C_13  and  N_14
REMARK    7  A    between atoms: N_14  and  CA_15
REMARK    8  A    between atoms: CA_15  and  C_16
REMARK    9  A    between atoms: CA_15  and  C_18
REMARK   10  A    between atoms: C_16  and  O_17
REMARK   11  A    between atoms: C_27  and  O_28
REMARK                            x       y       z     vdW  Elec       q    Type
REMARK                         _______ _______ _______ _____ _____    ______ ____
ROOT
ATOM      1  C   UNL     1      47.140   8.432  12.181  0.00  0.00    +0.000 A 
ATOM      2  C   UNL     1      45.872   9.019  12.269  0.00  0.00    +0.000 A 
ATOM      3  C   UNL     1      44.723   8.271  11.995  0.00  0.00    +0.000 A 
ATOM      4  C   UNL     1      44.819   6.919  11.634  0.00  0.00    +0.000 A 
ATOM      5  C   UNL     1      46.089   6.334  11.550  0.00  0.00    +0.000 A 
ATOM      6  C   UNL     1      47.237   7.080  11.827  0.00  0.00    +0.000 A 
ENDROOT
BRANCH   1   7
ATOM      7  C   UNL     1      48.375   9.226  12.503  0.00  0.00    +0.000 C 
BRANCH   7  10
ATOM      8  C   UNL     1      48.977   8.553  14.772  0.00  0.00    +0.000 C 
ATOM      9  O   UNL     1      48.042   9.177  15.262  0.00  0.00    +0.000 OA
ATOM     10  N   UNL     1      49.226   8.516  13.425  0.00  0.00    +0.000 N 
ATOM     11  H   UNL     1      49.998   7.981  13.056  0.00  0.00    +0.000 HD
BRANCH   8  15
ATOM     12  C   UNL     1      52.963   7.183  17.484  0.00  0.00    +0.000 C 
ATOM     13  N   UNL     1      51.672   7.171  16.834  0.00  0.00    +0.000 N 
ATOM     14  C   UNL     1      51.165   8.178  16.052  0.00  0.00    +0.000 A 
ATOM     15  C   UNL     1      49.900   7.799  15.619  0.00  0.00    +0.000 A 
ATOM     16  C   UNL     1      49.655   6.495  16.172  0.00  0.00    +0.000 A 
ATOM     17  C   UNL     1      48.624   5.547  16.149  0.00  0.00    +0.000 A 
ATOM     18  N   UNL     1      48.751   4.389  16.819  0.00  0.00    +0.000 NA
ATOM     19  C   UNL     1      49.891   4.184  17.500  0.00  0.00    +0.000 A 
ATOM     20  N   UNL     1      50.952   5.003  17.605  0.00  0.00    +0.000 NA
ATOM     21  C   UNL     1      50.772   6.144  16.918  0.00  0.00    +0.000 A 
BRANCH  17  22
ATOM     22  O   UNL     1      47.440   5.704  15.473  0.00  0.00    +0.000 OA
ATOM     23  H   UNL     1      46.713   5.478  16.089  0.00  0.00    +0.000 HD
ENDBRANCH  17  22
ENDBRANCH   8  15
ENDBRANCH   7  10
ENDBRANCH   1   7
BRANCH   4  24
ATOM     24  C   UNL     1      43.580   6.082  11.402  0.00  0.00    +0.000 C 
BRANCH  24  25
ATOM     25  N   UNL     1      43.744   5.181  10.263  0.00  0.00    +0.000 NA
ATOM     26  H   UNL     1      44.305   5.669   9.560  0.00  0.00    +0.000 HD
BRANCH  25  27
ATOM     27  CA  UNL     1      44.460   3.926  10.598  0.00  0.00    +0.000 C 
BRANCH  27  28
ATOM     28  C   UNL     1      45.218   3.411   9.373  0.00  0.00    +0.000 A 
ATOM     29  C   UNL     1      45.411   2.033   9.186  0.00  0.00    +0.000 A 
ATOM     30  C   UNL     1      46.107   1.557   8.071  0.00  0.00    +0.000 A 
ATOM     31  C   UNL     1      46.623   2.450   7.132  0.00  0.00    +0.000 A 
ATOM     32  C   UNL     1      46.432   3.817   7.297  0.00  0.00    +0.000 A 
ATOM     33  C   UNL     1      45.725   4.291   8.401  0.00  0.00    +0.000 A 
ENDBRANCH  27  28
BRANCH  27  34
ATOM     34  C   UNL     1      43.515   2.827  11.159  0.00  0.00    +0.000 C 
BRANCH  34  35
ATOM     35  O   UNL     1      43.843   2.458  12.498  0.00  0.00    +0.000 OA
ATOM     36  H   UNL     1      44.794   2.654  12.598  0.00  0.00    +0.000 HD
ENDBRANCH  34  35
ENDBRANCH  27  34
ENDBRANCH  25  27
ENDBRANCH  24  25
ENDBRANCH   4  24
TORSDOF 10
ENDMDL
MODEL 5
REMARK VINA RESULT:    -7.380      2.962      3.873
REMARK INTER + INTRA:         -12.133
REMARK INTER:                 -11.015
REMARK INTRA:                  -1.117
REMARK UNBOUND:                -0.870
REMARK  Name = 
REMARK  11 active torsions:
REMARK  status: ('A' for Active; 'I' for Inactive)
REMARK    1  A    between atoms: C_1  and  N_2
REMARK    2  A    between atoms: C_4  and  C_5
REMARK    3  A    between atoms: N_7  and  C_8
REMARK    4  A    between atoms: C_8  and  C_9
REMARK    5  A    between atoms: C_12  and  C_13
REMARK    6  A    between atoms: C_13  and  N_14
REMARK    7  A    between atoms: N_14  and  CA_15
REMARK    8  A    between atoms: CA_15  and  C_16
REMARK    9  A    between atoms: CA_15  and  C_18
REMARK   10  A    between atoms: C_16  and  O_17
REMARK   11  A    between atoms: C_27  and  O_28
REMARK                            x       y       z     vdW  Elec       q    Type
REMARK                         _______ _______ _______ _____ _____    ______ ____
ROOT
ATOM      1  C   UNL     1      48.631   6.096  15.719  0.00  0.00    +0.000 A 
ATOM      2  C   UNL     1      47.894   4.980  16.135  0.00  0.00    +0.000 A 
ATOM      3  C   UNL     1      47.003   4.352  15.259  0.00  0.00    +0.000 A 
ATOM      4  C   UNL     1      46.836   4.824  13.949  0.00  0.00    +0.000 A 
ATOM      5  C   UNL     1      47.578   5.938  13.536  0.00  0.00    +0.000 A 
ATOM      6  C   UNL     1      48.470   6.564  14.409  0.00  0.00    +0.000 A 
ENDROOT
BRANCH   1   7
ATOM      7  C   UNL     1      49.611   6.755  16.649  0.00  0.00    +0.000 C 
BRANCH   7  10
ATOM      8  C   UNL     1      50.750   5.442  18.364  0.00  0.00    +0.000 C 
ATOM      9  O   UNL     1      49.994   5.838  19.244  0.00  0.00    +0.000 OA
ATOM     10  N   UNL     1      50.645   5.836  17.056  0.00  0.00    +0.000 N 
ATOM     11  H   UNL     1      51.277   5.479  16.355  0.00  0.00    +0.000 HD
BRANCH   8  15
ATOM     12  C   UNL     1      54.950   3.400  20.185  0.00  0.00    +0.000 C 
ATOM     13  N   UNL     1      53.703   3.579  19.475  0.00  0.00    +0.000 N 
ATOM     14  C   UNL     1      52.961   4.732  19.448  0.00  0.00    +0.000 A 
ATOM     15  C   UNL     1      51.831   4.507  18.670  0.00  0.00    +0.000 A 
ATOM     16  C   UNL     1      51.920   3.148  18.211  0.00  0.00    +0.000 A 
ATOM     17  C   UNL     1      51.159   2.281  17.416  0.00  0.00    +0.000 A 
ATOM     18  N   UNL     1      51.571   1.020  17.199  0.00  0.00    +0.000 NA
ATOM     19  C   UNL     1      52.725   0.635  17.769  0.00  0.00    +0.000 A 
ATOM     20  N   UNL     1      53.548   1.359  18.548  0.00  0.00    +0.000 NA
ATOM     21  C   UNL     1      53.088   2.609  18.732  0.00  0.00    +0.000 A 
BRANCH  17  22
ATOM     22  O   UNL     1      49.974   2.620  16.812  0.00  0.00    +0.000 OA
ATOM     23  H   UNL     1      49.305   1.953  17.073  0.00  0.00    +0.000 HD
ENDBRANCH  17  22
ENDBRANCH   8  15
ENDBRANCH   7  10
ENDBRANCH   1   7
BRANCH   4  24
ATOM     24  C   UNL     1      45.926   4.111  12.972  0.00  0.00    +0.000 C 
BRANCH  24  25
ATOM     25  N   UNL     1      45.069   5.051  12.252  0.00  0.00    +0.000 NA
ATOM     26  H   UNL     1      45.668   5.615  11.644  0.00  0.00    +0.000 HD
BRANCH  25  27
ATOM     27  CA  UNL     1      44.064   4.391  11.383  0.00  0.00    +0.000 C 
BRANCH  27  28
ATOM     28  C   UNL     1      44.738   3.845  10.123  0.00  0.00    +0.000 A 
ATOM     29  C   UNL     1      45.350   4.718   9.210  0.00  0.00    +0.000 A 
ATOM     30  C   UNL     1      45.963   4.225   8.055  0.00  0.00    +0.000 A 
ATOM     31  C   UNL     1      45.967   2.854   7.793  0.00  0.00    +0.000 A 
ATOM     32  C   UNL     1      45.374   1.975   8.691  0.00  0.00    +0.000 A 
ATOM     33  C   UNL     1      44.776   2.466   9.851  0.00  0.00    +0.000 A 
ENDBRANCH  27  28
BRANCH  27  34
ATOM     34  C   UNL     1      42.884   5.330  11.009  0.00  0.00    +0.000 C 
BRANCH  34  35
ATOM     35  O   UNL     1      42.376   6.043  12.137  0.00  0.00    +0.000 OA
ATOM     36  H   UNL     1      43.160   6.403  12.593  0.00  0.00    +0.000 HD
ENDBRANCH  34  35
ENDBRANCH  27  34
ENDBRANCH  25  27
ENDBRANCH  24  25
ENDBRANCH   4  24
TORSDOF 10
ENDMDL
MODEL 6
REMARK VINA RESULT:    -7.228      2.684      9.636
REMARK INTER + INTRA:         -11.901
REMARK INTER:                  -9.763
REMARK INTRA:                  -2.138
REMARK UNBOUND:                -0.870
REMARK  Name = 
REMARK  11 active torsions:
REMARK  status: ('A' for Active; 'I' for Inactive)
REMARK    1  A    between atoms: C_1  and  N_2
REMARK    2  A    between atoms: C_4  and  C_5
REMARK    3  A    between atoms: N_7  and  C_8
REMARK    4  A    between atoms: C_8  and  C_9
REMARK    5  A    between atoms: C_12  and  C_13
REMARK    6  A    between atoms: C_13  and  N_14
REMARK    7  A    between atoms: N_14  and  CA_15
REMARK    8  A    between atoms: CA_15  and  C_16
REMARK    9  A    between atoms: CA_15  and  C_18
REMARK   10  A    between atoms: C_16  and  O_17
REMARK   11  A    between atoms: C_27  and  O_28
REMARK                            x       y       z     vdW  Elec       q    Type
REMARK                         _______ _______ _______ _____ _____    ______ ____
ROOT
ATOM      1  C   UNL     1      48.800   3.971  17.013  0.00  0.00    +0.000 A 
ATOM      2  C   UNL     1      49.746   3.115  17.591  0.00  0.00    +0.000 A 
ATOM      3  C   UNL     1      50.985   3.607  18.012  0.00  0.00    +0.000 A 
ATOM      4  C   UNL     1      51.300   4.967  17.869  0.00  0.00    +0.000 A 
ATOM      5  C   UNL     1      50.351   5.820  17.293  0.00  0.00    +0.000 A 
ATOM      6  C   UNL     1      49.112   5.329  16.875  0.00  0.00    +0.000 A 
ENDROOT
BRANCH   1   7
ATOM      7  C   UNL     1      47.457   3.450  16.585  0.00  0.00    +0.000 C 
BRANCH   7  10
ATOM      8  C   UNL     1      46.758   4.147  14.352  0.00  0.00    +0.000 C 
ATOM      9  O   UNL     1      47.275   3.167  13.827  0.00  0.00    +0.000 OA
ATOM     10  N   UNL     1      46.794   4.377  15.702  0.00  0.00    +0.000 N 
ATOM     11  H   UNL     1      46.346   5.188  16.102  0.00  0.00    +0.000 HD
BRANCH   8  15
ATOM     12  C   UNL     1      45.416   8.450  12.161  0.00  0.00    +0.000 C 
ATOM     13  N   UNL     1      45.447   7.062  12.559  0.00  0.00    +0.000 N 
ATOM     14  C   UNL     1      46.352   6.501  13.425  0.00  0.00    +0.000 A 
ATOM     15  C   UNL     1      46.059   5.147  13.547  0.00  0.00    +0.000 A 
ATOM     16  C   UNL     1      44.916   4.903  12.711  0.00  0.00    +0.000 A 
ATOM     17  C   UNL     1      44.113   3.808  12.365  0.00  0.00    +0.000 A 
ATOM     18  N   UNL     1      43.087   3.962  11.510  0.00  0.00    +0.000 NA
ATOM     19  C   UNL     1      42.869   5.191  11.012  0.00  0.00    +0.000 A 
ATOM     20  N   UNL     1      43.557   6.319  11.259  0.00  0.00    +0.000 NA
ATOM     21  C   UNL     1      44.570   6.109  12.117  0.00  0.00    +0.000 A 
BRANCH  17  22
ATOM     22  O   UNL     1      44.291   2.533  12.841  0.00  0.00    +0.000 OA
ATOM     23  H   UNL     1      44.025   2.528  13.784  0.00  0.00    +0.000 HD
ENDBRANCH  17  22
ENDBRANCH   8  15
ENDBRANCH   7  10
ENDBRANCH   1   7
BRANCH   4  24
ATOM     24  C   UNL     1      52.610   5.523  18.383  0.00  0.00    +0.000 C 
BRANCH  24  25
ATOM     25  N   UNL     1      52.737   5.351  19.828  0.00  0.00    +0.000 NA
ATOM     26  H   UNL     1      53.735   5.322  20.051  0.00  0.00    +0.000 HD
BRANCH  25  27
ATOM     27  CA  UNL     1      52.148   6.464  20.613  0.00  0.00    +0.000 C 
BRANCH  27  28
ATOM     28  C   UNL     1      50.645   6.242  20.791  0.00  0.00    +0.000 A 
ATOM     29  C   UNL     1      49.734   7.260  20.467  0.00  0.00    +0.000 A 
ATOM     30  C   UNL     1      48.361   7.065  20.632  0.00  0.00    +0.000 A 
ATOM     31  C   UNL     1      47.878   5.853  21.127  0.00  0.00    +0.000 A 
ATOM     32  C   UNL     1      48.765   4.831  21.444  0.00  0.00    +0.000 A 
ATOM     33  C   UNL     1      50.135   5.021  21.265  0.00  0.00    +0.000 A 
ENDBRANCH  27  28
BRANCH  27  34
ATOM     34  C   UNL     1      52.425   7.856  19.981  0.00  0.00    +0.000 C 
BRANCH  34  35
ATOM     35  O   UNL     1      52.981   8.779  20.918  0.00  0.00    +0.000 OA
ATOM     36  H   UNL     1      53.614   8.261  21.450  0.00  0.00    +0.000 HD
ENDBRANCH  34  35
ENDBRANCH  27  34
ENDBRANCH  25  27
ENDBRANCH  24  25
ENDBRANCH   4  24
TORSDOF 10
ENDMDL
MODEL 7
REMARK VINA RESULT:    -7.149      1.741      2.952
REMARK INTER + INTRA:         -11.781
REMARK INTER:                 -10.678
REMARK INTRA:                  -1.104
REMARK UNBOUND:                -0.870
REMARK  Name = 
REMARK  11 active torsions:
REMARK  status: ('A' for Active; 'I' for Inactive)
REMARK    1  A    between atoms: C_1  and  N_2
REMARK    2  A    between atoms: C_4  and  C_5
REMARK    3  A    between atoms: N_7  and  C_8
REMARK    4  A    between atoms: C_8  and  C_9
REMARK    5  A    between atoms: C_12  and  C_13
REMARK    6  A    between atoms: C_13  and  N_14
REMARK    7  A    between atoms: N_14  and  CA_15
REMARK    8  A    between atoms: CA_15  and  C_16
REMARK    9  A    between atoms: CA_15  and  C_18
REMARK   10  A    between atoms: C_16  and  O_17
REMARK   11  A    between atoms: C_27  and  O_28
REMARK                            x       y       z     vdW  Elec       q    Type
REMARK                         _______ _______ _______ _____ _____    ______ ____
ROOT
ATOM      1  C   UNL     1      47.379   6.735  13.063  0.00  0.00    +0.000 A 
ATOM      2  C   UNL     1      46.612   5.674  13.558  0.00  0.00    +0.000 A 
ATOM      3  C   UNL     1      45.326   5.436  13.065  0.00  0.00    +0.000 A 
ATOM      4  C   UNL     1      44.783   6.253  12.061  0.00  0.00    +0.000 A 
ATOM      5  C   UNL     1      45.554   7.312  11.566  0.00  0.00    +0.000 A 
ATOM      6  C   UNL     1      46.840   7.547  12.057  0.00  0.00    +0.000 A 
ENDROOT
BRANCH   1   7
ATOM      7  C   UNL     1      48.773   6.975  13.571  0.00  0.00    +0.000 C 
BRANCH   7  10
ATOM      8  C   UNL     1      48.792   7.485  15.959  0.00  0.00    +0.000 C 
ATOM      9  O   UNL     1      48.580   8.676  15.760  0.00  0.00    +0.000 OA
ATOM     10  N   UNL     1      48.904   6.568  14.948  0.00  0.00    +0.000 N 
ATOM     11  H   UNL     1      49.065   5.592  15.149  0.00  0.00    +0.000 HD
BRANCH   8  15
ATOM     12  C   UNL     1      48.693   4.511  19.992  0.00  0.00    +0.000 C 
ATOM     13  N   UNL     1      48.903   5.651  19.129  0.00  0.00    +0.000 N 
ATOM     14  C   UNL     1      48.574   5.715  17.799  0.00  0.00    +0.000 A 
ATOM     15  C   UNL     1      48.940   6.967  17.318  0.00  0.00    +0.000 A 
ATOM     16  C   UNL     1      49.510   7.677  18.429  0.00  0.00    +0.000 A 
ATOM     17  C   UNL     1      50.066   8.942  18.663  0.00  0.00    +0.000 A 
ATOM     18  N   UNL     1      50.520   9.269  19.885  0.00  0.00    +0.000 NA
ATOM     19  C   UNL     1      50.418   8.346  20.856  0.00  0.00    +0.000 A 
ATOM     20  N   UNL     1      49.909   7.104  20.769  0.00  0.00    +0.000 NA
ATOM     21  C   UNL     1      49.471   6.830  19.528  0.00  0.00    +0.000 A 
BRANCH  17  22
ATOM     22  O   UNL     1      50.197   9.920  17.709  0.00  0.00    +0.000 OA
ATOM     23  H   UNL     1      49.931   9.535  16.849  0.00  0.00    +0.000 HD
ENDBRANCH  17  22
ENDBRANCH   8  15
ENDBRANCH   7  10
ENDBRANCH   1   7
BRANCH   4  24
ATOM     24  C   UNL     1      43.419   5.964  11.472  0.00  0.00    +0.000 C 
BRANCH  24  25
ATOM     25  N   UNL     1      43.504   5.024  10.356  0.00  0.00    +0.000 NA
ATOM     26  H   UNL     1      43.972   5.502   9.582  0.00  0.00    +0.000 HD
BRANCH  25  27
ATOM     27  CA  UNL     1      44.297   3.809  10.662  0.00  0.00    +0.000 C 
BRANCH  27  28
ATOM     28  C   UNL     1      45.122   3.400   9.441  0.00  0.00    +0.000 A 
ATOM     29  C   UNL     1      45.368   2.044   9.172  0.00  0.00    +0.000 A 
ATOM     30  C   UNL     1      46.125   1.664   8.061  0.00  0.00    +0.000 A 
ATOM     31  C   UNL     1      46.652   2.633   7.206  0.00  0.00    +0.000 A 
ATOM     32  C   UNL     1      46.411   3.979   7.452  0.00  0.00    +0.000 A 
ATOM     33  C   UNL     1      45.642   4.357   8.553  0.00  0.00    +0.000 A 
ENDBRANCH  27  28
BRANCH  27  34
ATOM     34  C   UNL     1      43.418   2.625  11.150  0.00  0.00    +0.000 C 
BRANCH  34  35
ATOM     35  O   UNL     1      43.670   2.284  12.513  0.00  0.00    +0.000 OA
ATOM     36  H   UNL     1      44.581   2.584  12.694  0.00  0.00    +0.000 HD
ENDBRANCH  34  35
ENDBRANCH  27  34
ENDBRANCH  25  27
ENDBRANCH  24  25
ENDBRANCH   4  24
TORSDOF 10
ENDMDL
MODEL 8
REMARK VINA RESULT:    -6.934      2.768      8.416
REMARK INTER + INTRA:         -11.453
REMARK INTER:                 -10.348
REMARK INTRA:                  -1.105
REMARK UNBOUND:                -0.870
REMARK  Name = 
REMARK  11 active torsions:
REMARK  status: ('A' for Active; 'I' for Inactive)
REMARK    1  A    between atoms: C_1  and  N_2
REMARK    2  A    between atoms: C_4  and  C_5
REMARK    3  A    between atoms: N_7  and  C_8
REMARK    4  A    between atoms: C_8  and  C_9
REMARK    5  A    between atoms: C_12  and  C_13
REMARK    6  A    between atoms: C_13  and  N_14
REMARK    7  A    between atoms: N_14  and  CA_15
REMARK    8  A    between atoms: CA_15  and  C_16
REMARK    9  A    between atoms: CA_15  and  C_18
REMARK   10  A    between atoms: C_16  and  O_17
REMARK   11  A    between atoms: C_27  and  O_28
REMARK                            x       y       z     vdW  Elec       q    Type
REMARK                         _______ _______ _______ _____ _____    ______ ____
ROOT
ATOM      1  C   UNL     1      48.827   7.929  13.301  0.00  0.00    +0.000 A 
ATOM      2  C   UNL     1      50.217   8.034  13.428  0.00  0.00    +0.000 A 
ATOM      3  C   UNL     1      50.853   7.644  14.611  0.00  0.00    +0.000 A 
ATOM      4  C   UNL     1      50.111   7.135  15.688  0.00  0.00    +0.000 A 
ATOM      5  C   UNL     1      48.721   7.030  15.556  0.00  0.00    +0.000 A 
ATOM      6  C   UNL     1      48.086   7.416  14.373  0.00  0.00    +0.000 A 
ENDROOT
BRANCH   1   7
ATOM      7  C   UNL     1      48.144   8.321  12.021  0.00  0.00    +0.000 C 
BRANCH   7  10
ATOM      8  C   UNL     1      46.157   7.022  11.447  0.00  0.00    +0.000 C 
ATOM      9  O   UNL     1      45.412   7.812  12.017  0.00  0.00    +0.000 OA
ATOM     10  N   UNL     1      47.516   7.184  11.395  0.00  0.00    +0.000 N 
ATOM     11  H   UNL     1      48.099   6.521  10.905  0.00  0.00    +0.000 HD
BRANCH   8  15
ATOM     12  C   UNL     1      45.042   3.555   8.004  0.00  0.00    +0.000 C 
ATOM     13  N   UNL     1      45.116   4.278   9.253  0.00  0.00    +0.000 N 
ATOM     14  C   UNL     1      45.774   5.466   9.447  0.00  0.00    +0.000 A 
ATOM     15  C   UNL     1      45.623   5.836  10.779  0.00  0.00    +0.000 A 
ATOM     16  C   UNL     1      44.828   4.812  11.397  0.00  0.00    +0.000 A 
ATOM     17  C   UNL     1      44.307   4.544  12.670  0.00  0.00    +0.000 A 
ATOM     18  N   UNL     1      43.580   3.434  12.887  0.00  0.00    +0.000 NA
ATOM     19  C   UNL     1      43.379   2.607  11.847  0.00  0.00    +0.000 A 
ATOM     20  N   UNL     1      43.818   2.742  10.583  0.00  0.00    +0.000 NA
ATOM     21  C   UNL     1      44.538   3.867  10.422  0.00  0.00    +0.000 A 
BRANCH  17  22
ATOM     22  O   UNL     1      44.483   5.351  13.766  0.00  0.00    +0.000 OA
ATOM     23  H   UNL     1      45.308   5.071  14.212  0.00  0.00    +0.000 HD
ENDBRANCH  17  22
ENDBRANCH   8  15
ENDBRANCH   7  10
ENDBRANCH   1   7
BRANCH   4  24
ATOM     24  C   UNL     1      50.795   6.647  16.946  0.00  0.00    +0.000 C 
BRANCH  24  25
ATOM     25  N   UNL     1      51.258   5.268  16.806  0.00  0.00    +0.000 NA
ATOM     26  H   UNL     1      52.280   5.285  16.769  0.00  0.00    +0.000 HD
BRANCH  25  27
ATOM     27  CA  UNL     1      50.878   4.396  17.944  0.00  0.00    +0.000 C 
BRANCH  27  28
ATOM     28  C   UNL     1      51.817   3.191  18.018  0.00  0.00    +0.000 A 
ATOM     29  C   UNL     1      53.038   3.284  18.704  0.00  0.00    +0.000 A 
ATOM     30  C   UNL     1      53.903   2.188  18.771  0.00  0.00    +0.000 A 
ATOM     31  C   UNL     1      53.562   0.986  18.150  0.00  0.00    +0.000 A 
ATOM     32  C   UNL     1      52.352   0.874  17.475  0.00  0.00    +0.000 A 
ATOM     33  C   UNL     1      51.483   1.963  17.421  0.00  0.00    +0.000 A 
ENDBRANCH  27  28
BRANCH  27  34
ATOM     34  C   UNL     1      49.396   3.931  17.876  0.00  0.00    +0.000 C 
BRANCH  34  35
ATOM     35  O   UNL     1      48.942   3.753  16.534  0.00  0.00    +0.000 OA
ATOM     36  H   UNL     1      48.455   2.908  16.532  0.00  0.00    +0.000 HD
ENDBRANCH  34  35
ENDBRANCH  27  34
ENDBRANCH  25  27
ENDBRANCH  24  25
ENDBRANCH   4  24
TORSDOF 10
ENDMDL
MODEL 9
REMARK VINA RESULT:    -6.597      2.912      9.619
REMARK INTER + INTRA:         -10.938
REMARK INTER:                  -8.826
REMARK INTRA:                  -2.112
REMARK UNBOUND:                -0.870
REMARK  Name = 
REMARK  11 active torsions:
REMARK  status: ('A' for Active; 'I' for Inactive)
REMARK    1  A    between atoms: C_1  and  N_2
REMARK    2  A    between atoms: C_4  and  C_5
REMARK    3  A    between atoms: N_7  and  C_8
REMARK    4  A    between atoms: C_8  and  C_9
REMARK    5  A    between atoms: C_12  and  C_13
REMARK    6  A    between atoms: C_13  and  N_14
REMARK    7  A    between atoms: N_14  and  CA_15
REMARK    8  A    between atoms: CA_15  and  C_16
REMARK    9  A    between atoms: CA_15  and  C_18
REMARK   10  A    between atoms: C_16  and  O_17
REMARK   11  A    between atoms: C_27  and  O_28
REMARK                            x       y       z     vdW  Elec       q    Type
REMARK                         _______ _______ _______ _____ _____    ______ ____
ROOT
ATOM      1  C   UNL     1      48.671   4.086  17.044  0.00  0.00    +0.000 A 
ATOM      2  C   UNL     1      49.763   3.314  17.459  0.00  0.00    +0.000 A 
ATOM      3  C   UNL     1      50.968   3.924  17.819  0.00  0.00    +0.000 A 
ATOM      4  C   UNL     1      51.104   5.320  17.777  0.00  0.00    +0.000 A 
ATOM      5  C   UNL     1      50.009   6.089  17.365  0.00  0.00    +0.000 A 
ATOM      6  C   UNL     1      48.803   5.480  17.008  0.00  0.00    +0.000 A 
ENDROOT
BRANCH   1   7
ATOM      7  C   UNL     1      47.365   3.435  16.684  0.00  0.00    +0.000 C 
BRANCH   7  10
ATOM      8  C   UNL     1      46.684   4.027  14.415  0.00  0.00    +0.000 C 
ATOM      9  O   UNL     1      47.377   3.145  13.920  0.00  0.00    +0.000 OA
ATOM     10  N   UNL     1      46.611   4.251  15.765  0.00  0.00    +0.000 N 
ATOM     11  H   UNL     1      46.019   4.977  16.139  0.00  0.00    +0.000 HD
BRANCH   8  15
ATOM     12  C   UNL     1      42.983   5.909  11.606  0.00  0.00    +0.000 C 
ATOM     13  N   UNL     1      44.235   5.765  12.315  0.00  0.00    +0.000 N 
ATOM     14  C   UNL     1      44.621   4.661  13.033  0.00  0.00    +0.000 A 
ATOM     15  C   UNL     1      45.878   4.909  13.572  0.00  0.00    +0.000 A 
ATOM     16  C   UNL     1      46.252   6.228  13.140  0.00  0.00    +0.000 A 
ATOM     17  C   UNL     1      47.345   7.090  13.300  0.00  0.00    +0.000 A 
ATOM     18  N   UNL     1      47.341   8.306  12.728  0.00  0.00    +0.000 NA
ATOM     19  C   UNL     1      46.261   8.652  12.007  0.00  0.00    +0.000 A 
ATOM     20  N   UNL     1      45.153   7.927  11.773  0.00  0.00    +0.000 NA
ATOM     21  C   UNL     1      45.210   6.723  12.369  0.00  0.00    +0.000 A 
BRANCH  17  22
ATOM     22  O   UNL     1      48.471   6.789  14.026  0.00  0.00    +0.000 OA
ATOM     23  H   UNL     1      48.976   6.116  13.526  0.00  0.00    +0.000 HD
ENDBRANCH  17  22
ENDBRANCH   8  15
ENDBRANCH   7  10
ENDBRANCH   1   7
BRANCH   4  24
ATOM     24  C   UNL     1      52.380   5.994  18.230  0.00  0.00    +0.000 C 
BRANCH  24  25
ATOM     25  N   UNL     1      52.643   5.754  19.647  0.00  0.00    +0.000 NA
ATOM     26  H   UNL     1      53.653   5.822  19.792  0.00  0.00    +0.000 HD
BRANCH  25  27
ATOM     27  CA  UNL     1      52.006   6.748  20.546  0.00  0.00    +0.000 C 
BRANCH  27  28
ATOM     28  C   UNL     1      50.538   6.383  20.775  0.00  0.00    +0.000 A 
ATOM     29  C   UNL     1      49.532   7.346  20.599  0.00  0.00    +0.000 A 
ATOM     30  C   UNL     1      48.190   7.020  20.811  0.00  0.00    +0.000 A 
ATOM     31  C   UNL     1      47.835   5.730  21.208  0.00  0.00    +0.000 A 
ATOM     32  C   UNL     1      48.818   4.762  21.377  0.00  0.00    +0.000 A 
ATOM     33  C   UNL     1      50.155   5.083  21.150  0.00  0.00    +0.000 A 
ENDBRANCH  27  28
BRANCH  27  34
ATOM     34  C   UNL     1      52.132   8.203  20.016  0.00  0.00    +0.000 C 
BRANCH  34  35
ATOM     35  O   UNL     1      52.559   9.116  21.028  0.00  0.00    +0.000 OA
ATOM     36  H   UNL     1      52.392  10.006  20.665  0.00  0.00    +0.000 HD
ENDBRANCH  34  35
ENDBRANCH  27  34
ENDBRANCH  25  27
ENDBRANCH  24  25
ENDBRANCH   4  24
TORSDOF 10
ENDMDL
