MODEL 1
REMARK VINA RESULT:    -7.306      0.000      0.000
REMARK INTER + INTRA:         -11.173
REMARK INTER:                 -10.296
REMARK INTRA:                  -0.877
REMARK UNBOUND:                -0.877
REMARK  Name = 
REMARK  7 active torsions:
REMARK  status: ('A' for Active; 'I' for Inactive)
REMARK    1  A    between atoms: C_2  and  C_4
REMARK    2  A    between atoms: C_7  and  C_8
REMARK    3  A    between atoms: C_8  and  C_9
REMARK    4  A    between atoms: C_9  and  N_10
REMARK    5  A    between atoms: N_10  and  C_11
REMARK    6  A    between atoms: C_15  and  C_16
REMARK    7  A    between atoms: C_16  and  C_17
REMARK                            x       y       z     vdW  Elec       q    Type
REMARK                         _______ _______ _______ _____ _____    ______ ____
ROOT
ATOM      1  C   UNL     1      43.269   5.033  10.935  0.00  0.00    +0.000 C 
ENDROOT
BRANCH   1   2
ATOM      2  N   UNL     1      43.562   5.535  12.286  0.00  0.00    +0.000 N 
ATOM      3  H   UNL     1      43.077   6.411  12.463  0.00  0.00    +0.000 HD
BRANCH   2   4
ATOM      4  C   UNL     1      44.923   5.659  12.631  0.00  0.00    +0.000 A 
ATOM      5  C   UNL     1      45.758   6.654  12.111  0.00  0.00    +0.000 A 
ATOM      6  C   UNL     1      47.111   6.720  12.455  0.00  0.00    +0.000 A 
ATOM      7  C   UNL     1      47.655   5.790  13.335  0.00  0.00    +0.000 A 
ATOM      8  C   UNL     1      46.856   4.768  13.857  0.00  0.00    +0.000 A 
ATOM      9  C   UNL     1      45.508   4.689  13.461  0.00  0.00    +0.000 A 
BRANCH   8  10
ATOM     10  C   UNL     1      47.410   3.798  14.870  0.00  0.00    +0.000 C 
BRANCH  10  11
ATOM     11  C   UNL     1      47.130   4.256  16.290  0.00  0.00    +0.000 C 
ATOM     12  C   UNL     1      48.309   4.992  16.938  0.00  0.00    +0.000 C 
ATOM     13  O   UNL     1      48.338   4.073  18.051  0.00  0.00    +0.000 OA
ATOM     14  C   UNL     1      47.330   3.244  17.427  0.00  0.00    +0.000 C 
ENDBRANCH  10  11
ENDBRANCH   8  10
ENDBRANCH   2   4
ENDBRANCH   1   2
BRANCH   1  15
ATOM     15  C   UNL     1      43.585   3.540  10.802  0.00  0.00    +0.000 C 
BRANCH  15  19
ATOM     16  C   UNL     1      46.401   2.796   7.691  0.00  0.00    +0.000 A 
ATOM     17  C   UNL     1      45.982   4.107   7.919  0.00  0.00    +0.000 A 
ATOM     18  C   UNL     1      45.056   4.363   8.930  0.00  0.00    +0.000 A 
ATOM     19  C   UNL     1      44.578   3.302   9.691  0.00  0.00    +0.000 A 
ATOM     20  N   UNL     1      44.951   2.018   9.462  0.00  0.00    +0.000 NA
ATOM     21  C   UNL     1      45.846   1.790   8.468  0.00  0.00    +0.000 A 
BRANCH  16  23
ATOM     22  N   UNL     1      47.426   3.209   5.530  0.00  0.00    +0.000 N 
ATOM     23  C   UNL     1      47.392   2.436   6.658  0.00  0.00    +0.000 C 
ATOM     24  O   UNL     1      48.178   1.512   6.816  0.00  0.00    +0.000 OA
ATOM     25  H   UNL     1      48.180   3.022   4.881  0.00  0.00    +0.000 HD
ATOM     26  H   UNL     1      46.980   4.115   5.476  0.00  0.00    +0.000 HD
ENDBRANCH  16  23
ENDBRANCH  15  19
ENDBRANCH   1  15
TORSDOF 7
ENDMDL
MODEL 2
REMARK VINA RESULT:    -7.262      3.687      5.190
REMARK INTER + INTRA:         -11.110
REMARK INTER:                 -10.133
REMARK INTRA:                  -0.977
REMARK UNBOUND:                -0.877
REMARK  Name = 
REMARK  7 active torsions:
REMARK  status: ('A' for Active; 'I' for Inactive)
REMARK    1  A    between atoms: C_2  and  C_4
REMARK    2  A    between atoms: C_7  and  C_8
REMARK    3  A    between atoms: C_8  and  C_9
REMARK    4  A    between atoms: C_9  and  N_10
REMARK    5  A    between atoms: N_10  and  C_11
REMARK    6  A    between atoms: C_15  and  C_16
REMARK    7  A    between atoms: C_16  and  C_17
REMARK                            x       y       z     vdW  Elec       q    Type
REMARK                         _______ _______ _______ _____ _____    ______ ____
ROOT
ATOM      1  C   UNL     1      44.338   4.894  11.474  0.00  0.00    +0.000 C 
ENDROOT
BRANCH   1   2
ATOM      2  N   UNL     1      45.771   5.210  11.372  0.00  0.00    +0.000 N 
ATOM      3  H   UNL     1      46.324   4.591  11.959  0.00  0.00    +0.000 HD
BRANCH   2   4
ATOM      4  C   UNL     1      46.138   6.551  11.606  0.00  0.00    +0.000 A 
ATOM      5  C   UNL     1      47.446   6.947  11.905  0.00  0.00    +0.000 A 
ATOM      6  C   UNL     1      47.759   8.284  12.164  0.00  0.00    +0.000 A 
ATOM      7  C   UNL     1      46.764   9.256  12.120  0.00  0.00    +0.000 A 
ATOM      8  C   UNL     1      45.442   8.894  11.847  0.00  0.00    +0.000 A 
ATOM      9  C   UNL     1      45.138   7.536  11.637  0.00  0.00    +0.000 A 
BRANCH   8  10
ATOM     10  C   UNL     1      44.366   9.944  11.721  0.00  0.00    +0.000 C 
BRANCH  10  11
ATOM     11  C   UNL     1      43.406   9.624  10.590  0.00  0.00    +0.000 C 
ATOM     12  C   UNL     1      43.520  10.587   9.401  0.00  0.00    +0.000 C 
ATOM     13  O   UNL     1      42.119  10.928   9.476  0.00  0.00    +0.000 OA
ATOM     14  C   UNL     1      41.969  10.157  10.691  0.00  0.00    +0.000 C 
ENDBRANCH  10  11
ENDBRANCH   8  10
ENDBRANCH   2   4
ENDBRANCH   1   2
BRANCH   1  15
ATOM     15  C   UNL     1      43.728   4.573  10.107  0.00  0.00    +0.000 C 
BRANCH  15  19
ATOM     16  C   UNL     1      46.497   2.464   7.650  0.00  0.00    +0.000 A 
ATOM     17  C   UNL     1      45.727   1.745   8.564  0.00  0.00    +0.000 A 
ATOM     18  C   UNL     1      44.822   2.424   9.378  0.00  0.00    +0.000 A 
ATOM     19  C   UNL     1      44.705   3.804   9.253  0.00  0.00    +0.000 A 
ATOM     20  N   UNL     1      45.468   4.522   8.390  0.00  0.00    +0.000 NA
ATOM     21  C   UNL     1      46.349   3.842   7.614  0.00  0.00    +0.000 A 
BRANCH  16  23
ATOM     22  N   UNL     1      48.584   2.542   6.411  0.00  0.00    +0.000 N 
ATOM     23  C   UNL     1      47.465   1.825   6.735  0.00  0.00    +0.000 C 
ATOM     24  O   UNL     1      47.297   0.688   6.315  0.00  0.00    +0.000 OA
ATOM     25  H   UNL     1      49.289   2.053   5.875  0.00  0.00    +0.000 HD
ATOM     26  H   UNL     1      48.876   3.360   6.928  0.00  0.00    +0.000 HD
ENDBRANCH  16  23
ENDBRANCH  15  19
ENDBRANCH   1  15
TORSDOF 7
ENDMDL
MODEL 3
REMARK VINA RESULT:    -7.086      2.341      3.617
REMARK INTER + INTRA:         -10.862
REMARK INTER:                  -9.918
REMARK INTRA:                  -0.944
REMARK UNBOUND:                -0.877
REMARK  Name = 
REMARK  7 active torsions:
REMARK  status: ('A' for Active; 'I' for Inactive)
REMARK    1  A    between atoms: C_2  and  C_4
REMARK    2  A    between atoms: C_7  and  C_8
REMARK    3  A    between atoms: C_8  and  C_9
REMARK    4  A    between atoms: C_9  and  N_10
REMARK    5  A    between atoms: N_10  and  C_11
REMARK    6  A    between atoms: C_15  and  C_16
REMARK    7  A    between atoms: C_16  and  C_17
REMARK                            x       y       z     vdW  Elec       q    Type
REMARK                         _______ _______ _______ _____ _____    ______ ____
ROOT
ATOM      1  C   UNL     1      43.482   4.653  10.622  0.00  0.00    +0.000 C 
ENDROOT
BRANCH   1   2
ATOM      2  N   UNL     1      43.637   5.252  11.956  0.00  0.00    +0.000 N 
ATOM      3  H   UNL     1      43.146   6.141  12.016  0.00  0.00    +0.000 HD
BRANCH   2   4
ATOM      4  C   UNL     1      44.957   5.398  12.432  0.00  0.00    +0.000 A 
ATOM      5  C   UNL     1      45.445   4.723  13.556  0.00  0.00    +0.000 A 
ATOM      6  C   UNL     1      46.750   4.923  14.013  0.00  0.00    +0.000 A 
ATOM      7  C   UNL     1      47.598   5.802  13.346  0.00  0.00    +0.000 A 
ATOM      8  C   UNL     1      47.136   6.511  12.232  0.00  0.00    +0.000 A 
ATOM      9  C   UNL     1      45.804   6.333  11.817  0.00  0.00    +0.000 A 
BRANCH   8  10
ATOM     10  C   UNL     1      48.064   7.409  11.453  0.00  0.00    +0.000 C 
BRANCH  10  11
ATOM     11  C   UNL     1      48.489   8.615  12.272  0.00  0.00    +0.000 C 
ATOM     12  C   UNL     1      47.430   9.723  12.321  0.00  0.00    +0.000 C 
ATOM     13  O   UNL     1      48.356  10.703  11.805  0.00  0.00    +0.000 OA
ATOM     14  C   UNL     1      49.357   9.682  11.589  0.00  0.00    +0.000 C 
ENDBRANCH  10  11
ENDBRANCH   8  10
ENDBRANCH   2   4
ENDBRANCH   1   2
BRANCH   1  15
ATOM     15  C   UNL     1      43.959   3.198  10.593  0.00  0.00    +0.000 C 
BRANCH  15  19
ATOM     16  C   UNL     1      46.583   2.463   7.317  0.00  0.00    +0.000 A 
ATOM     17  C   UNL     1      46.131   3.765   7.537  0.00  0.00    +0.000 A 
ATOM     18  C   UNL     1      45.268   4.017   8.602  0.00  0.00    +0.000 A 
ATOM     19  C   UNL     1      44.882   2.963   9.424  0.00  0.00    +0.000 A 
ATOM     20  N   UNL     1      45.287   1.687   9.204  0.00  0.00    +0.000 NA
ATOM     21  C   UNL     1      46.121   1.462   8.157  0.00  0.00    +0.000 A 
BRANCH  16  23
ATOM     22  N   UNL     1      48.763   2.666   6.267  0.00  0.00    +0.000 N 
ATOM     23  C   UNL     1      47.514   2.108   6.227  0.00  0.00    +0.000 C 
ATOM     24  O   UNL     1      47.201   1.319   5.347  0.00  0.00    +0.000 OA
ATOM     25  H   UNL     1      49.425   2.330   5.580  0.00  0.00    +0.000 HD
ATOM     26  H   UNL     1      49.136   3.108   7.096  0.00  0.00    +0.000 HD
ENDBRANCH  16  23
ENDBRANCH  15  19
ENDBRANCH   1  15
TORSDOF 7
ENDMDL
MODEL 4
REMARK VINA RESULT:    -7.016      2.172      8.074
REMARK INTER + INTRA:         -10.764
REMARK INTER:                 -10.035
REMARK INTRA:                  -0.729
REMARK UNBOUND:                -0.877
REMARK  Name = 
REMARK  7 active torsions:
REMARK  status: ('A' for Active; 'I' for Inactive)
REMARK    1  A    between atoms: C_2  and  C_4
REMARK    2  A    between atoms: C_7  and  C_8
REMARK    3  A    between atoms: C_8  and  C_9
REMARK    4  A    between atoms: C_9  and  N_10
REMARK    5  A    between atoms: N_10  and  C_11
REMARK    6  A    between atoms: C_15  and  C_16
REMARK    7  A    between atoms: C_16  and  C_17
REMARK                            x       y       z     vdW  Elec       q    Type
REMARK                         _______ _______ _______ _____ _____    ______ ____
ROOT
ATOM      1  C   UNL     1      45.559   6.420  12.123  0.00  0.00    +0.000 C 
ENDROOT
BRANCH   1   2
ATOM      2  N   UNL     1      45.207   6.323  10.698  0.00  0.00    +0.000 N 
ATOM      3  H   UNL     1      44.393   6.894  10.484  0.00  0.00    +0.000 HD
BRANCH   2   4
ATOM      4  C   UNL     1      45.036   5.024  10.178  0.00  0.00    +0.000 A 
ATOM      5  C   UNL     1      44.447   3.980  10.900  0.00  0.00    +0.000 A 
ATOM      6  C   UNL     1      44.328   2.698  10.358  0.00  0.00    +0.000 A 
ATOM      7  C   UNL     1      44.793   2.437   9.072  0.00  0.00    +0.000 A 
ATOM      8  C   UNL     1      45.408   3.450   8.330  0.00  0.00    +0.000 A 
ATOM      9  C   UNL     1      45.563   4.721   8.912  0.00  0.00    +0.000 A 
BRANCH   8  10
ATOM     10  C   UNL     1      45.848   3.203   6.909  0.00  0.00    +0.000 C 
BRANCH  10  11
ATOM     11  C   UNL     1      47.274   2.686   6.850  0.00  0.00    +0.000 C 
ATOM     12  C   UNL     1      47.801   2.510   5.419  0.00  0.00    +0.000 C 
ATOM     13  O   UNL     1      48.114   1.120   5.651  0.00  0.00    +0.000 OA
ATOM     14  C   UNL     1      47.498   1.171   6.959  0.00  0.00    +0.000 C 
ENDBRANCH  10  11
ENDBRANCH   8  10
ENDBRANCH   2   4
ENDBRANCH   1   2
BRANCH   1  15
ATOM     15  C   UNL     1      47.062   6.234  12.352  0.00  0.00    +0.000 C 
BRANCH  15  19
ATOM     16  C   UNL     1      47.878   4.729  16.254  0.00  0.00    +0.000 A 
ATOM     17  C   UNL     1      46.855   4.143  15.508  0.00  0.00    +0.000 A 
ATOM     18  C   UNL     1      46.574   4.630  14.232  0.00  0.00    +0.000 A 
ATOM     19  C   UNL     1      47.327   5.687  13.732  0.00  0.00    +0.000 A 
ATOM     20  N   UNL     1      48.305   6.288  14.456  0.00  0.00    +0.000 NA
ATOM     21  C   UNL     1      48.556   5.804  15.698  0.00  0.00    +0.000 A 
BRANCH  16  23
ATOM     22  N   UNL     1      47.609   3.163  18.090  0.00  0.00    +0.000 N 
ATOM     23  C   UNL     1      48.257   4.265  17.603  0.00  0.00    +0.000 C 
ATOM     24  O   UNL     1      49.141   4.814  18.246  0.00  0.00    +0.000 OA
ATOM     25  H   UNL     1      47.954   2.790  18.965  0.00  0.00    +0.000 HD
ATOM     26  H   UNL     1      47.070   2.544  17.500  0.00  0.00    +0.000 HD
ENDBRANCH  16  23
ENDBRANCH  15  19
ENDBRANCH   1  15
TORSDOF 7
ENDMDL
MODEL 5
REMARK VINA RESULT:    -6.960      3.139      3.916
REMARK INTER + INTRA:         -10.685
REMARK INTER:                  -9.746
REMARK INTRA:                  -0.939
REMARK UNBOUND:                -0.877
REMARK  Name = 
REMARK  7 active torsions:
REMARK  status: ('A' for Active; 'I' for Inactive)
REMARK    1  A    between atoms: C_2  and  C_4
REMARK    2  A    between atoms: C_7  and  C_8
REMARK    3  A    between atoms: C_8  and  C_9
REMARK    4  A    between atoms: C_9  and  N_10
REMARK    5  A    between atoms: N_10  and  C_11
REMARK    6  A    between atoms: C_15  and  C_16
REMARK    7  A    between atoms: C_16  and  C_17
REMARK                            x       y       z     vdW  Elec       q    Type
REMARK                         _______ _______ _______ _____ _____    ______ ____
ROOT
ATOM      1  C   UNL     1      44.535   4.670  11.553  0.00  0.00    +0.000 C 
ENDROOT
BRANCH   1   2
ATOM      2  N   UNL     1      45.928   5.143  11.531  0.00  0.00    +0.000 N 
ATOM      3  H   UNL     1      46.530   4.529  12.074  0.00  0.00    +0.000 HD
BRANCH   2   4
ATOM      4  C   UNL     1      46.144   6.485  11.905  0.00  0.00    +0.000 A 
ATOM      5  C   UNL     1      45.170   7.274  12.526  0.00  0.00    +0.000 A 
ATOM      6  C   UNL     1      45.416   8.611  12.849  0.00  0.00    +0.000 A 
ATOM      7  C   UNL     1      46.651   9.184  12.562  0.00  0.00    +0.000 A 
ATOM      8  C   UNL     1      47.640   8.432  11.921  0.00  0.00    +0.000 A 
ATOM      9  C   UNL     1      47.357   7.102  11.559  0.00  0.00    +0.000 A 
BRANCH   8  10
ATOM     10  C   UNL     1      49.009   9.015  11.670  0.00  0.00    +0.000 C 
BRANCH  10  11
ATOM     11  C   UNL     1      50.105   8.007  11.963  0.00  0.00    +0.000 C 
ATOM     12  C   UNL     1      50.994   8.399  13.150  0.00  0.00    +0.000 C 
ATOM     13  O   UNL     1      52.190   8.324  12.346  0.00  0.00    +0.000 OA
ATOM     14  C   UNL     1      51.406   8.099  11.152  0.00  0.00    +0.000 C 
ENDBRANCH  10  11
ENDBRANCH   8  10
ENDBRANCH   2   4
ENDBRANCH   1   2
BRANCH   1  15
ATOM     15  C   UNL     1      43.949   4.558  10.143  0.00  0.00    +0.000 C 
BRANCH  15  19
ATOM     16  C   UNL     1      46.587   2.450   7.544  0.00  0.00    +0.000 A 
ATOM     17  C   UNL     1      45.821   1.725   8.457  0.00  0.00    +0.000 A 
ATOM     18  C   UNL     1      44.959   2.403   9.317  0.00  0.00    +0.000 A 
ATOM     19  C   UNL     1      44.880   3.790   9.238  0.00  0.00    +0.000 A 
ATOM     20  N   UNL     1      45.640   4.512   8.378  0.00  0.00    +0.000 NA
ATOM     21  C   UNL     1      46.478   3.832   7.556  0.00  0.00    +0.000 A 
BRANCH  16  23
ATOM     22  N   UNL     1      48.646   2.504   6.258  0.00  0.00    +0.000 N 
ATOM     23  C   UNL     1      47.510   1.814   6.583  0.00  0.00    +0.000 C 
ATOM     24  O   UNL     1      47.293   0.700   6.125  0.00  0.00    +0.000 OA
ATOM     25  H   UNL     1      49.321   2.011   5.687  0.00  0.00    +0.000 HD
ATOM     26  H   UNL     1      48.979   3.290   6.798  0.00  0.00    +0.000 HD
ENDBRANCH  16  23
ENDBRANCH  15  19
ENDBRANCH   1  15
TORSDOF 7
ENDMDL
MODEL 6
REMARK VINA RESULT:    -6.865      1.509      2.108
REMARK INTER + INTRA:         -10.551
REMARK INTER:                  -9.717
REMARK INTRA:                  -0.834
REMARK UNBOUND:                -0.877
REMARK  Name = 
REMARK  7 active torsions:
REMARK  status: ('A' for Active; 'I' for Inactive)
REMARK    1  A    between atoms: C_2  and  C_4
REMARK    2  A    between atoms: C_7  and  C_8
REMARK    3  A    between atoms: C_8  and  C_9
REMARK    4  A    between atoms: C_9  and  N_10
REMARK    5  A    between atoms: N_10  and  C_11
REMARK    6  A    between atoms: C_15  and  C_16
REMARK    7  A    between atoms: C_16  and  C_17
REMARK                            x       y       z     vdW  Elec       q    Type
REMARK                         _______ _______ _______ _____ _____    ______ ____
ROOT
ATOM      1  C   UNL     1      44.244   5.513  10.812  0.00  0.00    +0.000 C 
ENDROOT
BRANCH   1   2
ATOM      2  N   UNL     1      45.489   5.263  11.554  0.00  0.00    +0.000 N 
ATOM      3  H   UNL     1      45.399   4.445  12.153  0.00  0.00    +0.000 HD
BRANCH   2   4
ATOM      4  C   UNL     1      46.012   6.345  12.292  0.00  0.00    +0.000 A 
ATOM      5  C   UNL     1      45.379   7.590  12.379  0.00  0.00    +0.000 A 
ATOM      6  C   UNL     1      45.949   8.646  13.093  0.00  0.00    +0.000 A 
ATOM      7  C   UNL     1      47.168   8.473  13.743  0.00  0.00    +0.000 A 
ATOM      8  C   UNL     1      47.840   7.250  13.658  0.00  0.00    +0.000 A 
ATOM      9  C   UNL     1      47.273   6.214  12.894  0.00  0.00    +0.000 A 
BRANCH   8  10
ATOM     10  C   UNL     1      49.123   7.022  14.418  0.00  0.00    +0.000 C 
BRANCH  10  11
ATOM     11  C   UNL     1      48.863   6.807  15.898  0.00  0.00    +0.000 C 
ATOM     12  C   UNL     1      50.126   6.458  16.695  0.00  0.00    +0.000 C 
ATOM     13  O   UNL     1      49.536   5.237  17.192  0.00  0.00    +0.000 OA
ATOM     14  C   UNL     1      48.375   5.424  16.351  0.00  0.00    +0.000 C 
ENDBRANCH  10  11
ENDBRANCH   8  10
ENDBRANCH   2   4
ENDBRANCH   1   2
BRANCH   1  15
ATOM     15  C   UNL     1      43.678   4.228  10.200  0.00  0.00    +0.000 C 
BRANCH  15  19
ATOM     16  C   UNL     1      46.542   2.465   7.582  0.00  0.00    +0.000 A 
ATOM     17  C   UNL     1      45.854   1.645   8.477  0.00  0.00    +0.000 A 
ATOM     18  C   UNL     1      44.919   2.210   9.343  0.00  0.00    +0.000 A 
ATOM     19  C   UNL     1      44.691   3.581   9.288  0.00  0.00    +0.000 A 
ATOM     20  N   UNL     1      45.373   4.397   8.445  0.00  0.00    +0.000 NA
ATOM     21  C   UNL     1      46.284   3.827   7.617  0.00  0.00    +0.000 A 
BRANCH  16  23
ATOM     22  N   UNL     1      48.629   2.731   6.370  0.00  0.00    +0.000 N 
ATOM     23  C   UNL     1      47.533   1.950   6.617  0.00  0.00    +0.000 C 
ATOM     24  O   UNL     1      47.405   0.854   6.088  0.00  0.00    +0.000 OA
ATOM     25  H   UNL     1      49.351   2.319   5.794  0.00  0.00    +0.000 HD
ATOM     26  H   UNL     1      48.892   3.504   6.965  0.00  0.00    +0.000 HD
ENDBRANCH  16  23
ENDBRANCH  15  19
ENDBRANCH   1  15
TORSDOF 7
ENDMDL
MODEL 7
REMARK VINA RESULT:    -6.565      2.152      2.493
REMARK INTER + INTRA:         -10.128
REMARK INTER:                  -9.208
REMARK INTRA:                  -0.921
REMARK UNBOUND:                -0.877
REMARK  Name = 
REMARK  7 active torsions:
REMARK  status: ('A' for Active; 'I' for Inactive)
REMARK    1  A    between atoms: C_2  and  C_4
REMARK    2  A    between atoms: C_7  and  C_8
REMARK    3  A    between atoms: C_8  and  C_9
REMARK    4  A    between atoms: C_9  and  N_10
REMARK    5  A    between atoms: N_10  and  C_11
REMARK    6  A    between atoms: C_15  and  C_16
REMARK    7  A    between atoms: C_16  and  C_17
REMARK                            x       y       z     vdW  Elec       q    Type
REMARK                         _______ _______ _______ _____ _____    ______ ____
ROOT
ATOM      1  C   UNL     1      44.530   3.448  12.324  0.00  0.00    +0.000 C 
ENDROOT
BRANCH   1   2
ATOM      2  N   UNL     1      44.352   4.660  13.139  0.00  0.00    +0.000 N 
ATOM      3  H   UNL     1      43.372   4.928  13.184  0.00  0.00    +0.000 HD
BRANCH   2   4
ATOM      4  C   UNL     1      45.142   5.775  12.791  0.00  0.00    +0.000 A 
ATOM      5  C   UNL     1      44.644   6.878  12.089  0.00  0.00    +0.000 A 
ATOM      6  C   UNL     1      45.472   7.946  11.735  0.00  0.00    +0.000 A 
ATOM      7  C   UNL     1      46.818   7.934  12.085  0.00  0.00    +0.000 A 
ATOM      8  C   UNL     1      47.355   6.838  12.767  0.00  0.00    +0.000 A 
ATOM      9  C   UNL     1      46.518   5.749  13.071  0.00  0.00    +0.000 A 
BRANCH   8  10
ATOM     10  C   UNL     1      48.794   6.843  13.220  0.00  0.00    +0.000 C 
BRANCH  10  11
ATOM     11  C   UNL     1      48.910   7.153  14.701  0.00  0.00    +0.000 C 
ATOM     12  C   UNL     1      48.893   8.655  15.013  0.00  0.00    +0.000 C 
ATOM     13  O   UNL     1      50.156   8.577  15.707  0.00  0.00    +0.000 OA
ATOM     14  C   UNL     1      50.314   7.192  15.322  0.00  0.00    +0.000 C 
ENDBRANCH  10  11
ENDBRANCH   8  10
ENDBRANCH   2   4
ENDBRANCH   1   2
BRANCH   1  15
ATOM     15  C   UNL     1      43.721   3.510  11.026  0.00  0.00    +0.000 C 
BRANCH  15  19
ATOM     16  C   UNL     1      46.266   2.916   7.661  0.00  0.00    +0.000 A 
ATOM     17  C   UNL     1      45.928   4.219   8.026  0.00  0.00    +0.000 A 
ATOM     18  C   UNL     1      45.091   4.427   9.121  0.00  0.00    +0.000 A 
ATOM     19  C   UNL     1      44.619   3.326   9.828  0.00  0.00    +0.000 A 
ATOM     20  N   UNL     1      44.913   2.052   9.468  0.00  0.00    +0.000 NA
ATOM     21  C   UNL     1      45.723   1.872   8.394  0.00  0.00    +0.000 A 
BRANCH  16  23
ATOM     22  N   UNL     1      48.242   1.805   6.789  0.00  0.00    +0.000 N 
ATOM     23  C   UNL     1      47.162   2.604   6.529  0.00  0.00    +0.000 C 
ATOM     24  O   UNL     1      46.931   3.007   5.397  0.00  0.00    +0.000 OA
ATOM     25  H   UNL     1      48.783   1.509   5.987  0.00  0.00    +0.000 HD
ATOM     26  H   UNL     1      48.322   1.256   7.634  0.00  0.00    +0.000 HD
ENDBRANCH  16  23
ENDBRANCH  15  19
ENDBRANCH   1  15
TORSDOF 7
ENDMDL
MODEL 8
REMARK VINA RESULT:    -6.509      3.383      8.137
REMARK INTER + INTRA:         -10.050
REMARK INTER:                  -9.601
REMARK INTRA:                  -0.449
REMARK UNBOUND:                -0.877
REMARK  Name = 
REMARK  7 active torsions:
REMARK  status: ('A' for Active; 'I' for Inactive)
REMARK    1  A    between atoms: C_2  and  C_4
REMARK    2  A    between atoms: C_7  and  C_8
REMARK    3  A    between atoms: C_8  and  C_9
REMARK    4  A    between atoms: C_9  and  N_10
REMARK    5  A    between atoms: N_10  and  C_11
REMARK    6  A    between atoms: C_15  and  C_16
REMARK    7  A    between atoms: C_16  and  C_17
REMARK                            x       y       z     vdW  Elec       q    Type
REMARK                         _______ _______ _______ _____ _____    ______ ____
ROOT
ATOM      1  C   UNL     1      46.861   4.351  14.567  0.00  0.00    +0.000 C 
ENDROOT
BRANCH   1   2
ATOM      2  N   UNL     1      46.171   5.529  14.020  0.00  0.00    +0.000 N 
ATOM      3  H   UNL     1      45.700   6.051  14.755  0.00  0.00    +0.000 HD
BRANCH   2   4
ATOM      4  C   UNL     1      45.283   5.299  12.949  0.00  0.00    +0.000 A 
ATOM      5  C   UNL     1      43.905   5.130  13.117  0.00  0.00    +0.000 A 
ATOM      6  C   UNL     1      43.067   4.870  12.031  0.00  0.00    +0.000 A 
ATOM      7  C   UNL     1      43.594   4.780  10.746  0.00  0.00    +0.000 A 
ATOM      8  C   UNL     1      44.971   4.920  10.543  0.00  0.00    +0.000 A 
ATOM      9  C   UNL     1      45.805   5.133  11.655  0.00  0.00    +0.000 A 
BRANCH   8  10
ATOM     10  C   UNL     1      45.549   4.900   9.149  0.00  0.00    +0.000 C 
BRANCH  10  11
ATOM     11  C   UNL     1      45.107   3.668   8.381  0.00  0.00    +0.000 C 
ATOM     12  C   UNL     1      45.427   2.352   9.102  0.00  0.00    +0.000 C 
ATOM     13  O   UNL     1      46.175   1.855   7.972  0.00  0.00    +0.000 OA
ATOM     14  C   UNL     1      46.042   3.124   7.291  0.00  0.00    +0.000 C 
ENDBRANCH  10  11
ENDBRANCH   8  10
ENDBRANCH   2   4
ENDBRANCH   1   2
BRANCH   1  15
ATOM     15  C   UNL     1      46.999   4.429  16.090  0.00  0.00    +0.000 C 
BRANCH  15  19
ATOM     16  C   UNL     1      50.665   2.651  17.339  0.00  0.00    +0.000 A 
ATOM     17  C   UNL     1      50.414   3.982  17.675  0.00  0.00    +0.000 A 
ATOM     18  C   UNL     1      49.221   4.577  17.267  0.00  0.00    +0.000 A 
ATOM     19  C   UNL     1      48.306   3.824  16.539  0.00  0.00    +0.000 A 
ATOM     20  N   UNL     1      48.548   2.539  16.177  0.00  0.00    +0.000 NA
ATOM     21  C   UNL     1      49.719   1.982  16.577  0.00  0.00    +0.000 A 
BRANCH  16  23
ATOM     22  N   UNL     1      51.995   0.620  17.383  0.00  0.00    +0.000 N 
ATOM     23  C   UNL     1      51.891   1.935  17.746  0.00  0.00    +0.000 C 
ATOM     24  O   UNL     1      52.795   2.500  18.346  0.00  0.00    +0.000 OA
ATOM     25  H   UNL     1      52.884   0.174  17.571  0.00  0.00    +0.000 HD
ATOM     26  H   UNL     1      51.401   0.200  16.682  0.00  0.00    +0.000 HD
ENDBRANCH  16  23
ENDBRANCH  15  19
ENDBRANCH   1  15
TORSDOF 7
ENDMDL
MODEL 9
REMARK VINA RESULT:    -6.399      2.823      7.707
REMARK INTER + INTRA:          -9.894
REMARK INTER:                  -9.135
REMARK INTRA:                  -0.759
REMARK UNBOUND:                -0.877
REMARK  Name = 
REMARK  7 active torsions:
REMARK  status: ('A' for Active; 'I' for Inactive)
REMARK    1  A    between atoms: C_2  and  C_4
REMARK    2  A    between atoms: C_7  and  C_8
REMARK    3  A    between atoms: C_8  and  C_9
REMARK    4  A    between atoms: C_9  and  N_10
REMARK    5  A    between atoms: N_10  and  C_11
REMARK    6  A    between atoms: C_15  and  C_16
REMARK    7  A    between atoms: C_16  and  C_17
REMARK                            x       y       z     vdW  Elec       q    Type
REMARK                         _______ _______ _______ _____ _____    ______ ____
ROOT
ATOM      1  C   UNL     1      44.388   2.721  12.112  0.00  0.00    +0.000 C 
ENDROOT
BRANCH   1   2
ATOM      2  N   UNL     1      43.915   2.597  10.725  0.00  0.00    +0.000 N 
ATOM      3  H   UNL     1      43.622   1.644  10.524  0.00  0.00    +0.000 HD
BRANCH   2   4
ATOM      4  C   UNL     1      44.788   3.056   9.718  0.00  0.00    +0.000 A 
ATOM      5  C   UNL     1      45.000   4.412   9.446  0.00  0.00    +0.000 A 
ATOM      6  C   UNL     1      45.849   4.822   8.415  0.00  0.00    +0.000 A 
ATOM      7  C   UNL     1      46.510   3.877   7.636  0.00  0.00    +0.000 A 
ATOM      8  C   UNL     1      46.304   2.513   7.864  0.00  0.00    +0.000 A 
ATOM      9  C   UNL     1      45.408   2.119   8.875  0.00  0.00    +0.000 A 
BRANCH   8  10
ATOM     10  C   UNL     1      47.071   1.477   7.080  0.00  0.00    +0.000 C 
BRANCH  10  11
ATOM     11  C   UNL     1      46.659   1.468   5.619  0.00  0.00    +0.000 C 
ATOM     12  C   UNL     1      47.093   0.201   4.871  0.00  0.00    +0.000 C 
ATOM     13  O   UNL     1      47.804   0.969   3.877  0.00  0.00    +0.000 OA
ATOM     14  C   UNL     1      47.561   2.193   4.610  0.00  0.00    +0.000 C 
ENDBRANCH  10  11
ENDBRANCH   8  10
ENDBRANCH   2   4
ENDBRANCH   1   2
BRANCH   1  15
ATOM     15  C   UNL     1      43.711   3.884  12.843  0.00  0.00    +0.000 C 
BRANCH  15  19
ATOM     16  C   UNL     1      46.351   7.220  13.093  0.00  0.00    +0.000 A 
ATOM     17  C   UNL     1      45.119   7.383  12.457  0.00  0.00    +0.000 A 
ATOM     18  C   UNL     1      44.249   6.298  12.363  0.00  0.00    +0.000 A 
ATOM     19  C   UNL     1      44.630   5.078  12.913  0.00  0.00    +0.000 A 
ATOM     20  N   UNL     1      45.836   4.894  13.507  0.00  0.00    +0.000 NA
ATOM     21  C   UNL     1      46.671   5.962  13.579  0.00  0.00    +0.000 A 
BRANCH  16  23
ATOM     22  N   UNL     1      47.338   8.967  14.460  0.00  0.00    +0.000 N 
ATOM     23  C   UNL     1      47.324   8.318  13.255  0.00  0.00    +0.000 C 
ATOM     24  O   UNL     1      48.114   8.613  12.369  0.00  0.00    +0.000 OA
ATOM     25  H   UNL     1      48.080   9.640  14.598  0.00  0.00    +0.000 HD
ATOM     26  H   UNL     1      46.889   8.593  15.285  0.00  0.00    +0.000 HD
ENDBRANCH  16  23
ENDBRANCH  15  19
ENDBRANCH   1  15
TORSDOF 7
ENDMDL
