MODEL 1
REMARK VINA RESULT:    -8.192      0.000      0.000
REMARK INTER + INTRA:         -12.249
REMARK INTER:                 -11.065
REMARK INTRA:                  -1.184
REMARK UNBOUND:                -1.184
REMARK  Name = 
REMARK  6 active torsions:
REMARK  status: ('A' for Active; 'I' for Inactive)
REMARK    1  A    between atoms: C_2  and  C_25
REMARK    2  A    between atoms: N_3  and  C_4
REMARK    3  A    between atoms: C_4  and  C_5
REMARK    4  A    between atoms: C_8  and  C_9
REMARK    5  A    between atoms: C_9  and  N_10
REMARK    6  A    between atoms: C_11  and  C_13
REMARK                            x       y       z     vdW  Elec       q    Type
REMARK                         _______ _______ _______ _____ _____    ______ ____
ROOT
ATOM      1  C   UNL     1      44.824   5.584  10.825  0.00  0.00    +0.000 A 
ATOM      2  C   UNL     1      46.112   5.973  10.462  0.00  0.00    +0.000 A 
ATOM      3  C   UNL     1      46.837   6.795  11.322  0.00  0.00    +0.000 A 
ATOM      4  C   UNL     1      46.260   7.229  12.516  0.00  0.00    +0.000 A 
ATOM      5  C   UNL     1      44.976   6.780  12.803  0.00  0.00    +0.000 A 
ATOM      6  N   UNL     1      44.245   5.981  11.988  0.00  0.00    +0.000 NA
ENDROOT
BRANCH   1   7
ATOM      7  C   UNL     1      44.005   4.714   9.898  0.00  0.00    +0.000 C 
BRANCH   7  10
ATOM      8  O   UNL     1      45.206   2.173   9.779  0.00  0.00    +0.000 OA
ATOM      9  C   UNL     1      45.342   2.939   8.831  0.00  0.00    +0.000 C 
ATOM     10  N   UNL     1      44.789   4.196   8.792  0.00  0.00    +0.000 N 
ATOM     11  H   UNL     1      44.906   4.801   7.992  0.00  0.00    +0.000 HD
BRANCH   9  12
ATOM     12  C   UNL     1      46.097   2.497   7.630  0.00  0.00    +0.000 A 
ATOM     13  C   UNL     1      46.697   1.238   7.667  0.00  0.00    +0.000 A 
ATOM     14  C   UNL     1      47.391   0.813   6.550  0.00  0.00    +0.000 A 
ATOM     15  N   UNL     1      47.528   1.554   5.430  0.00  0.00    +0.000 NA
ATOM     16  C   UNL     1      46.956   2.778   5.428  0.00  0.00    +0.000 A 
ATOM     17  C   UNL     1      46.236   3.294   6.493  0.00  0.00    +0.000 A 
ENDBRANCH   9  12
ENDBRANCH   7  10
ENDBRANCH   1   7
BRANCH   4  18
ATOM     18  C   UNL     1      47.000   8.133  13.456  0.00  0.00    +0.000 C 
BRANCH  18  19
ATOM     19  N   UNL     1      47.468   7.430  14.622  0.00  0.00    +0.000 N 
ATOM     20  C   UNL     1      48.708   6.840  14.633  0.00  0.00    +0.000 C 
ATOM     21  O   UNL     1      49.478   6.937  13.681  0.00  0.00    +0.000 OA
ATOM     22  H   UNL     1      46.772   7.134  15.302  0.00  0.00    +0.000 HD
BRANCH  20  23
ATOM     23  C   UNL     1      49.097   6.136  15.862  0.00  0.00    +0.000 A 
ATOM     24  C   UNL     1      50.227   6.547  16.557  0.00  0.00    +0.000 A 
ATOM     25  S   UNL     1      50.509   5.665  17.988  0.00  0.00    +0.000 S 
ATOM     26  C   UNL     1      49.161   4.666  17.702  0.00  0.00    +0.000 A 
ATOM     27  N   UNL     1      48.845   3.658  18.559  0.00  0.00    +0.000 NA
ATOM     28  C   UNL     1      47.823   2.955  18.200  0.00  0.00    +0.000 A 
ATOM     29  N   UNL     1      47.085   3.174  17.066  0.00  0.00    +0.000 N 
ATOM     30  C   UNL     1      47.344   4.202  16.191  0.00  0.00    +0.000 A 
ATOM     31  O   UNL     1      46.635   4.403  15.211  0.00  0.00    +0.000 OA
ATOM     32  C   UNL     1      48.496   5.012  16.540  0.00  0.00    +0.000 A 
ATOM     33  H   UNL     1      46.290   2.591  16.847  0.00  0.00    +0.000 HD
ENDBRANCH  20  23
ENDBRANCH  18  19
ENDBRANCH   4  18
TORSDOF 6
ENDMDL
MODEL 2
REMARK VINA RESULT:    -7.775      1.270      1.600
REMARK INTER + INTRA:         -11.686
REMARK INTER:                 -10.926
REMARK INTRA:                  -0.760
REMARK UNBOUND:                -1.184
REMARK  Name = 
REMARK  6 active torsions:
REMARK  status: ('A' for Active; 'I' for Inactive)
REMARK    1  A    between atoms: C_2  and  C_25
REMARK    2  A    between atoms: N_3  and  C_4
REMARK    3  A    between atoms: C_4  and  C_5
REMARK    4  A    between atoms: C_8  and  C_9
REMARK    5  A    between atoms: C_9  and  N_10
REMARK    6  A    between atoms: C_11  and  C_13
REMARK                            x       y       z     vdW  Elec       q    Type
REMARK                         _______ _______ _______ _____ _____    ______ ____
ROOT
ATOM      1  C   UNL     1      45.123   4.478  11.440  0.00  0.00    +0.000 A 
ATOM      2  C   UNL     1      45.747   4.163  12.646  0.00  0.00    +0.000 A 
ATOM      3  C   UNL     1      46.471   5.150  13.311  0.00  0.00    +0.000 A 
ATOM      4  C   UNL     1      46.576   6.425  12.755  0.00  0.00    +0.000 A 
ATOM      5  C   UNL     1      45.910   6.653  11.556  0.00  0.00    +0.000 A 
ATOM      6  N   UNL     1      45.199   5.715  10.885  0.00  0.00    +0.000 NA
ENDROOT
BRANCH   1   7
ATOM      7  C   UNL     1      44.353   3.418  10.684  0.00  0.00    +0.000 C 
BRANCH   7  10
ATOM      8  O   UNL     1      44.736   4.250   8.025  0.00  0.00    +0.000 OA
ATOM      9  C   UNL     1      45.291   3.227   8.413  0.00  0.00    +0.000 C 
ATOM     10  N   UNL     1      45.171   2.743   9.694  0.00  0.00    +0.000 N 
ATOM     11  H   UNL     1      45.650   1.906   9.990  0.00  0.00    +0.000 HD
BRANCH   9  12
ATOM     12  C   UNL     1      46.181   2.476   7.489  0.00  0.00    +0.000 A 
ATOM     13  C   UNL     1      46.609   3.125   6.331  0.00  0.00    +0.000 A 
ATOM     14  C   UNL     1      47.448   2.440   5.472  0.00  0.00    +0.000 A 
ATOM     15  N   UNL     1      47.865   1.175   5.689  0.00  0.00    +0.000 NA
ATOM     16  C   UNL     1      47.417   0.562   6.806  0.00  0.00    +0.000 A 
ATOM     17  C   UNL     1      46.580   1.162   7.732  0.00  0.00    +0.000 A 
ENDBRANCH   9  12
ENDBRANCH   7  10
ENDBRANCH   1   7
BRANCH   4  18
ATOM     18  C   UNL     1      47.366   7.507  13.428  0.00  0.00    +0.000 C 
BRANCH  18  19
ATOM     19  N   UNL     1      47.697   7.165  14.787  0.00  0.00    +0.000 N 
ATOM     20  C   UNL     1      49.003   6.957  15.159  0.00  0.00    +0.000 C 
ATOM     21  O   UNL     1      49.931   7.109  14.369  0.00  0.00    +0.000 OA
ATOM     22  H   UNL     1      46.951   6.800  15.374  0.00  0.00    +0.000 HD
BRANCH  20  23
ATOM     23  C   UNL     1      49.244   6.602  16.563  0.00  0.00    +0.000 A 
ATOM     24  C   UNL     1      49.896   7.504  17.394  0.00  0.00    +0.000 A 
ATOM     25  S   UNL     1      50.048   6.965  19.004  0.00  0.00    +0.000 S 
ATOM     26  C   UNL     1      49.297   5.483  18.636  0.00  0.00    +0.000 A 
ATOM     27  N   UNL     1      49.132   4.528  19.591  0.00  0.00    +0.000 NA
ATOM     28  C   UNL     1      48.584   3.439  19.165  0.00  0.00    +0.000 A 
ATOM     29  N   UNL     1      48.180   3.222  17.874  0.00  0.00    +0.000 N 
ATOM     30  C   UNL     1      48.293   4.171  16.885  0.00  0.00    +0.000 A 
ATOM     31  O   UNL     1      47.877   3.964  15.749  0.00  0.00    +0.000 OA
ATOM     32  C   UNL     1      48.920   5.408  17.308  0.00  0.00    +0.000 A 
ATOM     33  H   UNL     1      47.749   2.349  17.607  0.00  0.00    +0.000 HD
ENDBRANCH  20  23
ENDBRANCH  18  19
ENDBRANCH   4  18
TORSDOF 6
ENDMDL
MODEL 3
REMARK VINA RESULT:    -7.698      2.252      2.710
REMARK INTER + INTRA:         -11.582
REMARK INTER:                 -10.853
REMARK INTRA:                  -0.729
REMARK UNBOUND:                -1.184
REMARK  Name = 
REMARK  6 active torsions:
REMARK  status: ('A' for Active; 'I' for Inactive)
REMARK    1  A    between atoms: C_2  and  C_25
REMARK    2  A    between atoms: N_3  and  C_4
REMARK    3  A    between atoms: C_4  and  C_5
REMARK    4  A    between atoms: C_8  and  C_9
REMARK    5  A    between atoms: C_9  and  N_10
REMARK    6  A    between atoms: C_11  and  C_13
REMARK                            x       y       z     vdW  Elec       q    Type
REMARK                         _______ _______ _______ _____ _____    ______ ____
ROOT
ATOM      1  C   UNL     1      45.116   4.894  11.340  0.00  0.00    +0.000 A 
ATOM      2  C   UNL     1      45.675   4.187  12.403  0.00  0.00    +0.000 A 
ATOM      3  C   UNL     1      46.586   4.830  13.239  0.00  0.00    +0.000 A 
ATOM      4  C   UNL     1      46.937   6.156  12.989  0.00  0.00    +0.000 A 
ATOM      5  C   UNL     1      46.320   6.787  11.915  0.00  0.00    +0.000 A 
ATOM      6  N   UNL     1      45.432   6.189  11.085  0.00  0.00    +0.000 NA
ENDROOT
BRANCH   1   7
ATOM      7  C   UNL     1      44.146   4.212  10.402  0.00  0.00    +0.000 C 
BRANCH   7  10
ATOM      8  O   UNL     1      45.706   4.960   8.185  0.00  0.00    +0.000 OA
ATOM      9  C   UNL     1      45.548   3.768   8.424  0.00  0.00    +0.000 C 
ATOM     10  N   UNL     1      44.810   3.303   9.486  0.00  0.00    +0.000 N 
ATOM     11  H   UNL     1      44.707   2.315   9.668  0.00  0.00    +0.000 HD
BRANCH   9  12
ATOM     12  C   UNL     1      46.213   2.750   7.569  0.00  0.00    +0.000 A 
ATOM     13  C   UNL     1      46.617   3.140   6.292  0.00  0.00    +0.000 A 
ATOM     14  C   UNL     1      47.248   2.205   5.494  0.00  0.00    +0.000 A 
ATOM     15  N   UNL     1      47.485   0.933   5.880  0.00  0.00    +0.000 NA
ATOM     16  C   UNL     1      47.064   0.576   7.113  0.00  0.00    +0.000 A 
ATOM     17  C   UNL     1      46.428   1.437   7.990  0.00  0.00    +0.000 A 
ENDBRANCH   9  12
ENDBRANCH   7  10
ENDBRANCH   1   7
BRANCH   4  18
ATOM     18  C   UNL     1      47.931   6.875  13.852  0.00  0.00    +0.000 C 
BRANCH  18  19
ATOM     19  N   UNL     1      47.833   6.477  15.232  0.00  0.00    +0.000 N 
ATOM     20  C   UNL     1      48.963   6.241  15.975  0.00  0.00    +0.000 C 
ATOM     21  O   UNL     1      50.088   6.414  15.513  0.00  0.00    +0.000 OA
ATOM     22  H   UNL     1      46.944   6.098  15.549  0.00  0.00    +0.000 HD
BRANCH  20  23
ATOM     23  C   UNL     1      48.766   5.830  17.371  0.00  0.00    +0.000 A 
ATOM     24  C   UNL     1      49.022   4.516  17.741  0.00  0.00    +0.000 A 
ATOM     25  S   UNL     1      48.797   4.215  19.403  0.00  0.00    +0.000 S 
ATOM     26  C   UNL     1      48.296   5.818  19.680  0.00  0.00    +0.000 A 
ATOM     27  N   UNL     1      47.924   6.228  20.923  0.00  0.00    +0.000 NA
ATOM     28  C   UNL     1      47.530   7.456  20.983  0.00  0.00    +0.000 A 
ATOM     29  N   UNL     1      47.481   8.312  19.913  0.00  0.00    +0.000 N 
ATOM     30  C   UNL     1      47.881   7.953  18.648  0.00  0.00    +0.000 A 
ATOM     31  O   UNL     1      47.872   8.758  17.722  0.00  0.00    +0.000 OA
ATOM     32  C   UNL     1      48.317   6.576  18.524  0.00  0.00    +0.000 A 
ATOM     33  H   UNL     1      47.169   9.266  20.029  0.00  0.00    +0.000 HD
ENDBRANCH  20  23
ENDBRANCH  18  19
ENDBRANCH   4  18
TORSDOF 6
ENDMDL
MODEL 4
REMARK VINA RESULT:    -7.457      1.815      2.348
REMARK INTER + INTRA:         -11.257
REMARK INTER:                 -10.551
REMARK INTRA:                  -0.706
REMARK UNBOUND:                -1.184
REMARK  Name = 
REMARK  6 active torsions:
REMARK  status: ('A' for Active; 'I' for Inactive)
REMARK    1  A    between atoms: C_2  and  C_25
REMARK    2  A    between atoms: N_3  and  C_4
REMARK    3  A    between atoms: C_4  and  C_5
REMARK    4  A    between atoms: C_8  and  C_9
REMARK    5  A    between atoms: C_9  and  N_10
REMARK    6  A    between atoms: C_11  and  C_13
REMARK                            x       y       z     vdW  Elec       q    Type
REMARK                         _______ _______ _______ _____ _____    ______ ____
ROOT
ATOM      1  C   UNL     1      44.719   4.775  11.534  0.00  0.00    +0.000 A 
ATOM      2  C   UNL     1      43.910   5.879  11.269  0.00  0.00    +0.000 A 
ATOM      3  C   UNL     1      44.358   7.148  11.631  0.00  0.00    +0.000 A 
ATOM      4  C   UNL     1      45.591   7.292  12.265  0.00  0.00    +0.000 A 
ATOM      5  C   UNL     1      46.337   6.138  12.478  0.00  0.00    +0.000 A 
ATOM      6  N   UNL     1      45.930   4.891  12.139  0.00  0.00    +0.000 NA
ENDROOT
BRANCH   1   7
ATOM      7  C   UNL     1      44.246   3.384  11.177  0.00  0.00    +0.000 C 
BRANCH   7  10
ATOM      8  O   UNL     1      44.391   4.108   8.463  0.00  0.00    +0.000 OA
ATOM      9  C   UNL     1      45.083   3.179   8.867  0.00  0.00    +0.000 C 
ATOM     10  N   UNL     1      45.087   2.756  10.175  0.00  0.00    +0.000 N 
ATOM     11  H   UNL     1      45.676   1.997  10.484  0.00  0.00    +0.000 HD
BRANCH   9  12
ATOM     12  C   UNL     1      46.008   2.487   7.932  0.00  0.00    +0.000 A 
ATOM     13  C   UNL     1      46.538   3.229   6.877  0.00  0.00    +0.000 A 
ATOM     14  C   UNL     1      47.409   2.599   6.009  0.00  0.00    +0.000 A 
ATOM     15  N   UNL     1      47.766   1.302   6.122  0.00  0.00    +0.000 NA
ATOM     16  C   UNL     1      47.221   0.600   7.140  0.00  0.00    +0.000 A 
ATOM     17  C   UNL     1      46.343   1.139   8.065  0.00  0.00    +0.000 A 
ENDBRANCH   9  12
ENDBRANCH   7  10
ENDBRANCH   1   7
BRANCH   4  18
ATOM     18  C   UNL     1      46.097   8.638  12.691  0.00  0.00    +0.000 C 
BRANCH  18  19
ATOM     19  N   UNL     1      46.647   8.611  14.021  0.00  0.00    +0.000 N 
ATOM     20  C   UNL     1      48.006   8.654  14.218  0.00  0.00    +0.000 C 
ATOM     21  O   UNL     1      48.791   8.774  13.281  0.00  0.00    +0.000 OA
ATOM     22  H   UNL     1      46.048   8.269  14.769  0.00  0.00    +0.000 HD
BRANCH  20  23
ATOM     23  C   UNL     1      48.476   8.611  15.609  0.00  0.00    +0.000 A 
ATOM     24  C   UNL     1      48.686   9.799  16.297  0.00  0.00    +0.000 A 
ATOM     25  S   UNL     1      49.176   9.577  17.914  0.00  0.00    +0.000 S 
ATOM     26  C   UNL     1      49.178   7.884  17.737  0.00  0.00    +0.000 A 
ATOM     27  N   UNL     1      49.539   7.075  18.769  0.00  0.00    +0.000 NA
ATOM     28  C   UNL     1      49.533   5.815  18.485  0.00  0.00    +0.000 A 
ATOM     29  N   UNL     1      49.194   5.292  17.265  0.00  0.00    +0.000 N 
ATOM     30  C   UNL     1      48.788   6.068  16.205  0.00  0.00    +0.000 A 
ATOM     31  O   UNL     1      48.442   5.567  15.140  0.00  0.00    +0.000 OA
ATOM     32  C   UNL     1      48.793   7.495  16.467  0.00  0.00    +0.000 A 
ATOM     33  H   UNL     1      49.202   4.294  17.110  0.00  0.00    +0.000 HD
ENDBRANCH  20  23
ENDBRANCH  18  19
ENDBRANCH   4  18
TORSDOF 6
ENDMDL
MODEL 5
REMARK VINA RESULT:    -7.105      3.595      5.021
REMARK INTER + INTRA:         -10.781
REMARK INTER:                  -9.840
REMARK INTRA:                  -0.940
REMARK UNBOUND:                -1.184
REMARK  Name = 
REMARK  6 active torsions:
REMARK  status: ('A' for Active; 'I' for Inactive)
REMARK    1  A    between atoms: C_2  and  C_25
REMARK    2  A    between atoms: N_3  and  C_4
REMARK    3  A    between atoms: C_4  and  C_5
REMARK    4  A    between atoms: C_8  and  C_9
REMARK    5  A    between atoms: C_9  and  N_10
REMARK    6  A    between atoms: C_11  and  C_13
REMARK                            x       y       z     vdW  Elec       q    Type
REMARK                         _______ _______ _______ _____ _____    ______ ____
ROOT
ATOM      1  C   UNL     1      44.638   4.911  11.608  0.00  0.00    +0.000 A 
ATOM      2  C   UNL     1      44.053   6.128  11.262  0.00  0.00    +0.000 A 
ATOM      3  C   UNL     1      44.566   7.303  11.806  0.00  0.00    +0.000 A 
ATOM      4  C   UNL     1      45.636   7.244  12.699  0.00  0.00    +0.000 A 
ATOM      5  C   UNL     1      46.165   5.989  12.976  0.00  0.00    +0.000 A 
ATOM      6  N   UNL     1      45.689   4.828  12.464  0.00  0.00    +0.000 NA
ENDROOT
BRANCH   1   7
ATOM      7  C   UNL     1      44.084   3.618  11.053  0.00  0.00    +0.000 C 
BRANCH   7  10
ATOM      8  O   UNL     1      44.234   4.148   8.295  0.00  0.00    +0.000 OA
ATOM      9  C   UNL     1      44.986   3.309   8.780  0.00  0.00    +0.000 C 
ATOM     10  N   UNL     1      44.994   2.986  10.116  0.00  0.00    +0.000 N 
ATOM     11  H   UNL     1      45.634   2.301  10.491  0.00  0.00    +0.000 HD
BRANCH   9  12
ATOM     12  C   UNL     1      45.983   2.626   7.915  0.00  0.00    +0.000 A 
ATOM     13  C   UNL     1      46.588   3.375   6.906  0.00  0.00    +0.000 A 
ATOM     14  C   UNL     1      47.526   2.752   6.104  0.00  0.00    +0.000 A 
ATOM     15  N   UNL     1      47.881   1.457   6.240  0.00  0.00    +0.000 NA
ATOM     16  C   UNL     1      47.263   0.748   7.211  0.00  0.00    +0.000 A 
ATOM     17  C   UNL     1      46.315   1.279   8.069  0.00  0.00    +0.000 A 
ENDBRANCH   9  12
ENDBRANCH   7  10
ENDBRANCH   1   7
BRANCH   4  18
ATOM     18  C   UNL     1      46.200   8.485  13.323  0.00  0.00    +0.000 C 
BRANCH  18  19
ATOM     19  N   UNL     1      47.511   8.796  12.814  0.00  0.00    +0.000 N 
ATOM     20  C   UNL     1      47.692   9.830  11.929  0.00  0.00    +0.000 C 
ATOM     21  O   UNL     1      46.763  10.557  11.586  0.00  0.00    +0.000 OA
ATOM     22  H   UNL     1      48.225   8.075  12.887  0.00  0.00    +0.000 HD
BRANCH  20  23
ATOM     23  C   UNL     1      49.062  10.066  11.456  0.00  0.00    +0.000 A 
ATOM     24  C   UNL     1      49.450  11.351  11.099  0.00  0.00    +0.000 A 
ATOM     25  S   UNL     1      51.084  11.466  10.626  0.00  0.00    +0.000 S 
ATOM     26  C   UNL     1      51.317   9.793  10.829  0.00  0.00    +0.000 A 
ATOM     27  N   UNL     1      52.520   9.218  10.560  0.00  0.00    +0.000 NA
ATOM     28  C   UNL     1      52.545   7.936  10.720  0.00  0.00    +0.000 A 
ATOM     29  N   UNL     1      51.478   7.180  11.130  0.00  0.00    +0.000 N 
ATOM     30  C   UNL     1      50.255   7.722  11.448  0.00  0.00    +0.000 A 
ATOM     31  O   UNL     1      49.334   7.024  11.861  0.00  0.00    +0.000 OA
ATOM     32  C   UNL     1      50.169   9.159  11.269  0.00  0.00    +0.000 A 
ATOM     33  H   UNL     1      51.566   6.181  11.243  0.00  0.00    +0.000 HD
ENDBRANCH  20  23
ENDBRANCH  18  19
ENDBRANCH   4  18
TORSDOF 6
ENDMDL
MODEL 6
REMARK VINA RESULT:    -6.836      3.243      8.775
REMARK INTER + INTRA:         -10.418
REMARK INTER:                  -9.609
REMARK INTRA:                  -0.809
REMARK UNBOUND:                -1.184
REMARK  Name = 
REMARK  6 active torsions:
REMARK  status: ('A' for Active; 'I' for Inactive)
REMARK    1  A    between atoms: C_2  and  C_25
REMARK    2  A    between atoms: N_3  and  C_4
REMARK    3  A    between atoms: C_4  and  C_5
REMARK    4  A    between atoms: C_8  and  C_9
REMARK    5  A    between atoms: C_9  and  N_10
REMARK    6  A    between atoms: C_11  and  C_13
REMARK                            x       y       z     vdW  Elec       q    Type
REMARK                         _______ _______ _______ _____ _____    ______ ____
ROOT
ATOM      1  C   UNL     1      50.446   7.416  15.342  0.00  0.00    +0.000 A 
ATOM      2  C   UNL     1      50.657   8.432  14.413  0.00  0.00    +0.000 A 
ATOM      3  C   UNL     1      49.773   8.565  13.344  0.00  0.00    +0.000 A 
ATOM      4  C   UNL     1      48.709   7.673  13.210  0.00  0.00    +0.000 A 
ATOM      5  C   UNL     1      48.567   6.699  14.192  0.00  0.00    +0.000 A 
ATOM      6  N   UNL     1      49.410   6.543  15.242  0.00  0.00    +0.000 NA
ENDROOT
BRANCH   1   7
ATOM      7  C   UNL     1      51.405   7.232  16.497  0.00  0.00    +0.000 C 
BRANCH   7  10
ATOM      8  O   UNL     1      50.321   5.509  18.438  0.00  0.00    +0.000 OA
ATOM      9  C   UNL     1      51.185   5.081  17.680  0.00  0.00    +0.000 C 
ATOM     10  N   UNL     1      51.770   5.842  16.696  0.00  0.00    +0.000 N 
ATOM     11  H   UNL     1      52.470   5.460  16.077  0.00  0.00    +0.000 HD
BRANCH   9  12
ATOM     12  C   UNL     1      51.609   3.659  17.773  0.00  0.00    +0.000 A 
ATOM     13  C   UNL     1      50.691   2.682  17.386  0.00  0.00    +0.000 A 
ATOM     14  C   UNL     1      51.080   1.358  17.457  0.00  0.00    +0.000 A 
ATOM     15  N   UNL     1      52.295   0.960  17.889  0.00  0.00    +0.000 NA
ATOM     16  C   UNL     1      53.157   1.925  18.278  0.00  0.00    +0.000 A 
ATOM     17  C   UNL     1      52.867   3.278  18.241  0.00  0.00    +0.000 A 
ENDBRANCH   9  12
ENDBRANCH   7  10
ENDBRANCH   1   7
BRANCH   4  18
ATOM     18  C   UNL     1      47.750   7.770  12.061  0.00  0.00    +0.000 C 
BRANCH  18  19
ATOM     19  N   UNL     1      47.040   6.535  11.848  0.00  0.00    +0.000 N 
ATOM     20  C   UNL     1      45.670   6.522  11.755  0.00  0.00    +0.000 C 
ATOM     21  O   UNL     1      45.010   7.558  11.792  0.00  0.00    +0.000 OA
ATOM     22  H   UNL     1      47.531   5.670  12.060  0.00  0.00    +0.000 HD
BRANCH  20  23
ATOM     23  C   UNL     1      45.032   5.216  11.548  0.00  0.00    +0.000 A 
ATOM     24  C   UNL     1      44.347   4.615  12.596  0.00  0.00    +0.000 A 
ATOM     25  S   UNL     1      43.618   3.132  12.177  0.00  0.00    +0.000 S 
ATOM     26  C   UNL     1      44.237   3.213  10.594  0.00  0.00    +0.000 A 
ATOM     27  N   UNL     1      43.998   2.217   9.700  0.00  0.00    +0.000 NA
ATOM     28  C   UNL     1      44.560   2.388   8.550  0.00  0.00    +0.000 A 
ATOM     29  N   UNL     1      45.332   3.468   8.212  0.00  0.00    +0.000 N 
ATOM     30  C   UNL     1      45.570   4.516   9.070  0.00  0.00    +0.000 A 
ATOM     31  O   UNL     1      46.224   5.494   8.721  0.00  0.00    +0.000 OA
ATOM     32  C   UNL     1      44.974   4.364  10.384  0.00  0.00    +0.000 A 
ATOM     33  H   UNL     1      45.736   3.546   7.290  0.00  0.00    +0.000 HD
ENDBRANCH  20  23
ENDBRANCH  18  19
ENDBRANCH   4  18
TORSDOF 6
ENDMDL
MODEL 7
REMARK VINA RESULT:    -6.523      1.801      2.248
REMARK INTER + INTRA:          -9.995
REMARK INTER:                  -8.965
REMARK INTRA:                  -1.031
REMARK UNBOUND:                -1.184
REMARK  Name = 
REMARK  6 active torsions:
REMARK  status: ('A' for Active; 'I' for Inactive)
REMARK    1  A    between atoms: C_2  and  C_25
REMARK    2  A    between atoms: N_3  and  C_4
REMARK    3  A    between atoms: C_4  and  C_5
REMARK    4  A    between atoms: C_8  and  C_9
REMARK    5  A    between atoms: C_9  and  N_10
REMARK    6  A    between atoms: C_11  and  C_13
REMARK                            x       y       z     vdW  Elec       q    Type
REMARK                         _______ _______ _______ _____ _____    ______ ____
ROOT
ATOM      1  C   UNL     1      46.080   7.075  11.564  0.00  0.00    +0.000 A 
ATOM      2  C   UNL     1      47.438   6.836  11.357  0.00  0.00    +0.000 A 
ATOM      3  C   UNL     1      48.365   7.411  12.224  0.00  0.00    +0.000 A 
ATOM      4  C   UNL     1      47.925   8.226  13.267  0.00  0.00    +0.000 A 
ATOM      5  C   UNL     1      46.553   8.397  13.407  0.00  0.00    +0.000 A 
ATOM      6  N   UNL     1      45.626   7.853  12.580  0.00  0.00    +0.000 NA
ENDROOT
BRANCH   1   7
ATOM      7  C   UNL     1      45.055   6.485  10.622  0.00  0.00    +0.000 C 
BRANCH   7  10
ATOM      8  O   UNL     1      43.824   4.054   9.924  0.00  0.00    +0.000 OA
ATOM      9  C   UNL     1      44.941   4.303   9.482  0.00  0.00    +0.000 C 
ATOM     10  N   UNL     1      45.620   5.465   9.759  0.00  0.00    +0.000 N 
ATOM     11  H   UNL     1      46.533   5.650   9.371  0.00  0.00    +0.000 HD
BRANCH   9  12
ATOM     12  C   UNL     1      45.598   3.341   8.559  0.00  0.00    +0.000 A 
ATOM     13  C   UNL     1      46.167   3.849   7.391  0.00  0.00    +0.000 A 
ATOM     14  C   UNL     1      46.792   2.965   6.532  0.00  0.00    +0.000 A 
ATOM     15  N   UNL     1      46.874   1.637   6.759  0.00  0.00    +0.000 NA
ATOM     16  C   UNL     1      46.296   1.169   7.887  0.00  0.00    +0.000 A 
ATOM     17  C   UNL     1      45.650   1.970   8.813  0.00  0.00    +0.000 A 
ENDBRANCH   9  12
ENDBRANCH   7  10
ENDBRANCH   1   7
BRANCH   4  18
ATOM     18  C   UNL     1      48.893   8.881  14.207  0.00  0.00    +0.000 C 
BRANCH  18  19
ATOM     19  N   UNL     1      49.101   8.098  15.397  0.00  0.00    +0.000 N 
ATOM     20  C   UNL     1      48.521   8.465  16.587  0.00  0.00    +0.000 C 
ATOM     21  O   UNL     1      47.766   9.430  16.667  0.00  0.00    +0.000 OA
ATOM     22  H   UNL     1      49.896   7.464  15.408  0.00  0.00    +0.000 HD
BRANCH  20  23
ATOM     23  C   UNL     1      48.797   7.612  17.750  0.00  0.00    +0.000 A 
ATOM     24  C   UNL     1      49.165   8.196  18.955  0.00  0.00    +0.000 A 
ATOM     25  S   UNL     1      49.396   7.075  20.218  0.00  0.00    +0.000 S 
ATOM     26  C   UNL     1      49.066   5.763  19.186  0.00  0.00    +0.000 A 
ATOM     27  N   UNL     1      49.119   4.484  19.645  0.00  0.00    +0.000 NA
ATOM     28  C   UNL     1      48.886   3.586  18.747  0.00  0.00    +0.000 A 
ATOM     29  N   UNL     1      48.596   3.852  17.434  0.00  0.00    +0.000 N 
ATOM     30  C   UNL     1      48.495   5.129  16.934  0.00  0.00    +0.000 A 
ATOM     31  O   UNL     1      48.185   5.337  15.765  0.00  0.00    +0.000 OA
ATOM     32  C   UNL     1      48.766   6.176  17.901  0.00  0.00    +0.000 A 
ATOM     33  H   UNL     1      48.414   3.102  16.782  0.00  0.00    +0.000 HD
ENDBRANCH  20  23
ENDBRANCH  18  19
ENDBRANCH   4  18
TORSDOF 6
ENDMDL
MODEL 8
REMARK VINA RESULT:    -6.419      3.258      4.785
REMARK INTER + INTRA:          -9.855
REMARK INTER:                  -8.993
REMARK INTRA:                  -0.862
REMARK UNBOUND:                -1.184
REMARK  Name = 
REMARK  6 active torsions:
REMARK  status: ('A' for Active; 'I' for Inactive)
REMARK    1  A    between atoms: C_2  and  C_25
REMARK    2  A    between atoms: N_3  and  C_4
REMARK    3  A    between atoms: C_4  and  C_5
REMARK    4  A    between atoms: C_8  and  C_9
REMARK    5  A    between atoms: C_9  and  N_10
REMARK    6  A    between atoms: C_11  and  C_13
REMARK                            x       y       z     vdW  Elec       q    Type
REMARK                         _______ _______ _______ _____ _____    ______ ____
ROOT
ATOM      1  C   UNL     1      48.138   7.738  13.300  0.00  0.00    +0.000 A 
ATOM      2  C   UNL     1      47.867   8.867  14.069  0.00  0.00    +0.000 A 
ATOM      3  C   UNL     1      48.272   8.892  15.402  0.00  0.00    +0.000 A 
ATOM      4  C   UNL     1      48.923   7.785  15.948  0.00  0.00    +0.000 A 
ATOM      5  C   UNL     1      49.165   6.708  15.103  0.00  0.00    +0.000 A 
ATOM      6  N   UNL     1      48.782   6.654  13.804  0.00  0.00    +0.000 NA
ENDROOT
BRANCH   1   7
ATOM      7  C   UNL     1      47.685   7.674  11.859  0.00  0.00    +0.000 C 
BRANCH   7  10
ATOM      8  O   UNL     1      44.922   7.320  12.250  0.00  0.00    +0.000 OA
ATOM      9  C   UNL     1      45.583   6.388  11.802  0.00  0.00    +0.000 C 
ATOM     10  N   UNL     1      46.935   6.466  11.569  0.00  0.00    +0.000 N 
ATOM     11  H   UNL     1      47.452   5.688  11.186  0.00  0.00    +0.000 HD
BRANCH   9  12
ATOM     12  C   UNL     1      44.908   5.115  11.437  0.00  0.00    +0.000 A 
ATOM     13  C   UNL     1      44.126   4.494  12.411  0.00  0.00    +0.000 A 
ATOM     14  C   UNL     1      43.485   3.316  12.078  0.00  0.00    +0.000 A 
ATOM     15  N   UNL     1      43.582   2.730  10.865  0.00  0.00    +0.000 NA
ATOM     16  C   UNL     1      44.364   3.341   9.948  0.00  0.00    +0.000 A 
ATOM     17  C   UNL     1      45.044   4.525  10.180  0.00  0.00    +0.000 A 
ENDBRANCH   9  12
ENDBRANCH   7  10
ENDBRANCH   1   7
BRANCH   4  18
ATOM     18  C   UNL     1      49.354   7.764  17.384  0.00  0.00    +0.000 C 
BRANCH  18  19
ATOM     19  N   UNL     1      50.373   6.776  17.625  0.00  0.00    +0.000 N 
ATOM     20  C   UNL     1      50.093   5.644  18.350  0.00  0.00    +0.000 C 
ATOM     21  O   UNL     1      48.962   5.407  18.767  0.00  0.00    +0.000 OA
ATOM     22  H   UNL     1      51.342   7.063  17.510  0.00  0.00    +0.000 HD
BRANCH  20  23
ATOM     23  C   UNL     1      51.196   4.697  18.554  0.00  0.00    +0.000 A 
ATOM     24  C   UNL     1      52.305   5.087  19.294  0.00  0.00    +0.000 A 
ATOM     25  S   UNL     1      53.469   3.857  19.485  0.00  0.00    +0.000 S 
ATOM     26  C   UNL     1      52.559   2.774  18.539  0.00  0.00    +0.000 A 
ATOM     27  N   UNL     1      53.014   1.519  18.282  0.00  0.00    +0.000 NA
ATOM     28  C   UNL     1      52.243   0.818  17.520  0.00  0.00    +0.000 A 
ATOM     29  N   UNL     1      51.054   1.257  16.998  0.00  0.00    +0.000 N 
ATOM     30  C   UNL     1      50.536   2.503  17.261  0.00  0.00    +0.000 A 
ATOM     31  O   UNL     1      49.445   2.849  16.819  0.00  0.00    +0.000 OA
ATOM     32  C   UNL     1      51.375   3.338  18.100  0.00  0.00    +0.000 A 
ATOM     33  H   UNL     1      50.492   0.654  16.415  0.00  0.00    +0.000 HD
ENDBRANCH  20  23
ENDBRANCH  18  19
ENDBRANCH   4  18
TORSDOF 6
ENDMDL
MODEL 9
REMARK VINA RESULT:    -6.385      3.692      5.620
REMARK INTER + INTRA:          -9.808
REMARK INTER:                  -9.222
REMARK INTRA:                  -0.586
REMARK UNBOUND:                -1.184
REMARK  Name = 
REMARK  6 active torsions:
REMARK  status: ('A' for Active; 'I' for Inactive)
REMARK    1  A    between atoms: C_2  and  C_25
REMARK    2  A    between atoms: N_3  and  C_4
REMARK    3  A    between atoms: C_4  and  C_5
REMARK    4  A    between atoms: C_8  and  C_9
REMARK    5  A    between atoms: C_9  and  N_10
REMARK    6  A    between atoms: C_11  and  C_13
REMARK                            x       y       z     vdW  Elec       q    Type
REMARK                         _______ _______ _______ _____ _____    ______ ____
ROOT
ATOM      1  C   UNL     1      45.259   4.263  12.037  0.00  0.00    +0.000 A 
ATOM      2  C   UNL     1      46.142   3.714  12.965  0.00  0.00    +0.000 A 
ATOM      3  C   UNL     1      46.970   4.565  13.695  0.00  0.00    +0.000 A 
ATOM      4  C   UNL     1      46.917   5.941  13.473  0.00  0.00    +0.000 A 
ATOM      5  C   UNL     1      45.997   6.400  12.539  0.00  0.00    +0.000 A 
ATOM      6  N   UNL     1      45.179   5.600  11.813  0.00  0.00    +0.000 NA
ENDROOT
BRANCH   1   7
ATOM      7  C   UNL     1      44.368   3.361  11.213  0.00  0.00    +0.000 C 
BRANCH   7  10
ATOM      8  O   UNL     1      44.588   4.267   8.559  0.00  0.00    +0.000 OA
ATOM      9  C   UNL     1      45.137   3.216   8.875  0.00  0.00    +0.000 C 
ATOM     10  N   UNL     1      45.093   2.695  10.146  0.00  0.00    +0.000 N 
ATOM     11  H   UNL     1      45.565   1.835  10.382  0.00  0.00    +0.000 HD
BRANCH   9  12
ATOM     12  C   UNL     1      45.935   2.470   7.868  0.00  0.00    +0.000 A 
ATOM     13  C   UNL     1      46.284   3.136   6.693  0.00  0.00    +0.000 A 
ATOM     14  C   UNL     1      47.037   2.456   5.756  0.00  0.00    +0.000 A 
ATOM     15  N   UNL     1      47.446   1.179   5.912  0.00  0.00    +0.000 NA
ATOM     16  C   UNL     1      47.076   0.549   7.049  0.00  0.00    +0.000 A 
ATOM     17  C   UNL     1      46.327   1.143   8.051  0.00  0.00    +0.000 A 
ENDBRANCH   9  12
ENDBRANCH   7  10
ENDBRANCH   1   7
BRANCH   4  18
ATOM     18  C   UNL     1      47.809   6.886  14.222  0.00  0.00    +0.000 C 
BRANCH  18  19
ATOM     19  N   UNL     1      48.105   8.068  13.455  0.00  0.00    +0.000 N 
ATOM     20  C   UNL     1      49.083   8.051  12.490  0.00  0.00    +0.000 C 
ATOM     21  O   UNL     1      49.695   7.024  12.209  0.00  0.00    +0.000 OA
ATOM     22  H   UNL     1      47.796   8.961  13.832  0.00  0.00    +0.000 HD
BRANCH  20  23
ATOM     23  C   UNL     1      49.322   9.305  11.766  0.00  0.00    +0.000 A 
ATOM     24  C   UNL     1      48.241  10.079  11.363  0.00  0.00    +0.000 A 
ATOM     25  S   UNL     1      48.688  11.528  10.585  0.00  0.00    +0.000 S 
ATOM     26  C   UNL     1      50.342  11.148  10.710  0.00  0.00    +0.000 A 
ATOM     27  N   UNL     1      51.290  11.982  10.203  0.00  0.00    +0.000 NA
ATOM     28  C   UNL     1      52.501  11.552  10.332  0.00  0.00    +0.000 A 
ATOM     29  N   UNL     1      52.849  10.367  10.928  0.00  0.00    +0.000 N 
ATOM     30  C   UNL     1      51.929   9.512  11.486  0.00  0.00    +0.000 A 
ATOM     31  O   UNL     1      52.276   8.482  12.056  0.00  0.00    +0.000 OA
ATOM     32  C   UNL     1      50.550   9.941  11.352  0.00  0.00    +0.000 A 
ATOM     33  H   UNL     1      53.818  10.093  11.004  0.00  0.00    +0.000 HD
ENDBRANCH  20  23
ENDBRANCH  18  19
ENDBRANCH   4  18
TORSDOF 6
ENDMDL
