MODEL 1
REMARK VINA RESULT:    -8.672      0.000      0.000
REMARK INTER + INTRA:         -14.118
REMARK INTER:                 -12.728
REMARK INTRA:                  -1.390
REMARK UNBOUND:                -1.390
REMARK  Name = 
REMARK  9 active torsions:
REMARK  status: ('A' for Active; 'I' for Inactive)
REMARK    1  A    between atoms: C_2  and  C_22
REMARK    2  A    between atoms: N_3  and  C_4
REMARK    3  A    between atoms: C_4  and  C_5
REMARK    4  A    between atoms: C_8  and  C_9
REMARK    5  A    between atoms: C_9  and  C_10
REMARK    6  A    between atoms: C_10  and  O_11
REMARK    7  A    between atoms: C_10  and  C_12
REMARK    8  A    between atoms: C_15  and  C_16
REMARK    9  A    between atoms: C_16  and  O_17
REMARK                            x       y       z     vdW  Elec       q    Type
REMARK                         _______ _______ _______ _____ _____    ______ ____
ROOT
ATOM      1  C   UNL     1      46.061   7.090  12.439  0.00  0.00    +0.000 A 
ATOM      2  C   UNL     1      46.560   6.728  11.181  0.00  0.00    +0.000 A 
ATOM      3  C   UNL     1      45.897   5.787  10.393  0.00  0.00    +0.000 A 
ATOM      4  C   UNL     1      44.713   5.199  10.850  0.00  0.00    +0.000 A 
ATOM      5  C   UNL     1      44.206   5.571  12.104  0.00  0.00    +0.000 A 
ATOM      6  C   UNL     1      44.868   6.513  12.890  0.00  0.00    +0.000 A 
ENDROOT
BRANCH   1   7
ATOM      7  C   UNL     1      46.775   8.130  13.253  0.00  0.00    +0.000 C 
BRANCH   7  10
ATOM      8  O   UNL     1      49.265   6.779  13.441  0.00  0.00    +0.000 OA
ATOM      9  C   UNL     1      48.543   6.866  14.427  0.00  0.00    +0.000 C 
ATOM     10  N   UNL     1      47.352   7.541  14.431  0.00  0.00    +0.000 N 
ATOM     11  H   UNL     1      46.781   7.555  15.265  0.00  0.00    +0.000 HD
BRANCH   9  12
ATOM     12  C   UNL     1      48.918   6.274  15.712  0.00  0.00    +0.000 A 
ATOM     13  C   UNL     1      49.963   6.800  16.456  0.00  0.00    +0.000 A 
ATOM     14  S   UNL     1      50.231   5.970  17.922  0.00  0.00    +0.000 S 
ATOM     15  C   UNL     1      48.981   4.863  17.595  0.00  0.00    +0.000 A 
ATOM     16  N   UNL     1      48.680   3.859  18.460  0.00  0.00    +0.000 NA
ATOM     17  C   UNL     1      47.723   3.083  18.070  0.00  0.00    +0.000 A 
ATOM     18  N   UNL     1      47.038   3.217  16.892  0.00  0.00    +0.000 N 
ATOM     19  C   UNL     1      47.284   4.232  15.998  0.00  0.00    +0.000 A 
ATOM     20  O   UNL     1      46.602   4.356  14.986  0.00  0.00    +0.000 OA
ATOM     21  C   UNL     1      48.359   5.128  16.388  0.00  0.00    +0.000 A 
ATOM     22  H   UNL     1      46.281   2.590  16.654  0.00  0.00    +0.000 HD
ENDBRANCH   9  12
ENDBRANCH   7  10
ENDBRANCH   1   7
BRANCH   4  23
ATOM     23  C   UNL     1      43.987   4.170  10.014  0.00  0.00    +0.000 C 
BRANCH  23  24
ATOM     24  C   UNL     1      44.728   2.819   9.941  0.00  0.00    +0.000 C 
BRANCH  24  25
ATOM     25  C   UNL     1      45.490   2.570   8.651  0.00  0.00    +0.000 A 
ATOM     26  C   UNL     1      45.623   3.621   7.730  0.00  0.00    +0.000 A 
ATOM     27  C   UNL     1      46.354   3.461   6.548  0.00  0.00    +0.000 A 
ATOM     28  C   UNL     1      46.982   2.246   6.260  0.00  0.00    +0.000 A 
ATOM     29  C   UNL     1      46.871   1.199   7.183  0.00  0.00    +0.000 A 
ATOM     30  C   UNL     1      46.139   1.359   8.366  0.00  0.00    +0.000 A 
BRANCH  28  31
ATOM     31  C   UNL     1      47.742   2.052   4.975  0.00  0.00    +0.000 C 
BRANCH  31  32
ATOM     32  O   UNL     1      47.693   0.694   4.560  0.00  0.00    +0.000 OA
ATOM     33  H   UNL     1      47.959   0.158   5.328  0.00  0.00    +0.000 HD
ENDBRANCH  31  32
ENDBRANCH  28  31
ENDBRANCH  24  25
BRANCH  24  34
ATOM     34  O   UNL     1      43.807   1.734  10.088  0.00  0.00    +0.000 OA
ATOM     35  H   UNL     1      43.415   1.810  10.972  0.00  0.00    +0.000 HD
ENDBRANCH  24  34
ENDBRANCH  23  24
ENDBRANCH   4  23
TORSDOF 9
ENDMDL
MODEL 2
REMARK VINA RESULT:    -8.140      2.144      2.648
REMARK INTER + INTRA:         -13.337
REMARK INTER:                 -12.505
REMARK INTRA:                  -0.832
REMARK UNBOUND:                -1.390
REMARK  Name = 
REMARK  9 active torsions:
REMARK  status: ('A' for Active; 'I' for Inactive)
REMARK    1  A    between atoms: C_2  and  C_22
REMARK    2  A    between atoms: N_3  and  C_4
REMARK    3  A    between atoms: C_4  and  C_5
REMARK    4  A    between atoms: C_8  and  C_9
REMARK    5  A    between atoms: C_9  and  C_10
REMARK    6  A    between atoms: C_10  and  O_11
REMARK    7  A    between atoms: C_10  and  C_12
REMARK    8  A    between atoms: C_15  and  C_16
REMARK    9  A    between atoms: C_16  and  O_17
REMARK                            x       y       z     vdW  Elec       q    Type
REMARK                         _______ _______ _______ _____ _____    ______ ____
ROOT
ATOM      1  C   UNL     1      47.198   5.820  13.336  0.00  0.00    +0.000 A 
ATOM      2  C   UNL     1      46.178   6.525  12.685  0.00  0.00    +0.000 A 
ATOM      3  C   UNL     1      45.064   5.859  12.172  0.00  0.00    +0.000 A 
ATOM      4  C   UNL     1      44.950   4.473  12.312  0.00  0.00    +0.000 A 
ATOM      5  C   UNL     1      45.966   3.768  12.975  0.00  0.00    +0.000 A 
ATOM      6  C   UNL     1      47.077   4.435  13.490  0.00  0.00    +0.000 A 
ENDROOT
BRANCH   1   7
ATOM      7  C   UNL     1      48.370   6.564  13.909  0.00  0.00    +0.000 C 
BRANCH   7  10
ATOM      8  O   UNL     1      50.264   6.231  15.997  0.00  0.00    +0.000 OA
ATOM      9  C   UNL     1      49.124   6.595  16.261  0.00  0.00    +0.000 C 
ATOM     10  N   UNL     1      48.168   6.824  15.308  0.00  0.00    +0.000 N 
ATOM     11  H   UNL     1      47.234   7.094  15.584  0.00  0.00    +0.000 HD
BRANCH   9  12
ATOM     12  C   UNL     1      48.694   6.850  17.636  0.00  0.00    +0.000 A 
ATOM     13  C   UNL     1      48.327   8.126  18.038  0.00  0.00    +0.000 A 
ATOM     14  S   UNL     1      47.853   8.207  19.675  0.00  0.00    +0.000 S 
ATOM     15  C   UNL     1      48.152   6.547  19.907  0.00  0.00    +0.000 A 
ATOM     16  N   UNL     1      47.955   5.955  21.114  0.00  0.00    +0.000 NA
ATOM     17  C   UNL     1      48.245   4.696  21.147  0.00  0.00    +0.000 A 
ATOM     18  N   UNL     1      48.715   3.973  20.084  0.00  0.00    +0.000 N 
ATOM     19  C   UNL     1      48.904   4.519  18.836  0.00  0.00    +0.000 A 
ATOM     20  O   UNL     1      49.262   3.821  17.893  0.00  0.00    +0.000 OA
ATOM     21  C   UNL     1      48.599   5.936  18.749  0.00  0.00    +0.000 A 
ATOM     22  H   UNL     1      48.901   2.983  20.167  0.00  0.00    +0.000 HD
ENDBRANCH   9  12
ENDBRANCH   7  10
ENDBRANCH   1   7
BRANCH   4  23
ATOM     23  C   UNL     1      43.756   3.734  11.753  0.00  0.00    +0.000 C 
BRANCH  23  24
ATOM     24  C   UNL     1      43.546   3.978  10.245  0.00  0.00    +0.000 C 
BRANCH  24  25
ATOM     25  C   UNL     1      44.655   3.459   9.347  0.00  0.00    +0.000 A 
ATOM     26  C   UNL     1      44.879   2.074   9.279  0.00  0.00    +0.000 A 
ATOM     27  C   UNL     1      45.856   1.538   8.434  0.00  0.00    +0.000 A 
ATOM     28  C   UNL     1      46.630   2.374   7.624  0.00  0.00    +0.000 A 
ATOM     29  C   UNL     1      46.400   3.754   7.670  0.00  0.00    +0.000 A 
ATOM     30  C   UNL     1      45.422   4.290   8.516  0.00  0.00    +0.000 A 
BRANCH  28  31
ATOM     31  C   UNL     1      47.708   1.810   6.736  0.00  0.00    +0.000 C 
BRANCH  31  32
ATOM     32  O   UNL     1      48.680   2.801   6.432  0.00  0.00    +0.000 OA
ATOM     33  H   UNL     1      49.437   2.639   7.022  0.00  0.00    +0.000 HD
ENDBRANCH  31  32
ENDBRANCH  28  31
ENDBRANCH  24  25
BRANCH  24  34
ATOM     34  O   UNL     1      43.422   5.377   9.976  0.00  0.00    +0.000 OA
ATOM     35  H   UNL     1      44.033   5.838  10.572  0.00  0.00    +0.000 HD
ENDBRANCH  24  34
ENDBRANCH  23  24
ENDBRANCH   4  23
TORSDOF 9
ENDMDL
MODEL 3
REMARK VINA RESULT:    -7.942      2.162      2.600
REMARK INTER + INTRA:         -13.046
REMARK INTER:                 -11.752
REMARK INTRA:                  -1.294
REMARK UNBOUND:                -1.390
REMARK  Name = 
REMARK  9 active torsions:
REMARK  status: ('A' for Active; 'I' for Inactive)
REMARK    1  A    between atoms: C_2  and  C_22
REMARK    2  A    between atoms: N_3  and  C_4
REMARK    3  A    between atoms: C_4  and  C_5
REMARK    4  A    between atoms: C_8  and  C_9
REMARK    5  A    between atoms: C_9  and  C_10
REMARK    6  A    between atoms: C_10  and  O_11
REMARK    7  A    between atoms: C_10  and  C_12
REMARK    8  A    between atoms: C_15  and  C_16
REMARK    9  A    between atoms: C_16  and  O_17
REMARK                            x       y       z     vdW  Elec       q    Type
REMARK                         _______ _______ _______ _____ _____    ______ ____
ROOT
ATOM      1  C   UNL     1      47.064   6.769  13.218  0.00  0.00    +0.000 A 
ATOM      2  C   UNL     1      46.828   5.411  13.470  0.00  0.00    +0.000 A 
ATOM      3  C   UNL     1      45.924   4.687  12.694  0.00  0.00    +0.000 A 
ATOM      4  C   UNL     1      45.245   5.311  11.643  0.00  0.00    +0.000 A 
ATOM      5  C   UNL     1      45.489   6.668  11.382  0.00  0.00    +0.000 A 
ATOM      6  C   UNL     1      46.396   7.390  12.157  0.00  0.00    +0.000 A 
ENDROOT
BRANCH   1   7
ATOM      7  C   UNL     1      48.068   7.517  14.046  0.00  0.00    +0.000 C 
BRANCH   7  10
ATOM      8  O   UNL     1      50.240   6.510  15.572  0.00  0.00    +0.000 OA
ATOM      9  C   UNL     1      49.119   6.555  16.064  0.00  0.00    +0.000 C 
ATOM     10  N   UNL     1      48.031   7.070  15.412  0.00  0.00    +0.000 N 
ATOM     11  H   UNL     1      47.122   7.054  15.855  0.00  0.00    +0.000 HD
BRANCH   9  12
ATOM     12  C   UNL     1      48.854   6.084  17.424  0.00  0.00    +0.000 A 
ATOM     13  C   UNL     1      49.069   4.758  17.769  0.00  0.00    +0.000 A 
ATOM     14  S   UNL     1      48.706   4.419  19.401  0.00  0.00    +0.000 S 
ATOM     15  C   UNL     1      48.221   6.025  19.691  0.00  0.00    +0.000 A 
ATOM     16  N   UNL     1      47.775   6.420  20.912  0.00  0.00    +0.000 NA
ATOM     17  C   UNL     1      47.421   7.661  20.978  0.00  0.00    +0.000 A 
ATOM     18  N   UNL     1      47.469   8.545  19.934  0.00  0.00    +0.000 N 
ATOM     19  C   UNL     1      47.938   8.202  18.687  0.00  0.00    +0.000 A 
ATOM     20  O   UNL     1      48.029   9.042  17.798  0.00  0.00    +0.000 OA
ATOM     21  C   UNL     1      48.343   6.814  18.560  0.00  0.00    +0.000 A 
ATOM     22  H   UNL     1      47.199   9.512  20.055  0.00  0.00    +0.000 HD
ENDBRANCH   9  12
ENDBRANCH   7  10
ENDBRANCH   1   7
BRANCH   4  23
ATOM     23  C   UNL     1      44.253   4.544  10.798  0.00  0.00    +0.000 C 
BRANCH  23  24
ATOM     24  C   UNL     1      44.704   3.101  10.496  0.00  0.00    +0.000 C 
BRANCH  24  25
ATOM     25  C   UNL     1      45.372   2.903   9.146  0.00  0.00    +0.000 A 
ATOM     26  C   UNL     1      45.624   4.029   8.345  0.00  0.00    +0.000 A 
ATOM     27  C   UNL     1      46.278   3.911   7.114  0.00  0.00    +0.000 A 
ATOM     28  C   UNL     1      46.707   2.662   6.654  0.00  0.00    +0.000 A 
ATOM     29  C   UNL     1      46.477   1.537   7.456  0.00  0.00    +0.000 A 
ATOM     30  C   UNL     1      45.823   1.656   8.688  0.00  0.00    +0.000 A 
BRANCH  28  31
ATOM     31  C   UNL     1      47.380   2.519   5.316  0.00  0.00    +0.000 C 
BRANCH  31  32
ATOM     32  O   UNL     1      48.486   1.630   5.400  0.00  0.00    +0.000 OA
ATOM     33  H   UNL     1      48.669   1.501   6.346  0.00  0.00    +0.000 HD
ENDBRANCH  31  32
ENDBRANCH  28  31
ENDBRANCH  24  25
BRANCH  24  34
ATOM     34  O   UNL     1      43.588   2.207  10.535  0.00  0.00    +0.000 OA
ATOM     35  H   UNL     1      43.056   2.381   9.742  0.00  0.00    +0.000 HD
ENDBRANCH  24  34
ENDBRANCH  23  24
ENDBRANCH   4  23
TORSDOF 9
ENDMDL
MODEL 4
REMARK VINA RESULT:    -7.444      3.112      5.006
REMARK INTER + INTRA:         -12.315
REMARK INTER:                 -11.186
REMARK INTRA:                  -1.129
REMARK UNBOUND:                -1.390
REMARK  Name = 
REMARK  9 active torsions:
REMARK  status: ('A' for Active; 'I' for Inactive)
REMARK    1  A    between atoms: C_2  and  C_22
REMARK    2  A    between atoms: N_3  and  C_4
REMARK    3  A    between atoms: C_4  and  C_5
REMARK    4  A    between atoms: C_8  and  C_9
REMARK    5  A    between atoms: C_9  and  C_10
REMARK    6  A    between atoms: C_10  and  O_11
REMARK    7  A    between atoms: C_10  and  C_12
REMARK    8  A    between atoms: C_15  and  C_16
REMARK    9  A    between atoms: C_16  and  O_17
REMARK                            x       y       z     vdW  Elec       q    Type
REMARK                         _______ _______ _______ _____ _____    ______ ____
ROOT
ATOM      1  C   UNL     1      46.989   5.403  13.612  0.00  0.00    +0.000 A 
ATOM      2  C   UNL     1      46.896   4.008  13.539  0.00  0.00    +0.000 A 
ATOM      3  C   UNL     1      45.825   3.396  12.889  0.00  0.00    +0.000 A 
ATOM      4  C   UNL     1      44.830   4.176  12.291  0.00  0.00    +0.000 A 
ATOM      5  C   UNL     1      44.928   5.574  12.354  0.00  0.00    +0.000 A 
ATOM      6  C   UNL     1      46.002   6.185  13.002  0.00  0.00    +0.000 A 
ENDROOT
BRANCH   1   7
ATOM      7  C   UNL     1      48.170   6.038  14.288  0.00  0.00    +0.000 C 
BRANCH   7  10
ATOM      8  O   UNL     1      50.284   7.822  14.927  0.00  0.00    +0.000 OA
ATOM      9  C   UNL     1      49.829   7.799  13.790  0.00  0.00    +0.000 C 
ATOM     10  N   UNL     1      48.844   6.936  13.390  0.00  0.00    +0.000 N 
ATOM     11  H   UNL     1      48.485   6.981  12.447  0.00  0.00    +0.000 HD
BRANCH   9  12
ATOM     12  C   UNL     1      50.333   8.685  12.739  0.00  0.00    +0.000 A 
ATOM     13  C   UNL     1      51.674   8.673  12.386  0.00  0.00    +0.000 A 
ATOM     14  S   UNL     1      52.051   9.773  11.137  0.00  0.00    +0.000 S 
ATOM     15  C   UNL     1      50.443  10.322  11.051  0.00  0.00    +0.000 A 
ATOM     16  N   UNL     1      50.072  11.292  10.175  0.00  0.00    +0.000 NA
ATOM     17  C   UNL     1      48.825  11.623  10.237  0.00  0.00    +0.000 A 
ATOM     18  N   UNL     1      47.912  11.074  11.097  0.00  0.00    +0.000 N 
ATOM     19  C   UNL     1      48.229  10.071  11.982  0.00  0.00    +0.000 A 
ATOM     20  O   UNL     1      47.366   9.560  12.687  0.00  0.00    +0.000 OA
ATOM     21  C   UNL     1      49.624   9.668  11.956  0.00  0.00    +0.000 A 
ATOM     22  H   UNL     1      46.942  11.360  11.080  0.00  0.00    +0.000 HD
ENDBRANCH   9  12
ENDBRANCH   7  10
ENDBRANCH   1   7
BRANCH   4  23
ATOM     23  C   UNL     1      43.655   3.530  11.592  0.00  0.00    +0.000 C 
BRANCH  23  24
ATOM     24  C   UNL     1      43.549   3.918  10.104  0.00  0.00    +0.000 C 
BRANCH  24  25
ATOM     25  C   UNL     1      44.677   3.408   9.222  0.00  0.00    +0.000 A 
ATOM     26  C   UNL     1      44.948   2.031   9.200  0.00  0.00    +0.000 A 
ATOM     27  C   UNL     1      45.943   1.501   8.372  0.00  0.00    +0.000 A 
ATOM     28  C   UNL     1      46.689   2.336   7.535  0.00  0.00    +0.000 A 
ATOM     29  C   UNL     1      46.412   3.709   7.537  0.00  0.00    +0.000 A 
ATOM     30  C   UNL     1      45.416   4.238   8.365  0.00  0.00    +0.000 A 
BRANCH  28  31
ATOM     31  C   UNL     1      47.786   1.781   6.666  0.00  0.00    +0.000 C 
BRANCH  31  32
ATOM     32  O   UNL     1      48.765   2.775   6.393  0.00  0.00    +0.000 OA
ATOM     33  H   UNL     1      48.722   3.417   7.123  0.00  0.00    +0.000 HD
ENDBRANCH  31  32
ENDBRANCH  28  31
ENDBRANCH  24  25
BRANCH  24  34
ATOM     34  O   UNL     1      43.526   5.341   9.956  0.00  0.00    +0.000 OA
ATOM     35  H   UNL     1      43.366   5.716  10.837  0.00  0.00    +0.000 HD
ENDBRANCH  24  34
ENDBRANCH  23  24
ENDBRANCH   4  23
TORSDOF 9
ENDMDL
MODEL 5
REMARK VINA RESULT:    -7.305      3.509      8.449
REMARK INTER + INTRA:         -12.112
REMARK INTER:                 -10.480
REMARK INTRA:                  -1.632
REMARK UNBOUND:                -1.390
REMARK  Name = 
REMARK  9 active torsions:
REMARK  status: ('A' for Active; 'I' for Inactive)
REMARK    1  A    between atoms: C_2  and  C_22
REMARK    2  A    between atoms: N_3  and  C_4
REMARK    3  A    between atoms: C_4  and  C_5
REMARK    4  A    between atoms: C_8  and  C_9
REMARK    5  A    between atoms: C_9  and  C_10
REMARK    6  A    between atoms: C_10  and  O_11
REMARK    7  A    between atoms: C_10  and  C_12
REMARK    8  A    between atoms: C_15  and  C_16
REMARK    9  A    between atoms: C_16  and  O_17
REMARK                            x       y       z     vdW  Elec       q    Type
REMARK                         _______ _______ _______ _____ _____    ______ ____
ROOT
ATOM      1  C   UNL     1      48.476   8.071  13.209  0.00  0.00    +0.000 A 
ATOM      2  C   UNL     1      49.559   7.377  13.764  0.00  0.00    +0.000 A 
ATOM      3  C   UNL     1      49.919   7.564  15.098  0.00  0.00    +0.000 A 
ATOM      4  C   UNL     1      49.191   8.444  15.905  0.00  0.00    +0.000 A 
ATOM      5  C   UNL     1      48.098   9.130  15.353  0.00  0.00    +0.000 A 
ATOM      6  C   UNL     1      47.738   8.941  14.020  0.00  0.00    +0.000 A 
ENDROOT
BRANCH   1   7
ATOM      7  C   UNL     1      48.087   7.827  11.780  0.00  0.00    +0.000 C 
BRANCH   7  10
ATOM      8  O   UNL     1      45.249   7.893  11.770  0.00  0.00    +0.000 OA
ATOM      9  C   UNL     1      45.833   6.817  11.730  0.00  0.00    +0.000 C 
ATOM     10  N   UNL     1      47.197   6.702  11.683  0.00  0.00    +0.000 N 
ATOM     11  H   UNL     1      47.627   5.788  11.682  0.00  0.00    +0.000 HD
BRANCH   9  12
ATOM     12  C   UNL     1      45.109   5.546  11.694  0.00  0.00    +0.000 A 
ATOM     13  C   UNL     1      44.429   5.087  12.813  0.00  0.00    +0.000 A 
ATOM     14  S   UNL     1      43.646   3.592  12.559  0.00  0.00    +0.000 S 
ATOM     15  C   UNL     1      44.215   3.496  10.958  0.00  0.00    +0.000 A 
ATOM     16  N   UNL     1      43.913   2.437  10.162  0.00  0.00    +0.000 NA
ATOM     17  C   UNL     1      44.432   2.489   8.980  0.00  0.00    +0.000 A 
ATOM     18  N   UNL     1      45.228   3.504   8.519  0.00  0.00    +0.000 N 
ATOM     19  C   UNL     1      45.539   4.609   9.274  0.00  0.00    +0.000 A 
ATOM     20  O   UNL     1      46.200   5.528   8.800  0.00  0.00    +0.000 OA
ATOM     21  C   UNL     1      44.985   4.594  10.616  0.00  0.00    +0.000 A 
ATOM     22  H   UNL     1      45.585   3.498   7.573  0.00  0.00    +0.000 HD
ENDBRANCH   9  12
ENDBRANCH   7  10
ENDBRANCH   1   7
BRANCH   4  23
ATOM     23  C   UNL     1      49.575   8.667  17.350  0.00  0.00    +0.000 C 
BRANCH  23  24
ATOM     24  C   UNL     1      48.928   7.649  18.311  0.00  0.00    +0.000 C 
BRANCH  24  25
ATOM     25  C   UNL     1      49.286   6.196  18.048  0.00  0.00    +0.000 A 
ATOM     26  C   UNL     1      48.286   5.325  17.589  0.00  0.00    +0.000 A 
ATOM     27  C   UNL     1      48.570   3.990  17.286  0.00  0.00    +0.000 A 
ATOM     28  C   UNL     1      49.868   3.490  17.426  0.00  0.00    +0.000 A 
ATOM     29  C   UNL     1      50.876   4.358  17.865  0.00  0.00    +0.000 A 
ATOM     30  C   UNL     1      50.591   5.694  18.167  0.00  0.00    +0.000 A 
BRANCH  28  31
ATOM     31  C   UNL     1      50.178   2.046  17.137  0.00  0.00    +0.000 C 
BRANCH  31  32
ATOM     32  O   UNL     1      49.580   1.637  15.914  0.00  0.00    +0.000 OA
ATOM     33  H   UNL     1      50.278   1.203  15.394  0.00  0.00    +0.000 HD
ENDBRANCH  31  32
ENDBRANCH  28  31
ENDBRANCH  24  25
BRANCH  24  34
ATOM     34  O   UNL     1      47.502   7.736  18.249  0.00  0.00    +0.000 OA
ATOM     35  H   UNL     1      47.282   8.651  18.012  0.00  0.00    +0.000 HD
ENDBRANCH  24  34
ENDBRANCH  23  24
ENDBRANCH   4  23
TORSDOF 9
ENDMDL
MODEL 6
REMARK VINA RESULT:    -7.178      1.821      2.990
REMARK INTER + INTRA:         -11.925
REMARK INTER:                 -11.519
REMARK INTRA:                  -0.406
REMARK UNBOUND:                -1.390
REMARK  Name = 
REMARK  9 active torsions:
REMARK  status: ('A' for Active; 'I' for Inactive)
REMARK    1  A    between atoms: C_2  and  C_22
REMARK    2  A    between atoms: N_3  and  C_4
REMARK    3  A    between atoms: C_4  and  C_5
REMARK    4  A    between atoms: C_8  and  C_9
REMARK    5  A    between atoms: C_9  and  C_10
REMARK    6  A    between atoms: C_10  and  O_11
REMARK    7  A    between atoms: C_10  and  C_12
REMARK    8  A    between atoms: C_15  and  C_16
REMARK    9  A    between atoms: C_16  and  O_17
REMARK                            x       y       z     vdW  Elec       q    Type
REMARK                         _______ _______ _______ _____ _____    ______ ____
ROOT
ATOM      1  C   UNL     1      44.618   4.655  11.519  0.00  0.00    +0.000 A 
ATOM      2  C   UNL     1      45.429   5.472  10.722  0.00  0.00    +0.000 A 
ATOM      3  C   UNL     1      45.748   5.105   9.415  0.00  0.00    +0.000 A 
ATOM      4  C   UNL     1      45.250   3.912   8.880  0.00  0.00    +0.000 A 
ATOM      5  C   UNL     1      44.428   3.099   9.674  0.00  0.00    +0.000 A 
ATOM      6  C   UNL     1      44.107   3.469  10.980  0.00  0.00    +0.000 A 
ENDROOT
BRANCH   1   7
ATOM      7  C   UNL     1      44.261   5.089  12.911  0.00  0.00    +0.000 C 
BRANCH   7  10
ATOM      8  O   UNL     1      46.424   3.516  13.862  0.00  0.00    +0.000 OA
ATOM      9  C   UNL     1      46.408   4.723  14.075  0.00  0.00    +0.000 C 
ATOM     10  N   UNL     1      45.427   5.557  13.610  0.00  0.00    +0.000 N 
ATOM     11  H   UNL     1      45.447   6.540  13.841  0.00  0.00    +0.000 HD
BRANCH   9  12
ATOM     12  C   UNL     1      47.472   5.388  14.829  0.00  0.00    +0.000 A 
ATOM     13  C   UNL     1      48.225   6.398  14.250  0.00  0.00    +0.000 A 
ATOM     14  S   UNL     1      49.406   7.044  15.298  0.00  0.00    +0.000 S 
ATOM     15  C   UNL     1      48.970   5.974  16.548  0.00  0.00    +0.000 A 
ATOM     16  N   UNL     1      49.609   5.987  17.747  0.00  0.00    +0.000 NA
ATOM     17  C   UNL     1      49.187   5.105  18.590  0.00  0.00    +0.000 A 
ATOM     18  N   UNL     1      48.183   4.206  18.346  0.00  0.00    +0.000 N 
ATOM     19  C   UNL     1      47.487   4.170  17.161  0.00  0.00    +0.000 A 
ATOM     20  O   UNL     1      46.549   3.394  17.007  0.00  0.00    +0.000 OA
ATOM     21  C   UNL     1      47.930   5.140  16.175  0.00  0.00    +0.000 A 
ATOM     22  H   UNL     1      47.881   3.554  19.057  0.00  0.00    +0.000 HD
ENDBRANCH   9  12
ENDBRANCH   7  10
ENDBRANCH   1   7
BRANCH   4  23
ATOM     23  C   UNL     1      45.595   3.493   7.469  0.00  0.00    +0.000 C 
BRANCH  23  24
ATOM     24  C   UNL     1      46.712   2.431   7.410  0.00  0.00    +0.000 C 
BRANCH  24  25
ATOM     25  C   UNL     1      46.824   1.684   6.092  0.00  0.00    +0.000 A 
ATOM     26  C   UNL     1      47.065   0.301   6.117  0.00  0.00    +0.000 A 
ATOM     27  C   UNL     1      47.130  -0.445   4.935  0.00  0.00    +0.000 A 
ATOM     28  C   UNL     1      46.946   0.173   3.695  0.00  0.00    +0.000 A 
ATOM     29  C   UNL     1      46.686   1.549   3.663  0.00  0.00    +0.000 A 
ATOM     30  C   UNL     1      46.620   2.294   4.845  0.00  0.00    +0.000 A 
BRANCH  28  31
ATOM     31  C   UNL     1      47.049  -0.614   2.415  0.00  0.00    +0.000 C 
BRANCH  31  32
ATOM     32  O   UNL     1      48.209  -1.435   2.420  0.00  0.00    +0.000 OA
ATOM     33  H   UNL     1      48.304  -1.778   3.325  0.00  0.00    +0.000 HD
ENDBRANCH  31  32
ENDBRANCH  28  31
ENDBRANCH  24  25
BRANCH  24  34
ATOM     34  O   UNL     1      46.519   1.442   8.426  0.00  0.00    +0.000 OA
ATOM     35  H   UNL     1      47.094   0.692   8.207  0.00  0.00    +0.000 HD
ENDBRANCH  24  34
ENDBRANCH  23  24
ENDBRANCH   4  23
TORSDOF 9
ENDMDL
MODEL 7
REMARK VINA RESULT:    -6.973      3.875      5.802
REMARK INTER + INTRA:         -11.625
REMARK INTER:                 -10.951
REMARK INTRA:                  -0.674
REMARK UNBOUND:                -1.390
REMARK  Name = 
REMARK  9 active torsions:
REMARK  status: ('A' for Active; 'I' for Inactive)
REMARK    1  A    between atoms: C_2  and  C_22
REMARK    2  A    between atoms: N_3  and  C_4
REMARK    3  A    between atoms: C_4  and  C_5
REMARK    4  A    between atoms: C_8  and  C_9
REMARK    5  A    between atoms: C_9  and  C_10
REMARK    6  A    between atoms: C_10  and  O_11
REMARK    7  A    between atoms: C_10  and  C_12
REMARK    8  A    between atoms: C_15  and  C_16
REMARK    9  A    between atoms: C_16  and  O_17
REMARK                            x       y       z     vdW  Elec       q    Type
REMARK                         _______ _______ _______ _____ _____    ______ ____
ROOT
ATOM      1  C   UNL     1      47.306   6.184  12.966  0.00  0.00    +0.000 A 
ATOM      2  C   UNL     1      46.305   6.664  12.111  0.00  0.00    +0.000 A 
ATOM      3  C   UNL     1      45.259   5.838  11.700  0.00  0.00    +0.000 A 
ATOM      4  C   UNL     1      45.193   4.515  12.149  0.00  0.00    +0.000 A 
ATOM      5  C   UNL     1      46.188   4.037  13.015  0.00  0.00    +0.000 A 
ATOM      6  C   UNL     1      47.232   4.865  13.427  0.00  0.00    +0.000 A 
ENDROOT
BRANCH   1   7
ATOM      7  C   UNL     1      48.402   7.103  13.421  0.00  0.00    +0.000 C 
BRANCH   7  10
ATOM      8  O   UNL     1      48.323   9.894  13.939  0.00  0.00    +0.000 OA
ATOM      9  C   UNL     1      48.501   9.491  12.795  0.00  0.00    +0.000 C 
ATOM     10  N   UNL     1      48.599   8.164  12.471  0.00  0.00    +0.000 N 
ATOM     11  H   UNL     1      48.715   7.887  11.507  0.00  0.00    +0.000 HD
BRANCH   9  12
ATOM     12  C   UNL     1      48.658  10.411  11.668  0.00  0.00    +0.000 A 
ATOM     13  C   UNL     1      47.592  11.182  11.230  0.00  0.00    +0.000 A 
ATOM     14  S   UNL     1      47.987  12.192   9.913  0.00  0.00    +0.000 S 
ATOM     15  C   UNL     1      49.586  11.608   9.866  0.00  0.00    +0.000 A 
ATOM     16  N   UNL     1      50.477  12.059   8.945  0.00  0.00    +0.000 NA
ATOM     17  C   UNL     1      51.645  11.511   9.015  0.00  0.00    +0.000 A 
ATOM     18  N   UNL     1      52.004  10.550   9.922  0.00  0.00    +0.000 N 
ATOM     19  C   UNL     1      51.149  10.081  10.891  0.00  0.00    +0.000 A 
ATOM     20  O   UNL     1      51.532   9.269  11.726  0.00  0.00    +0.000 OA
ATOM     21  C   UNL     1      49.819  10.662  10.849  0.00  0.00    +0.000 A 
ATOM     22  H   UNL     1      52.944  10.175   9.941  0.00  0.00    +0.000 HD
ENDBRANCH   9  12
ENDBRANCH   7  10
ENDBRANCH   1   7
BRANCH   4  23
ATOM     23  C   UNL     1      44.073   3.602  11.705  0.00  0.00    +0.000 C 
BRANCH  23  24
ATOM     24  C   UNL     1      43.676   3.807  10.229  0.00  0.00    +0.000 C 
BRANCH  24  25
ATOM     25  C   UNL     1      44.671   3.274   9.213  0.00  0.00    +0.000 A 
ATOM     26  C   UNL     1      45.266   4.173   8.313  0.00  0.00    +0.000 A 
ATOM     27  C   UNL     1      46.224   3.746   7.388  0.00  0.00    +0.000 A 
ATOM     28  C   UNL     1      46.621   2.406   7.344  0.00  0.00    +0.000 A 
ATOM     29  C   UNL     1      46.047   1.507   8.251  0.00  0.00    +0.000 A 
ATOM     30  C   UNL     1      45.089   1.935   9.177  0.00  0.00    +0.000 A 
BRANCH  28  31
ATOM     31  C   UNL     1      47.625   1.929   6.329  0.00  0.00    +0.000 C 
BRANCH  31  32
ATOM     32  O   UNL     1      48.853   2.631   6.466  0.00  0.00    +0.000 OA
ATOM     33  H   UNL     1      49.563   1.970   6.390  0.00  0.00    +0.000 HD
ENDBRANCH  31  32
ENDBRANCH  28  31
ENDBRANCH  24  25
BRANCH  24  34
ATOM     34  O   UNL     1      43.504   5.198   9.943  0.00  0.00    +0.000 OA
ATOM     35  H   UNL     1      43.833   5.347   9.043  0.00  0.00    +0.000 HD
ENDBRANCH  24  34
ENDBRANCH  23  24
ENDBRANCH   4  23
TORSDOF 9
ENDMDL
MODEL 8
REMARK VINA RESULT:    -6.900      4.664     10.756
REMARK INTER + INTRA:         -11.518
REMARK INTER:                 -10.469
REMARK INTRA:                  -1.049
REMARK UNBOUND:                -1.390
REMARK  Name = 
REMARK  9 active torsions:
REMARK  status: ('A' for Active; 'I' for Inactive)
REMARK    1  A    between atoms: C_2  and  C_22
REMARK    2  A    between atoms: N_3  and  C_4
REMARK    3  A    between atoms: C_4  and  C_5
REMARK    4  A    between atoms: C_8  and  C_9
REMARK    5  A    between atoms: C_9  and  C_10
REMARK    6  A    between atoms: C_10  and  O_11
REMARK    7  A    between atoms: C_10  and  C_12
REMARK    8  A    between atoms: C_15  and  C_16
REMARK    9  A    between atoms: C_16  and  O_17
REMARK                            x       y       z     vdW  Elec       q    Type
REMARK                         _______ _______ _______ _____ _____    ______ ____
ROOT
ATOM      1  C   UNL     1      47.844   4.298  17.823  0.00  0.00    +0.000 A 
ATOM      2  C   UNL     1      46.961   5.316  18.206  0.00  0.00    +0.000 A 
ATOM      3  C   UNL     1      47.122   5.982  19.421  0.00  0.00    +0.000 A 
ATOM      4  C   UNL     1      48.180   5.644  20.271  0.00  0.00    +0.000 A 
ATOM      5  C   UNL     1      49.072   4.633  19.883  0.00  0.00    +0.000 A 
ATOM      6  C   UNL     1      48.911   3.969  18.667  0.00  0.00    +0.000 A 
ENDROOT
BRANCH   1   7
ATOM      7  C   UNL     1      47.669   3.619  16.496  0.00  0.00    +0.000 C 
BRANCH   7  10
ATOM      8  O   UNL     1      47.209   3.143  13.735  0.00  0.00    +0.000 OA
ATOM      9  C   UNL     1      46.845   4.199  14.240  0.00  0.00    +0.000 C 
ATOM     10  N   UNL     1      46.987   4.484  15.572  0.00  0.00    +0.000 N 
ATOM     11  H   UNL     1      46.697   5.383  15.930  0.00  0.00    +0.000 HD
BRANCH   9  12
ATOM     12  C   UNL     1      46.188   5.245  13.455  0.00  0.00    +0.000 A 
ATOM     13  C   UNL     1      46.808   6.468  13.245  0.00  0.00    +0.000 A 
ATOM     14  S   UNL     1      45.879   7.541  12.300  0.00  0.00    +0.000 S 
ATOM     15  C   UNL     1      44.606   6.419  12.166  0.00  0.00    +0.000 A 
ATOM     16  N   UNL     1      43.472   6.714  11.479  0.00  0.00    +0.000 NA
ATOM     17  C   UNL     1      42.584   5.775  11.481  0.00  0.00    +0.000 A 
ATOM     18  N   UNL     1      42.725   4.566  12.109  0.00  0.00    +0.000 N 
ATOM     19  C   UNL     1      43.863   4.209  12.793  0.00  0.00    +0.000 A 
ATOM     20  O   UNL     1      43.975   3.091  13.284  0.00  0.00    +0.000 OA
ATOM     21  C   UNL     1      44.889   5.235  12.826  0.00  0.00    +0.000 A 
ATOM     22  H   UNL     1      42.001   3.862  12.054  0.00  0.00    +0.000 HD
ENDBRANCH   9  12
ENDBRANCH   7  10
ENDBRANCH   1   7
BRANCH   4  23
ATOM     23  C   UNL     1      48.363   6.348  21.596  0.00  0.00    +0.000 C 
BRANCH  23  24
ATOM     24  C   UNL     1      48.843   7.806  21.445  0.00  0.00    +0.000 C 
BRANCH  24  25
ATOM     25  C   UNL     1      47.739   8.834  21.267  0.00  0.00    +0.000 A 
ATOM     26  C   UNL     1      47.560   9.422  20.005  0.00  0.00    +0.000 A 
ATOM     27  C   UNL     1      46.530  10.339  19.772  0.00  0.00    +0.000 A 
ATOM     28  C   UNL     1      45.643  10.686  20.796  0.00  0.00    +0.000 A 
ATOM     29  C   UNL     1      45.803  10.089  22.053  0.00  0.00    +0.000 A 
ATOM     30  C   UNL     1      46.834   9.171  22.285  0.00  0.00    +0.000 A 
BRANCH  28  31
ATOM     31  C   UNL     1      44.553  11.699  20.566  0.00  0.00    +0.000 C 
BRANCH  31  32
ATOM     32  O   UNL     1      43.271  11.099  20.701  0.00  0.00    +0.000 OA
ATOM     33  H   UNL     1      43.393  10.298  21.240  0.00  0.00    +0.000 HD
ENDBRANCH  31  32
ENDBRANCH  28  31
ENDBRANCH  24  25
BRANCH  24  34
ATOM     34  O   UNL     1      49.708   7.935  20.313  0.00  0.00    +0.000 OA
ATOM     35  H   UNL     1      50.155   8.792  20.392  0.00  0.00    +0.000 HD
ENDBRANCH  24  34
ENDBRANCH  23  24
ENDBRANCH   4  23
TORSDOF 9
ENDMDL
MODEL 9
REMARK VINA RESULT:    -6.877      2.510      3.614
REMARK INTER + INTRA:         -11.484
REMARK INTER:                 -10.149
REMARK INTRA:                  -1.335
REMARK UNBOUND:                -1.390
REMARK  Name = 
REMARK  9 active torsions:
REMARK  status: ('A' for Active; 'I' for Inactive)
REMARK    1  A    between atoms: C_2  and  C_22
REMARK    2  A    between atoms: N_3  and  C_4
REMARK    3  A    between atoms: C_4  and  C_5
REMARK    4  A    between atoms: C_8  and  C_9
REMARK    5  A    between atoms: C_9  and  C_10
REMARK    6  A    between atoms: C_10  and  O_11
REMARK    7  A    between atoms: C_10  and  C_12
REMARK    8  A    between atoms: C_15  and  C_16
REMARK    9  A    between atoms: C_16  and  O_17
REMARK                            x       y       z     vdW  Elec       q    Type
REMARK                         _______ _______ _______ _____ _____    ______ ____
ROOT
ATOM      1  C   UNL     1      47.348   6.661  13.145  0.00  0.00    +0.000 A 
ATOM      2  C   UNL     1      46.282   7.457  12.706  0.00  0.00    +0.000 A 
ATOM      3  C   UNL     1      45.003   6.922  12.560  0.00  0.00    +0.000 A 
ATOM      4  C   UNL     1      44.767   5.577  12.862  0.00  0.00    +0.000 A 
ATOM      5  C   UNL     1      45.832   4.782  13.314  0.00  0.00    +0.000 A 
ATOM      6  C   UNL     1      47.110   5.319  13.462  0.00  0.00    +0.000 A 
ENDROOT
BRANCH   1   7
ATOM      7  C   UNL     1      48.708   7.270  13.327  0.00  0.00    +0.000 C 
BRANCH   7  10
ATOM      8  O   UNL     1      48.674   7.917  16.092  0.00  0.00    +0.000 OA
ATOM      9  C   UNL     1      49.388   7.006  15.687  0.00  0.00    +0.000 C 
ATOM     10  N   UNL     1      49.424   6.602  14.379  0.00  0.00    +0.000 N 
ATOM     11  H   UNL     1      50.055   5.866  14.095  0.00  0.00    +0.000 HD
BRANCH   9  12
ATOM     12  C   UNL     1      50.249   6.242  16.590  0.00  0.00    +0.000 A 
ATOM     13  C   UNL     1      49.701   5.412  17.557  0.00  0.00    +0.000 A 
ATOM     14  S   UNL     1      50.875   4.608  18.498  0.00  0.00    +0.000 S 
ATOM     15  C   UNL     1      52.151   5.365  17.665  0.00  0.00    +0.000 A 
ATOM     16  N   UNL     1      53.449   5.121  17.986  0.00  0.00    +0.000 NA
ATOM     17  C   UNL     1      54.308   5.783  17.284  0.00  0.00    +0.000 A 
ATOM     18  N   UNL     1      53.990   6.670  16.290  0.00  0.00    +0.000 N 
ATOM     19  C   UNL     1      52.695   6.930  15.909  0.00  0.00    +0.000 A 
ATOM     20  O   UNL     1      52.455   7.679  14.968  0.00  0.00    +0.000 OA
ATOM     21  C   UNL     1      51.690   6.214  16.674  0.00  0.00    +0.000 A 
ATOM     22  H   UNL     1      54.711   7.140  15.759  0.00  0.00    +0.000 HD
ENDBRANCH   9  12
ENDBRANCH   7  10
ENDBRANCH   1   7
BRANCH   4  23
ATOM     23  C   UNL     1      43.390   4.976  12.699  0.00  0.00    +0.000 C 
BRANCH  23  24
ATOM     24  C   UNL     1      42.925   4.919  11.229  0.00  0.00    +0.000 C 
BRANCH  24  25
ATOM     25  C   UNL     1      43.828   4.130  10.297  0.00  0.00    +0.000 A 
ATOM     26  C   UNL     1      44.596   4.825   9.350  0.00  0.00    +0.000 A 
ATOM     27  C   UNL     1      45.479   4.153   8.499  0.00  0.00    +0.000 A 
ATOM     28  C   UNL     1      45.624   2.765   8.578  0.00  0.00    +0.000 A 
ATOM     29  C   UNL     1      44.875   2.066   9.533  0.00  0.00    +0.000 A 
ATOM     30  C   UNL     1      43.993   2.739  10.385  0.00  0.00    +0.000 A 
BRANCH  28  31
ATOM     31  C   UNL     1      46.545   2.027   7.642  0.00  0.00    +0.000 C 
BRANCH  31  32
ATOM     32  O   UNL     1      46.652   0.660   8.013  0.00  0.00    +0.000 OA
ATOM     33  H   UNL     1      47.355   0.606   8.683  0.00  0.00    +0.000 HD
ENDBRANCH  31  32
ENDBRANCH  28  31
ENDBRANCH  24  25
BRANCH  24  34
ATOM     34  O   UNL     1      42.826   6.238  10.683  0.00  0.00    +0.000 OA
ATOM     35  H   UNL     1      42.717   6.142   9.724  0.00  0.00    +0.000 HD
ENDBRANCH  24  34
ENDBRANCH  23  24
ENDBRANCH   4  23
TORSDOF 9
ENDMDL
