MODEL 1
REMARK VINA RESULT:    -7.874      0.000      0.000
REMARK INTER + INTRA:         -11.725
REMARK INTER:                 -10.636
REMARK INTRA:                  -1.089
REMARK UNBOUND:                -1.089
REMARK  Name = 
REMARK  7 active torsions:
REMARK  status: ('A' for Active; 'I' for Inactive)
REMARK    1  A    between atoms: C_1  and  N_2
REMARK    2  A    between atoms: N_2  and  C_3
REMARK    3  A    between atoms: C_3  and  C_4
REMARK    4  A    between atoms: C_7  and  O_8
REMARK    5  A    between atoms: O_8  and  C_9
REMARK    6  A    between atoms: C_9  and  C_10
REMARK    7  A    between atoms: C_18  and  C_20
REMARK                            x       y       z     vdW  Elec       q    Type
REMARK                         _______ _______ _______ _____ _____    ______ ____
ROOT
ATOM      1  C   UNL     1      46.393   8.634  12.322  0.00  0.00    +0.000 C 
ATOM      2  N   UNL     1      46.128   7.202  12.246  0.00  0.00    +0.000 N 
ATOM      3  C   UNL     1      44.872   6.844  11.716  0.00  0.00    +0.000 C 
ATOM      4  O   UNL     1      44.057   7.693  11.370  0.00  0.00    +0.000 OA
ENDROOT
BRANCH   3   5
ATOM      5  C   UNL     1      44.521   5.414  11.618  0.00  0.00    +0.000 A 
ATOM      6  C   UNL     1      43.786   4.722  12.574  0.00  0.00    +0.000 A 
ATOM      7  S   UNL     1      43.495   3.090  12.171  0.00  0.00    +0.000 S 
ATOM      8  C   UNL     1      44.213   3.300  10.637  0.00  0.00    +0.000 A 
ATOM      9  N   UNL     1      44.198   2.290   9.728  0.00  0.00    +0.000 NA
ATOM     10  C   UNL     1      44.721   2.606   8.590  0.00  0.00    +0.000 A 
ATOM     11  N   UNL     1      45.292   3.819   8.296  0.00  0.00    +0.000 N 
ATOM     12  C   UNL     1      45.448   4.823   9.235  0.00  0.00    +0.000 A 
ATOM     13  O   UNL     1      46.174   5.787   9.009  0.00  0.00    +0.000 OA
ATOM     14  C   UNL     1      44.760   4.560  10.484  0.00  0.00    +0.000 A 
ATOM     15  H   UNL     1      45.748   3.969   7.409  0.00  0.00    +0.000 HD
ENDBRANCH   3   5
BRANCH   2  16
ATOM     16  C   UNL     1      47.221   6.239  12.409  0.00  0.00    +0.000 C 
BRANCH  16  17
ATOM     17  C   UNL     1      47.525   5.756  13.794  0.00  0.00    +0.000 A 
ATOM     18  C   UNL     1      46.915   4.625  14.332  0.00  0.00    +0.000 A 
ATOM     19  C   UNL     1      47.227   4.240  15.633  0.00  0.00    +0.000 A 
ATOM     20  C   UNL     1      48.162   4.982  16.333  0.00  0.00    +0.000 A 
ATOM     21  N   UNL     1      48.762   6.085  15.840  0.00  0.00    +0.000 NA
ATOM     22  C   UNL     1      48.429   6.454  14.592  0.00  0.00    +0.000 A 
BRANCH  20  23
ATOM     23  O   UNL     1      48.460   4.582  17.613  0.00  0.00    +0.000 OA
BRANCH  23  24
ATOM     24  C   UNL     1      49.822   4.874  17.948  0.00  0.00    +0.000 C 
BRANCH  24  25
ATOM     25  C   UNL     1      50.635   3.620  17.796  0.00  0.00    +0.000 A 
ATOM     26  C   UNL     1      52.000   3.606  18.097  0.00  0.00    +0.000 A 
ATOM     27  C   UNL     1      52.728   2.434  17.938  0.00  0.00    +0.000 A 
ATOM     28  C   UNL     1      52.065   1.310  17.474  0.00  0.00    +0.000 A 
ATOM     29  N   UNL     1      50.753   1.286  17.159  0.00  0.00    +0.000 NA
ATOM     30  C   UNL     1      50.068   2.441  17.327  0.00  0.00    +0.000 A 
ENDBRANCH  24  25
ENDBRANCH  23  24
ENDBRANCH  20  23
ENDBRANCH  16  17
ENDBRANCH   2  16
TORSDOF 6
ENDMDL
MODEL 2
REMARK VINA RESULT:    -7.389      1.375      2.086
REMARK INTER + INTRA:         -11.070
REMARK INTER:                  -9.791
REMARK INTRA:                  -1.279
REMARK UNBOUND:                -1.089
REMARK  Name = 
REMARK  7 active torsions:
REMARK  status: ('A' for Active; 'I' for Inactive)
REMARK    1  A    between atoms: C_1  and  N_2
REMARK    2  A    between atoms: N_2  and  C_3
REMARK    3  A    between atoms: C_3  and  C_4
REMARK    4  A    between atoms: C_7  and  O_8
REMARK    5  A    between atoms: O_8  and  C_9
REMARK    6  A    between atoms: C_9  and  C_10
REMARK    7  A    between atoms: C_18  and  C_20
REMARK                            x       y       z     vdW  Elec       q    Type
REMARK                         _______ _______ _______ _____ _____    ______ ____
ROOT
ATOM      1  C   UNL     1      46.191   8.754  13.012  0.00  0.00    +0.000 C 
ATOM      2  N   UNL     1      46.106   7.448  12.371  0.00  0.00    +0.000 N 
ATOM      3  C   UNL     1      45.051   7.292  11.449  0.00  0.00    +0.000 C 
ATOM      4  O   UNL     1      44.252   8.196  11.231  0.00  0.00    +0.000 OA
ENDROOT
BRANCH   3   5
ATOM      5  C   UNL     1      44.887   5.994  10.767  0.00  0.00    +0.000 A 
ATOM      6  C   UNL     1      45.433   5.688   9.525  0.00  0.00    +0.000 A 
ATOM      7  S   UNL     1      45.116   4.094   9.008  0.00  0.00    +0.000 S 
ATOM      8  C   UNL     1      44.367   3.717  10.494  0.00  0.00    +0.000 A 
ATOM      9  N   UNL     1      43.952   2.450  10.752  0.00  0.00    +0.000 NA
ATOM     10  C   UNL     1      43.460   2.294  11.935  0.00  0.00    +0.000 A 
ATOM     11  N   UNL     1      43.306   3.295  12.862  0.00  0.00    +0.000 N 
ATOM     12  C   UNL     1      43.589   4.621  12.589  0.00  0.00    +0.000 A 
ATOM     13  O   UNL     1      43.213   5.513  13.345  0.00  0.00    +0.000 OA
ATOM     14  C   UNL     1      44.265   4.820  11.322  0.00  0.00    +0.000 A 
ATOM     15  H   UNL     1      42.844   3.113  13.741  0.00  0.00    +0.000 HD
ENDBRANCH   3   5
BRANCH   2  16
ATOM     16  C   UNL     1      47.229   6.509  12.454  0.00  0.00    +0.000 C 
BRANCH  16  17
ATOM     17  C   UNL     1      47.524   5.891  13.786  0.00  0.00    +0.000 A 
ATOM     18  C   UNL     1      46.865   4.747  14.231  0.00  0.00    +0.000 A 
ATOM     19  C   UNL     1      47.172   4.233  15.488  0.00  0.00    +0.000 A 
ATOM     20  C   UNL     1      48.151   4.864  16.237  0.00  0.00    +0.000 A 
ATOM     21  N   UNL     1      48.799   5.976  15.833  0.00  0.00    +0.000 NA
ATOM     22  C   UNL     1      48.470   6.471  14.628  0.00  0.00    +0.000 A 
BRANCH  20  23
ATOM     23  O   UNL     1      48.443   4.338  17.471  0.00  0.00    +0.000 OA
BRANCH  23  24
ATOM     24  C   UNL     1      48.749   2.941  17.384  0.00  0.00    +0.000 C 
BRANCH  24  25
ATOM     25  C   UNL     1      50.227   2.758  17.584  0.00  0.00    +0.000 A 
ATOM     26  C   UNL     1      51.025   3.804  18.056  0.00  0.00    +0.000 A 
ATOM     27  C   UNL     1      52.391   3.608  18.222  0.00  0.00    +0.000 A 
ATOM     28  C   UNL     1      52.917   2.368  17.902  0.00  0.00    +0.000 A 
ATOM     29  N   UNL     1      52.182   1.338  17.431  0.00  0.00    +0.000 NA
ATOM     30  C   UNL     1      50.855   1.556  17.283  0.00  0.00    +0.000 A 
ENDBRANCH  24  25
ENDBRANCH  23  24
ENDBRANCH  20  23
ENDBRANCH  16  17
ENDBRANCH   2  16
TORSDOF 6
ENDMDL
MODEL 3
REMARK VINA RESULT:    -7.280      3.246      8.395
REMARK INTER + INTRA:         -10.923
REMARK INTER:                  -9.808
REMARK INTRA:                  -1.115
REMARK UNBOUND:                -1.089
REMARK  Name = 
REMARK  7 active torsions:
REMARK  status: ('A' for Active; 'I' for Inactive)
REMARK    1  A    between atoms: C_1  and  N_2
REMARK    2  A    between atoms: N_2  and  C_3
REMARK    3  A    between atoms: C_3  and  C_4
REMARK    4  A    between atoms: C_7  and  O_8
REMARK    5  A    between atoms: O_8  and  C_9
REMARK    6  A    between atoms: C_9  and  C_10
REMARK    7  A    between atoms: C_18  and  C_20
REMARK                            x       y       z     vdW  Elec       q    Type
REMARK                         _______ _______ _______ _____ _____    ______ ____
ROOT
ATOM      1  C   UNL     1      49.497   7.427  12.654  0.00  0.00    +0.000 C 
ATOM      2  N   UNL     1      48.749   7.055  13.849  0.00  0.00    +0.000 N 
ATOM      3  C   UNL     1      49.513   6.922  15.026  0.00  0.00    +0.000 C 
ATOM      4  O   UNL     1      50.728   7.085  15.024  0.00  0.00    +0.000 OA
ENDROOT
BRANCH   3   5
ATOM      5  C   UNL     1      48.832   6.534  16.277  0.00  0.00    +0.000 A 
ATOM      6  C   UNL     1      48.614   5.219  16.673  0.00  0.00    +0.000 A 
ATOM      7  S   UNL     1      47.843   5.075  18.188  0.00  0.00    +0.000 S 
ATOM      8  C   UNL     1      47.913   6.763  18.428  0.00  0.00    +0.000 A 
ATOM      9  N   UNL     1      47.504   7.307  19.604  0.00  0.00    +0.000 NA
ATOM     10  C   UNL     1      47.670   8.586  19.672  0.00  0.00    +0.000 A 
ATOM     11  N   UNL     1      48.162   9.370  18.660  0.00  0.00    +0.000 N 
ATOM     12  C   UNL     1      48.460   8.875  17.403  0.00  0.00    +0.000 A 
ATOM     13  O   UNL     1      48.662   9.635  16.459  0.00  0.00    +0.000 OA
ATOM     14  C   UNL     1      48.414   7.428  17.325  0.00  0.00    +0.000 A 
ATOM     15  H   UNL     1      48.194  10.374  18.758  0.00  0.00    +0.000 HD
ENDBRANCH   3   5
BRANCH   2  16
ATOM     16  C   UNL     1      47.286   7.141  13.861  0.00  0.00    +0.000 C 
BRANCH  16  17
ATOM     17  C   UNL     1      46.526   6.220  12.956  0.00  0.00    +0.000 A 
ATOM     18  C   UNL     1      46.145   6.598  11.670  0.00  0.00    +0.000 A 
ATOM     19  C   UNL     1      45.424   5.702  10.886  0.00  0.00    +0.000 A 
ATOM     20  C   UNL     1      45.142   4.450  11.406  0.00  0.00    +0.000 A 
ATOM     21  N   UNL     1      45.492   4.061  12.649  0.00  0.00    +0.000 NA
ATOM     22  C   UNL     1      46.166   4.950  13.399  0.00  0.00    +0.000 A 
BRANCH  20  23
ATOM     23  O   UNL     1      44.435   3.579  10.614  0.00  0.00    +0.000 OA
BRANCH  23  24
ATOM     24  C   UNL     1      44.462   3.983   9.240  0.00  0.00    +0.000 C 
BRANCH  24  25
ATOM     25  C   UNL     1      45.446   3.119   8.503  0.00  0.00    +0.000 A 
ATOM     26  C   UNL     1      46.293   3.660   7.531  0.00  0.00    +0.000 A 
ATOM     27  C   UNL     1      47.186   2.835   6.859  0.00  0.00    +0.000 A 
ATOM     28  C   UNL     1      47.198   1.487   7.178  0.00  0.00    +0.000 A 
ATOM     29  N   UNL     1      46.387   0.924   8.099  0.00  0.00    +0.000 NA
ATOM     30  C   UNL     1      45.530   1.752   8.740  0.00  0.00    +0.000 A 
ENDBRANCH  24  25
ENDBRANCH  23  24
ENDBRANCH  20  23
ENDBRANCH  16  17
ENDBRANCH   2  16
TORSDOF 6
ENDMDL
MODEL 4
REMARK VINA RESULT:    -7.278      3.264      8.200
REMARK INTER + INTRA:         -10.920
REMARK INTER:                  -9.697
REMARK INTRA:                  -1.223
REMARK UNBOUND:                -1.089
REMARK  Name = 
REMARK  7 active torsions:
REMARK  status: ('A' for Active; 'I' for Inactive)
REMARK    1  A    between atoms: C_1  and  N_2
REMARK    2  A    between atoms: N_2  and  C_3
REMARK    3  A    between atoms: C_3  and  C_4
REMARK    4  A    between atoms: C_7  and  O_8
REMARK    5  A    between atoms: O_8  and  C_9
REMARK    6  A    between atoms: C_9  and  C_10
REMARK    7  A    between atoms: C_18  and  C_20
REMARK                            x       y       z     vdW  Elec       q    Type
REMARK                         _______ _______ _______ _____ _____    ______ ____
ROOT
ATOM      1  C   UNL     1      49.597   7.277  12.372  0.00  0.00    +0.000 C 
ATOM      2  N   UNL     1      48.915   7.592  13.621  0.00  0.00    +0.000 N 
ATOM      3  C   UNL     1      49.747   8.027  14.673  0.00  0.00    +0.000 C 
ATOM      4  O   UNL     1      50.963   8.105  14.538  0.00  0.00    +0.000 OA
ENDROOT
BRANCH   3   5
ATOM      5  C   UNL     1      49.135   8.352  15.976  0.00  0.00    +0.000 A 
ATOM      6  C   UNL     1      48.796   9.638  16.382  0.00  0.00    +0.000 A 
ATOM      7  S   UNL     1      48.062   9.703  17.920  0.00  0.00    +0.000 S 
ATOM      8  C   UNL     1      48.039   8.001  18.026  0.00  0.00    +0.000 A 
ATOM      9  N   UNL     1      47.434   7.386  19.075  0.00  0.00    +0.000 NA
ATOM     10  C   UNL     1      47.437   6.097  18.996  0.00  0.00    +0.000 A 
ATOM     11  N   UNL     1      48.026   5.371  17.991  0.00  0.00    +0.000 N 
ATOM     12  C   UNL     1      48.768   5.955  16.979  0.00  0.00    +0.000 A 
ATOM     13  O   UNL     1      49.477   5.271  16.246  0.00  0.00    +0.000 OA
ATOM     14  C   UNL     1      48.679   7.402  16.957  0.00  0.00    +0.000 A 
ATOM     15  H   UNL     1      48.053   4.363  18.035  0.00  0.00    +0.000 HD
ENDBRANCH   3   5
BRANCH   2  16
ATOM     16  C   UNL     1      47.458   7.746  13.650  0.00  0.00    +0.000 C 
BRANCH  16  17
ATOM     17  C   UNL     1      46.631   6.672  13.012  0.00  0.00    +0.000 A 
ATOM     18  C   UNL     1      46.628   5.363  13.487  0.00  0.00    +0.000 A 
ATOM     19  C   UNL     1      45.851   4.408  12.837  0.00  0.00    +0.000 A 
ATOM     20  C   UNL     1      45.080   4.807  11.759  0.00  0.00    +0.000 A 
ATOM     21  N   UNL     1      45.070   6.066  11.274  0.00  0.00    +0.000 NA
ATOM     22  C   UNL     1      45.845   6.967  11.899  0.00  0.00    +0.000 A 
BRANCH  20  23
ATOM     23  O   UNL     1      44.316   3.850  11.136  0.00  0.00    +0.000 OA
BRANCH  23  24
ATOM     24  C   UNL     1      44.106   4.168   9.756  0.00  0.00    +0.000 C 
BRANCH  24  25
ATOM     25  C   UNL     1      45.084   3.385   8.926  0.00  0.00    +0.000 A 
ATOM     26  C   UNL     1      45.880   4.015   7.965  0.00  0.00    +0.000 A 
ATOM     27  C   UNL     1      46.769   3.264   7.207  0.00  0.00    +0.000 A 
ATOM     28  C   UNL     1      46.829   1.899   7.431  0.00  0.00    +0.000 A 
ATOM     29  N   UNL     1      46.068   1.251   8.339  0.00  0.00    +0.000 NA
ATOM     30  C   UNL     1      45.213   2.008   9.065  0.00  0.00    +0.000 A 
ENDBRANCH  24  25
ENDBRANCH  23  24
ENDBRANCH  20  23
ENDBRANCH  16  17
ENDBRANCH   2  16
TORSDOF 6
ENDMDL
MODEL 5
REMARK VINA RESULT:    -6.872      2.094      2.894
REMARK INTER + INTRA:         -10.372
REMARK INTER:                  -9.201
REMARK INTRA:                  -1.172
REMARK UNBOUND:                -1.089
REMARK  Name = 
REMARK  7 active torsions:
REMARK  status: ('A' for Active; 'I' for Inactive)
REMARK    1  A    between atoms: C_1  and  N_2
REMARK    2  A    between atoms: N_2  and  C_3
REMARK    3  A    between atoms: C_3  and  C_4
REMARK    4  A    between atoms: C_7  and  O_8
REMARK    5  A    between atoms: O_8  and  C_9
REMARK    6  A    between atoms: C_9  and  C_10
REMARK    7  A    between atoms: C_18  and  C_20
REMARK                            x       y       z     vdW  Elec       q    Type
REMARK                         _______ _______ _______ _____ _____    ______ ____
ROOT
ATOM      1  C   UNL     1      46.371   8.718  13.129  0.00  0.00    +0.000 C 
ATOM      2  N   UNL     1      46.244   7.423  12.471  0.00  0.00    +0.000 N 
ATOM      3  C   UNL     1      45.209   7.325  11.519  0.00  0.00    +0.000 C 
ATOM      4  O   UNL     1      44.459   8.267  11.290  0.00  0.00    +0.000 OA
ENDROOT
BRANCH   3   5
ATOM      5  C   UNL     1      45.005   6.042  10.819  0.00  0.00    +0.000 A 
ATOM      6  C   UNL     1      45.566   5.726   9.586  0.00  0.00    +0.000 A 
ATOM      7  S   UNL     1      45.193   4.153   9.043  0.00  0.00    +0.000 S 
ATOM      8  C   UNL     1      44.396   3.793  10.508  0.00  0.00    +0.000 A 
ATOM      9  N   UNL     1      43.921   2.542  10.742  0.00  0.00    +0.000 NA
ATOM     10  C   UNL     1      43.396   2.394  11.913  0.00  0.00    +0.000 A 
ATOM     11  N   UNL     1      43.264   3.391  12.847  0.00  0.00    +0.000 N 
ATOM     12  C   UNL     1      43.610   4.707  12.596  0.00  0.00    +0.000 A 
ATOM     13  O   UNL     1      43.256   5.606  13.354  0.00  0.00    +0.000 OA
ATOM     14  C   UNL     1      44.322   4.890  11.346  0.00  0.00    +0.000 A 
ATOM     15  H   UNL     1      42.775   3.220  13.714  0.00  0.00    +0.000 HD
ENDBRANCH   3   5
BRANCH   2  16
ATOM     16  C   UNL     1      47.320   6.433  12.575  0.00  0.00    +0.000 C 
BRANCH  16  17
ATOM     17  C   UNL     1      47.551   5.791  13.909  0.00  0.00    +0.000 A 
ATOM     18  C   UNL     1      46.875   4.637  14.299  0.00  0.00    +0.000 A 
ATOM     19  C   UNL     1      47.122   4.100  15.560  0.00  0.00    +0.000 A 
ATOM     20  C   UNL     1      48.059   4.720  16.368  0.00  0.00    +0.000 A 
ATOM     21  N   UNL     1      48.722   5.842  16.018  0.00  0.00    +0.000 NA
ATOM     22  C   UNL     1      48.452   6.358  14.808  0.00  0.00    +0.000 A 
BRANCH  20  23
ATOM     23  O   UNL     1      48.292   4.171  17.605  0.00  0.00    +0.000 OA
BRANCH  23  24
ATOM     24  C   UNL     1      49.650   4.364  18.015  0.00  0.00    +0.000 C 
BRANCH  24  25
ATOM     25  C   UNL     1      49.676   4.615  19.496  0.00  0.00    +0.000 A 
ATOM     26  C   UNL     1      50.868   4.934  20.152  0.00  0.00    +0.000 A 
ATOM     27  C   UNL     1      50.863   5.152  21.524  0.00  0.00    +0.000 A 
ATOM     28  C   UNL     1      49.660   5.036  22.200  0.00  0.00    +0.000 A 
ATOM     29  N   UNL     1      48.490   4.717  21.606  0.00  0.00    +0.000 NA
ATOM     30  C   UNL     1      48.525   4.513  20.269  0.00  0.00    +0.000 A 
ENDBRANCH  24  25
ENDBRANCH  23  24
ENDBRANCH  20  23
ENDBRANCH  16  17
ENDBRANCH   2  16
TORSDOF 6
ENDMDL
MODEL 6
REMARK VINA RESULT:    -6.661      1.985      8.107
REMARK INTER + INTRA:         -10.086
REMARK INTER:                  -9.126
REMARK INTRA:                  -0.961
REMARK UNBOUND:                -1.089
REMARK  Name = 
REMARK  7 active torsions:
REMARK  status: ('A' for Active; 'I' for Inactive)
REMARK    1  A    between atoms: C_1  and  N_2
REMARK    2  A    between atoms: N_2  and  C_3
REMARK    3  A    between atoms: C_3  and  C_4
REMARK    4  A    between atoms: C_7  and  O_8
REMARK    5  A    between atoms: O_8  and  C_9
REMARK    6  A    between atoms: C_9  and  C_10
REMARK    7  A    between atoms: C_18  and  C_20
REMARK                            x       y       z     vdW  Elec       q    Type
REMARK                         _______ _______ _______ _____ _____    ______ ____
ROOT
ATOM      1  C   UNL     1      48.744   8.934  16.513  0.00  0.00    +0.000 C 
ATOM      2  N   UNL     1      48.851   7.482  16.432  0.00  0.00    +0.000 N 
ATOM      3  C   UNL     1      48.347   6.774  17.542  0.00  0.00    +0.000 C 
ATOM      4  O   UNL     1      47.877   7.356  18.513  0.00  0.00    +0.000 OA
ENDROOT
BRANCH   3   5
ATOM      5  C   UNL     1      48.431   5.301  17.545  0.00  0.00    +0.000 A 
ATOM      6  C   UNL     1      47.350   4.455  17.317  0.00  0.00    +0.000 A 
ATOM      7  S   UNL     1      47.756   2.799  17.335  0.00  0.00    +0.000 S 
ATOM      8  C   UNL     1      49.414   3.166  17.498  0.00  0.00    +0.000 A 
ATOM      9  N   UNL     1      50.343   2.175  17.470  0.00  0.00    +0.000 NA
ATOM     10  C   UNL     1      51.561   2.600  17.542  0.00  0.00    +0.000 A 
ATOM     11  N   UNL     1      51.928   3.915  17.683  0.00  0.00    +0.000 N 
ATOM     12  C   UNL     1      51.011   4.937  17.852  0.00  0.00    +0.000 A 
ATOM     13  O   UNL     1      51.374   6.052  18.218  0.00  0.00    +0.000 OA
ATOM     14  C   UNL     1      49.638   4.522  17.647  0.00  0.00    +0.000 A 
ATOM     15  H   UNL     1      52.898   4.165  17.808  0.00  0.00    +0.000 HD
ENDBRANCH   3   5
BRANCH   2  16
ATOM     16  C   UNL     1      49.161   6.833  15.155  0.00  0.00    +0.000 C 
BRANCH  16  17
ATOM     17  C   UNL     1      48.045   6.664  14.170  0.00  0.00    +0.000 A 
ATOM     18  C   UNL     1      47.365   5.457  14.025  0.00  0.00    +0.000 A 
ATOM     19  C   UNL     1      46.349   5.360  13.078  0.00  0.00    +0.000 A 
ATOM     20  C   UNL     1      46.030   6.485  12.337  0.00  0.00    +0.000 A 
ATOM     21  N   UNL     1      46.676   7.663  12.452  0.00  0.00    +0.000 NA
ATOM     22  C   UNL     1      47.670   7.729  13.353  0.00  0.00    +0.000 A 
BRANCH  20  23
ATOM     23  O   UNL     1      45.021   6.370  11.412  0.00  0.00    +0.000 OA
BRANCH  23  24
ATOM     24  C   UNL     1      44.442   5.060  11.431  0.00  0.00    +0.000 C 
BRANCH  24  25
ATOM     25  C   UNL     1      44.855   4.332  10.183  0.00  0.00    +0.000 A 
ATOM     26  C   UNL     1      44.625   2.961  10.039  0.00  0.00    +0.000 A 
ATOM     27  C   UNL     1      45.026   2.313   8.878  0.00  0.00    +0.000 A 
ATOM     28  C   UNL     1      45.654   3.061   7.896  0.00  0.00    +0.000 A 
ATOM     29  N   UNL     1      45.907   4.383   8.002  0.00  0.00    +0.000 NA
ATOM     30  C   UNL     1      45.502   4.988   9.143  0.00  0.00    +0.000 A 
ENDBRANCH  24  25
ENDBRANCH  23  24
ENDBRANCH  20  23
ENDBRANCH  16  17
ENDBRANCH   2  16
TORSDOF 6
ENDMDL
MODEL 7
REMARK VINA RESULT:    -6.617      1.725      2.344
REMARK INTER + INTRA:         -10.028
REMARK INTER:                  -8.874
REMARK INTRA:                  -1.154
REMARK UNBOUND:                -1.089
REMARK  Name = 
REMARK  7 active torsions:
REMARK  status: ('A' for Active; 'I' for Inactive)
REMARK    1  A    between atoms: C_1  and  N_2
REMARK    2  A    between atoms: N_2  and  C_3
REMARK    3  A    between atoms: C_3  and  C_4
REMARK    4  A    between atoms: C_7  and  O_8
REMARK    5  A    between atoms: O_8  and  C_9
REMARK    6  A    between atoms: C_9  and  C_10
REMARK    7  A    between atoms: C_18  and  C_20
REMARK                            x       y       z     vdW  Elec       q    Type
REMARK                         _______ _______ _______ _____ _____    ______ ____
ROOT
ATOM      1  C   UNL     1      46.433   8.318  12.853  0.00  0.00    +0.000 C 
ATOM      2  N   UNL     1      46.148   6.901  12.660  0.00  0.00    +0.000 N 
ATOM      3  C   UNL     1      44.945   6.610  11.984  0.00  0.00    +0.000 C 
ATOM      4  O   UNL     1      44.189   7.500  11.613  0.00  0.00    +0.000 OA
ENDROOT
BRANCH   3   5
ATOM      5  C   UNL     1      44.577   5.199  11.760  0.00  0.00    +0.000 A 
ATOM      6  C   UNL     1      43.854   4.427  12.663  0.00  0.00    +0.000 A 
ATOM      7  S   UNL     1      43.537   2.844  12.115  0.00  0.00    +0.000 S 
ATOM      8  C   UNL     1      44.225   3.189  10.592  0.00  0.00    +0.000 A 
ATOM      9  N   UNL     1      44.181   2.270   9.594  0.00  0.00    +0.000 NA
ATOM     10  C   UNL     1      44.683   2.686   8.479  0.00  0.00    +0.000 A 
ATOM     11  N   UNL     1      45.262   3.916   8.288  0.00  0.00    +0.000 N 
ATOM     12  C   UNL     1      45.448   4.826   9.313  0.00  0.00    +0.000 A 
ATOM     13  O   UNL     1      46.180   5.801   9.163  0.00  0.00    +0.000 OA
ATOM     14  C   UNL     1      44.783   4.453  10.546  0.00  0.00    +0.000 A 
ATOM     15  H   UNL     1      45.701   4.144   7.408  0.00  0.00    +0.000 HD
ENDBRANCH   3   5
BRANCH   2  16
ATOM     16  C   UNL     1      47.199   5.900  12.870  0.00  0.00    +0.000 C 
BRANCH  16  17
ATOM     17  C   UNL     1      47.476   5.466  14.277  0.00  0.00    +0.000 A 
ATOM     18  C   UNL     1      46.908   4.315  14.819  0.00  0.00    +0.000 A 
ATOM     19  C   UNL     1      47.192   3.977  16.139  0.00  0.00    +0.000 A 
ATOM     20  C   UNL     1      48.060   4.784  16.855  0.00  0.00    +0.000 A 
ATOM     21  N   UNL     1      48.617   5.907  16.357  0.00  0.00    +0.000 NA
ATOM     22  C   UNL     1      48.312   6.229  15.089  0.00  0.00    +0.000 A 
BRANCH  20  23
ATOM     23  O   UNL     1      48.331   4.429  18.154  0.00  0.00    +0.000 OA
BRANCH  23  24
ATOM     24  C   UNL     1      49.740   4.327  18.384  0.00  0.00    +0.000 C 
BRANCH  24  25
ATOM     25  C   UNL     1      50.085   5.107  19.620  0.00  0.00    +0.000 A 
ATOM     26  C   UNL     1      51.350   5.008  20.206  0.00  0.00    +0.000 A 
ATOM     27  C   UNL     1      51.637   5.734  21.355  0.00  0.00    +0.000 A 
ATOM     28  C   UNL     1      50.642   6.536  21.887  0.00  0.00    +0.000 A 
ATOM     29  N   UNL     1      49.404   6.649  21.360  0.00  0.00    +0.000 NA
ATOM     30  C   UNL     1      49.153   5.933  20.240  0.00  0.00    +0.000 A 
ENDBRANCH  24  25
ENDBRANCH  23  24
ENDBRANCH  20  23
ENDBRANCH  16  17
ENDBRANCH   2  16
TORSDOF 6
ENDMDL
MODEL 8
REMARK VINA RESULT:    -6.485      2.767      7.847
REMARK INTER + INTRA:          -9.849
REMARK INTER:                  -8.511
REMARK INTRA:                  -1.338
REMARK UNBOUND:                -1.089
REMARK  Name = 
REMARK  7 active torsions:
REMARK  status: ('A' for Active; 'I' for Inactive)
REMARK    1  A    between atoms: C_1  and  N_2
REMARK    2  A    between atoms: N_2  and  C_3
REMARK    3  A    between atoms: C_3  and  C_4
REMARK    4  A    between atoms: C_7  and  O_8
REMARK    5  A    between atoms: O_8  and  C_9
REMARK    6  A    between atoms: C_9  and  C_10
REMARK    7  A    between atoms: C_18  and  C_20
REMARK                            x       y       z     vdW  Elec       q    Type
REMARK                         _______ _______ _______ _____ _____    ______ ____
ROOT
ATOM      1  C   UNL     1      47.891   9.497  17.313  0.00  0.00    +0.000 C 
ATOM      2  N   UNL     1      48.874   8.456  17.035  0.00  0.00    +0.000 N 
ATOM      3  C   UNL     1      48.880   7.371  17.936  0.00  0.00    +0.000 C 
ATOM      4  O   UNL     1      48.120   7.332  18.897  0.00  0.00    +0.000 OA
ENDROOT
BRANCH   3   5
ATOM      5  C   UNL     1      49.855   6.283  17.732  0.00  0.00    +0.000 A 
ATOM      6  C   UNL     1      51.218   6.395  17.988  0.00  0.00    +0.000 A 
ATOM      7  S   UNL     1      52.092   4.959  17.703  0.00  0.00    +0.000 S 
ATOM      8  C   UNL     1      50.654   4.101  17.374  0.00  0.00    +0.000 A 
ATOM      9  N   UNL     1      50.689   2.761  17.153  0.00  0.00    +0.000 NA
ATOM     10  C   UNL     1      49.524   2.231  16.979  0.00  0.00    +0.000 A 
ATOM     11  N   UNL     1      48.339   2.923  16.962  0.00  0.00    +0.000 N 
ATOM     12  C   UNL     1      48.274   4.303  17.047  0.00  0.00    +0.000 A 
ATOM     13  O   UNL     1      47.234   4.901  16.785  0.00  0.00    +0.000 OA
ATOM     14  C   UNL     1      49.543   4.923  17.374  0.00  0.00    +0.000 A 
ATOM     15  H   UNL     1      47.474   2.453  16.745  0.00  0.00    +0.000 HD
ENDBRANCH   3   5
BRANCH   2  16
ATOM     16  C   UNL     1      49.558   8.413  15.740  0.00  0.00    +0.000 C 
BRANCH  16  17
ATOM     17  C   UNL     1      48.772   7.952  14.551  0.00  0.00    +0.000 A 
ATOM     18  C   UNL     1      47.978   8.824  13.808  0.00  0.00    +0.000 A 
ATOM     19  C   UNL     1      47.257   8.329  12.725  0.00  0.00    +0.000 A 
ATOM     20  C   UNL     1      47.385   6.988  12.406  0.00  0.00    +0.000 A 
ATOM     21  N   UNL     1      48.140   6.121  13.112  0.00  0.00    +0.000 NA
ATOM     22  C   UNL     1      48.808   6.613  14.168  0.00  0.00    +0.000 A 
BRANCH  20  23
ATOM     23  O   UNL     1      46.670   6.521  11.330  0.00  0.00    +0.000 OA
BRANCH  23  24
ATOM     24  C   UNL     1      45.260   6.653  11.544  0.00  0.00    +0.000 C 
BRANCH  24  25
ATOM     25  C   UNL     1      44.661   5.281  11.667  0.00  0.00    +0.000 A 
ATOM     26  C   UNL     1      44.489   4.467  10.543  0.00  0.00    +0.000 A 
ATOM     27  C   UNL     1      43.923   3.206  10.686  0.00  0.00    +0.000 A 
ATOM     28  C   UNL     1      43.539   2.802  11.954  0.00  0.00    +0.000 A 
ATOM     29  N   UNL     1      43.675   3.563  13.060  0.00  0.00    +0.000 NA
ATOM     30  C   UNL     1      44.232   4.784  12.892  0.00  0.00    +0.000 A 
ENDBRANCH  24  25
ENDBRANCH  23  24
ENDBRANCH  20  23
ENDBRANCH  16  17
ENDBRANCH   2  16
TORSDOF 6
ENDMDL
MODEL 9
REMARK VINA RESULT:    -6.213      3.172      8.247
REMARK INTER + INTRA:          -9.482
REMARK INTER:                  -8.248
REMARK INTRA:                  -1.233
REMARK UNBOUND:                -1.089
REMARK  Name = 
REMARK  7 active torsions:
REMARK  status: ('A' for Active; 'I' for Inactive)
REMARK    1  A    between atoms: C_1  and  N_2
REMARK    2  A    between atoms: N_2  and  C_3
REMARK    3  A    between atoms: C_3  and  C_4
REMARK    4  A    between atoms: C_7  and  O_8
REMARK    5  A    between atoms: O_8  and  C_9
REMARK    6  A    between atoms: C_9  and  C_10
REMARK    7  A    between atoms: C_18  and  C_20
REMARK                            x       y       z     vdW  Elec       q    Type
REMARK                         _______ _______ _______ _____ _____    ______ ____
ROOT
ATOM      1  C   UNL     1      50.981   8.437  13.544  0.00  0.00    +0.000 C 
ATOM      2  N   UNL     1      50.068   8.465  14.680  0.00  0.00    +0.000 N 
ATOM      3  C   UNL     1      50.651   8.189  15.934  0.00  0.00    +0.000 C 
ATOM      4  O   UNL     1      51.842   7.921  16.041  0.00  0.00    +0.000 OA
ENDROOT
BRANCH   3   5
ATOM      5  C   UNL     1      49.791   8.183  17.133  0.00  0.00    +0.000 A 
ATOM      6  C   UNL     1      49.615   9.276  17.976  0.00  0.00    +0.000 A 
ATOM      7  S   UNL     1      48.527   8.990  19.256  0.00  0.00    +0.000 S 
ATOM      8  C   UNL     1      48.141   7.448  18.638  0.00  0.00    +0.000 A 
ATOM      9  N   UNL     1      47.169   6.698  19.220  0.00  0.00    +0.000 NA
ATOM     10  C   UNL     1      46.939   5.581  18.613  0.00  0.00    +0.000 A 
ATOM     11  N   UNL     1      47.620   5.131  17.509  0.00  0.00    +0.000 N 
ATOM     12  C   UNL     1      48.704   5.800  16.971  0.00  0.00    +0.000 A 
ATOM     13  O   UNL     1      49.434   5.254  16.147  0.00  0.00    +0.000 OA
ATOM     14  C   UNL     1      48.912   7.118  17.539  0.00  0.00    +0.000 A 
ATOM     15  H   UNL     1      47.435   4.213  17.133  0.00  0.00    +0.000 HD
ENDBRANCH   3   5
BRANCH   2  16
ATOM     16  C   UNL     1      48.732   9.053  14.541  0.00  0.00    +0.000 C 
BRANCH  16  17
ATOM     17  C   UNL     1      47.684   8.244  13.841  0.00  0.00    +0.000 A 
ATOM     18  C   UNL     1      47.818   6.871  13.647  0.00  0.00    +0.000 A 
ATOM     19  C   UNL     1      46.816   6.180  12.972  0.00  0.00    +0.000 A 
ATOM     20  C   UNL     1      45.702   6.883  12.547  0.00  0.00    +0.000 A 
ATOM     21  N   UNL     1      45.550   8.213  12.714  0.00  0.00    +0.000 NA
ATOM     22  C   UNL     1      46.539   8.866  13.346  0.00  0.00    +0.000 A 
BRANCH  20  23
ATOM     23  O   UNL     1      44.722   6.182  11.888  0.00  0.00    +0.000 OA
BRANCH  23  24
ATOM     24  C   UNL     1      44.951   4.770  11.962  0.00  0.00    +0.000 C 
BRANCH  24  25
ATOM     25  C   UNL     1      44.974   4.211  10.568  0.00  0.00    +0.000 A 
ATOM     26  C   UNL     1      44.548   2.905  10.308  0.00  0.00    +0.000 A 
ATOM     27  C   UNL     1      44.589   2.412   9.010  0.00  0.00    +0.000 A 
ATOM     28  C   UNL     1      45.065   3.244   8.010  0.00  0.00    +0.000 A 
ATOM     29  N   UNL     1      45.498   4.504   8.222  0.00  0.00    +0.000 NA
ATOM     30  C   UNL     1      45.443   4.959   9.495  0.00  0.00    +0.000 A 
ENDBRANCH  24  25
ENDBRANCH  23  24
ENDBRANCH  20  23
ENDBRANCH  16  17
ENDBRANCH   2  16
TORSDOF 6
ENDMDL
