MODEL 1
REMARK VINA RESULT:    -7.916      0.000      0.000
REMARK INTER + INTRA:         -12.456
REMARK INTER:                 -11.155
REMARK INTRA:                  -1.300
REMARK UNBOUND:                -1.300
REMARK  Name = 
REMARK  7 active torsions:
REMARK  status: ('A' for Active; 'I' for Inactive)
REMARK    1  A    between atoms: C_2  and  C_20
REMARK    2  A    between atoms: N_3  and  C_4
REMARK    3  A    between atoms: C_4  and  C_5
REMARK    4  A    between atoms: C_8  and  C_9
REMARK    5  A    between atoms: C_9  and  N_10
REMARK    6  A    between atoms: N_10  and  C_11
REMARK    7  A    between atoms: C_11  and  C_12
REMARK                            x       y       z     vdW  Elec       q    Type
REMARK                         _______ _______ _______ _____ _____    ______ ____
ROOT
ATOM      1  C   UNL     1      47.458   7.142  13.258  0.00  0.00    +0.000 C 
ENDROOT
BRANCH   1   2
ATOM      2  C   UNL     1      46.505   6.177  12.604  0.00  0.00    +0.000 A 
ATOM      3  C   UNL     1      45.891   5.170  13.359  0.00  0.00    +0.000 A 
ATOM      4  C   UNL     1      44.982   4.292  12.766  0.00  0.00    +0.000 A 
ATOM      5  C   UNL     1      44.669   4.394  11.402  0.00  0.00    +0.000 A 
ATOM      6  C   UNL     1      45.312   5.379  10.639  0.00  0.00    +0.000 A 
ATOM      7  C   UNL     1      46.226   6.257  11.233  0.00  0.00    +0.000 A 
BRANCH   5   8
ATOM      8  C   UNL     1      43.669   3.450  10.773  0.00  0.00    +0.000 C 
BRANCH   8   9
ATOM      9  N   UNL     1      43.996   3.198   9.371  0.00  0.00    +0.000 NA
ATOM     10  H   UNL     1      44.533   3.986   9.010  0.00  0.00    +0.000 HD
BRANCH   9  11
ATOM     11  C   UNL     1      44.770   1.969   9.205  0.00  0.00    +0.000 C 
BRANCH  11  12
ATOM     12  C   UNL     1      45.838   2.144   8.158  0.00  0.00    +0.000 A 
ATOM     13  C   UNL     1      45.998   3.351   7.468  0.00  0.00    +0.000 A 
ATOM     14  C   UNL     1      47.014   3.483   6.526  0.00  0.00    +0.000 A 
ATOM     15  C   UNL     1      47.838   2.396   6.295  0.00  0.00    +0.000 A 
ATOM     16  N   UNL     1      47.706   1.207   6.923  0.00  0.00    +0.000 NA
ATOM     17  C   UNL     1      46.713   1.111   7.836  0.00  0.00    +0.000 A 
ENDBRANCH  11  12
ENDBRANCH   9  11
ENDBRANCH   8   9
ENDBRANCH   5   8
ENDBRANCH   1   2
BRANCH   1  20
ATOM     18  O   UNL     1      49.973   7.291  14.511  0.00  0.00    +0.000 OA
ATOM     19  C   UNL     1      49.006   6.902  15.161  0.00  0.00    +0.000 C 
ATOM     20  N   UNL     1      47.758   6.753  14.612  0.00  0.00    +0.000 N 
ATOM     21  H   UNL     1      46.962   6.603  15.222  0.00  0.00    +0.000 HD
BRANCH  19  22
ATOM     22  C   UNL     1      49.143   6.514  16.570  0.00  0.00    +0.000 A 
ATOM     23  C   UNL     1      49.642   7.426  17.490  0.00  0.00    +0.000 A 
ATOM     24  S   UNL     1      49.729   6.814  19.080  0.00  0.00    +0.000 S 
ATOM     25  C   UNL     1      49.065   5.321  18.601  0.00  0.00    +0.000 A 
ATOM     26  N   UNL     1      48.835   4.335  19.506  0.00  0.00    +0.000 NA
ATOM     27  C   UNL     1      48.291   3.274  19.013  0.00  0.00    +0.000 A 
ATOM     28  N   UNL     1      47.969   3.102  17.691  0.00  0.00    +0.000 N 
ATOM     29  C   UNL     1      48.263   4.039  16.725  0.00  0.00    +0.000 A 
ATOM     30  O   UNL     1      48.103   3.791  15.536  0.00  0.00    +0.000 OA
ATOM     31  C   UNL     1      48.817   5.277  17.239  0.00  0.00    +0.000 A 
ATOM     32  H   UNL     1      47.582   2.230  17.361  0.00  0.00    +0.000 HD
ENDBRANCH  19  22
ENDBRANCH   1  20
TORSDOF 7
ENDMDL
MODEL 2
REMARK VINA RESULT:    -7.502      1.808      2.393
REMARK INTER + INTRA:         -11.873
REMARK INTER:                 -11.050
REMARK INTRA:                  -0.822
REMARK UNBOUND:                -1.300
REMARK  Name = 
REMARK  7 active torsions:
REMARK  status: ('A' for Active; 'I' for Inactive)
REMARK    1  A    between atoms: C_2  and  C_20
REMARK    2  A    between atoms: N_3  and  C_4
REMARK    3  A    between atoms: C_4  and  C_5
REMARK    4  A    between atoms: C_8  and  C_9
REMARK    5  A    between atoms: C_9  and  N_10
REMARK    6  A    between atoms: N_10  and  C_11
REMARK    7  A    between atoms: C_11  and  C_12
REMARK                            x       y       z     vdW  Elec       q    Type
REMARK                         _______ _______ _______ _____ _____    ______ ____
ROOT
ATOM      1  C   UNL     1      48.147   6.556  13.810  0.00  0.00    +0.000 C 
ENDROOT
BRANCH   1   2
ATOM      2  C   UNL     1      46.991   6.013  13.012  0.00  0.00    +0.000 A 
ATOM      3  C   UNL     1      46.292   4.885  13.461  0.00  0.00    +0.000 A 
ATOM      4  C   UNL     1      45.200   4.395  12.743  0.00  0.00    +0.000 A 
ATOM      5  C   UNL     1      44.783   5.016  11.556  0.00  0.00    +0.000 A 
ATOM      6  C   UNL     1      45.505   6.122  11.088  0.00  0.00    +0.000 A 
ATOM      7  C   UNL     1      46.603   6.611  11.806  0.00  0.00    +0.000 A 
BRANCH   5   8
ATOM      8  C   UNL     1      43.587   4.489  10.796  0.00  0.00    +0.000 C 
BRANCH   8   9
ATOM      9  N   UNL     1      43.972   3.399   9.902  0.00  0.00    +0.000 NA
ATOM     10  H   UNL     1      43.162   2.800   9.743  0.00  0.00    +0.000 HD
BRANCH   9  11
ATOM     11  C   UNL     1      44.466   3.894   8.619  0.00  0.00    +0.000 C 
BRANCH  11  12
ATOM     12  C   UNL     1      45.521   2.977   8.058  0.00  0.00    +0.000 A 
ATOM     13  C   UNL     1      46.455   3.422   7.118  0.00  0.00    +0.000 A 
ATOM     14  C   UNL     1      47.432   2.552   6.643  0.00  0.00    +0.000 A 
ATOM     15  C   UNL     1      47.438   1.252   7.119  0.00  0.00    +0.000 A 
ATOM     16  N   UNL     1      46.543   0.775   8.010  0.00  0.00    +0.000 NA
ATOM     17  C   UNL     1      45.609   1.646   8.457  0.00  0.00    +0.000 A 
ENDBRANCH  11  12
ENDBRANCH   9  11
ENDBRANCH   8   9
ENDBRANCH   5   8
ENDBRANCH   1   2
BRANCH   1  20
ATOM     18  O   UNL     1      50.245   6.474  15.684  0.00  0.00    +0.000 OA
ATOM     19  C   UNL     1      49.099   6.252  16.064  0.00  0.00    +0.000 C 
ATOM     20  N   UNL     1      48.029   6.223  15.207  0.00  0.00    +0.000 N 
ATOM     21  H   UNL     1      47.088   6.214  15.586  0.00  0.00    +0.000 HD
BRANCH  19  22
ATOM     22  C   UNL     1      48.810   5.944  17.470  0.00  0.00    +0.000 A 
ATOM     23  C   UNL     1      49.023   4.660  17.952  0.00  0.00    +0.000 A 
ATOM     24  S   UNL     1      48.643   4.479  19.604  0.00  0.00    +0.000 S 
ATOM     25  C   UNL     1      48.218   6.121  19.743  0.00  0.00    +0.000 A 
ATOM     26  N   UNL     1      47.825   6.644  20.934  0.00  0.00    +0.000 NA
ATOM     27  C   UNL     1      47.573   7.909  20.904  0.00  0.00    +0.000 A 
ATOM     28  N   UNL     1      47.663   8.699  19.787  0.00  0.00    +0.000 N 
ATOM     29  C   UNL     1      47.972   8.196  18.543  0.00  0.00    +0.000 A 
ATOM     30  O   UNL     1      47.894   8.898  17.541  0.00  0.00    +0.000 OA
ATOM     31  C   UNL     1      48.328   6.790  18.536  0.00  0.00    +0.000 A 
ATOM     32  H   UNL     1      47.412   9.676  19.822  0.00  0.00    +0.000 HD
ENDBRANCH  19  22
ENDBRANCH   1  20
TORSDOF 7
ENDMDL
MODEL 3
REMARK VINA RESULT:    -7.409      3.372      5.367
REMARK INTER + INTRA:         -11.741
REMARK INTER:                 -10.776
REMARK INTRA:                  -0.966
REMARK UNBOUND:                -1.300
REMARK  Name = 
REMARK  7 active torsions:
REMARK  status: ('A' for Active; 'I' for Inactive)
REMARK    1  A    between atoms: C_2  and  C_20
REMARK    2  A    between atoms: N_3  and  C_4
REMARK    3  A    between atoms: C_4  and  C_5
REMARK    4  A    between atoms: C_8  and  C_9
REMARK    5  A    between atoms: C_9  and  N_10
REMARK    6  A    between atoms: N_10  and  C_11
REMARK    7  A    between atoms: C_11  and  C_12
REMARK                            x       y       z     vdW  Elec       q    Type
REMARK                         _______ _______ _______ _____ _____    ______ ____
ROOT
ATOM      1  C   UNL     1      47.421   6.132  14.235  0.00  0.00    +0.000 C 
ENDROOT
BRANCH   1   2
ATOM      2  C   UNL     1      46.379   5.290  13.548  0.00  0.00    +0.000 A 
ATOM      3  C   UNL     1      45.157   5.855  13.162  0.00  0.00    +0.000 A 
ATOM      4  C   UNL     1      44.199   5.089  12.496  0.00  0.00    +0.000 A 
ATOM      5  C   UNL     1      44.436   3.737  12.205  0.00  0.00    +0.000 A 
ATOM      6  C   UNL     1      45.643   3.162  12.625  0.00  0.00    +0.000 A 
ATOM      7  C   UNL     1      46.602   3.930  13.296  0.00  0.00    +0.000 A 
BRANCH   5   8
ATOM      8  C   UNL     1      43.399   2.920  11.466  0.00  0.00    +0.000 C 
BRANCH   8   9
ATOM      9  N   UNL     1      43.987   2.249  10.308  0.00  0.00    +0.000 NA
ATOM     10  H   UNL     1      43.310   1.585   9.933  0.00  0.00    +0.000 HD
BRANCH   9  11
ATOM     11  C   UNL     1      44.365   3.198   9.263  0.00  0.00    +0.000 C 
BRANCH  11  12
ATOM     12  C   UNL     1      45.485   2.649   8.419  0.00  0.00    +0.000 A 
ATOM     13  C   UNL     1      46.221   3.467   7.555  0.00  0.00    +0.000 A 
ATOM     14  C   UNL     1      47.266   2.929   6.811  0.00  0.00    +0.000 A 
ATOM     15  C   UNL     1      47.540   1.579   6.948  0.00  0.00    +0.000 A 
ATOM     16  N   UNL     1      46.843   0.750   7.754  0.00  0.00    +0.000 NA
ATOM     17  C   UNL     1      45.836   1.303   8.468  0.00  0.00    +0.000 A 
ENDBRANCH  11  12
ENDBRANCH   9  11
ENDBRANCH   8   9
ENDBRANCH   5   8
ENDBRANCH   1   2
BRANCH   1  20
ATOM     18  O   UNL     1      48.907   6.935  11.985  0.00  0.00    +0.000 OA
ATOM     19  C   UNL     1      48.193   7.758  12.551  0.00  0.00    +0.000 C 
ATOM     20  N   UNL     1      47.477   7.461  13.682  0.00  0.00    +0.000 N 
ATOM     21  H   UNL     1      46.770   8.111  14.008  0.00  0.00    +0.000 HD
BRANCH  19  22
ATOM     22  C   UNL     1      48.106   9.144  12.075  0.00  0.00    +0.000 A 
ATOM     23  C   UNL     1      49.241   9.777  11.586  0.00  0.00    +0.000 A 
ATOM     24  S   UNL     1      48.961  11.379  11.071  0.00  0.00    +0.000 S 
ATOM     25  C   UNL     1      47.304  11.269  11.447  0.00  0.00    +0.000 A 
ATOM     26  N   UNL     1      46.462  12.308  11.210  0.00  0.00    +0.000 NA
ATOM     27  C   UNL     1      45.228  12.073  11.503  0.00  0.00    +0.000 A 
ATOM     28  N   UNL     1      44.759  10.896  12.027  0.00  0.00    +0.000 N 
ATOM     29  C   UNL     1      45.587   9.849  12.364  0.00  0.00    +0.000 A 
ATOM     30  O   UNL     1      45.157   8.874  12.970  0.00  0.00    +0.000 OA
ATOM     31  C   UNL     1      46.976  10.039  11.994  0.00  0.00    +0.000 A 
ATOM     32  H   UNL     1      43.785  10.789  12.273  0.00  0.00    +0.000 HD
ENDBRANCH  19  22
ENDBRANCH   1  20
TORSDOF 7
ENDMDL
MODEL 4
REMARK VINA RESULT:    -7.184      1.903      3.053
REMARK INTER + INTRA:         -11.424
REMARK INTER:                 -10.463
REMARK INTRA:                  -0.961
REMARK UNBOUND:                -1.300
REMARK  Name = 
REMARK  7 active torsions:
REMARK  status: ('A' for Active; 'I' for Inactive)
REMARK    1  A    between atoms: C_2  and  C_20
REMARK    2  A    between atoms: N_3  and  C_4
REMARK    3  A    between atoms: C_4  and  C_5
REMARK    4  A    between atoms: C_8  and  C_9
REMARK    5  A    between atoms: C_9  and  N_10
REMARK    6  A    between atoms: N_10  and  C_11
REMARK    7  A    between atoms: C_11  and  C_12
REMARK                            x       y       z     vdW  Elec       q    Type
REMARK                         _______ _______ _______ _____ _____    ______ ____
ROOT
ATOM      1  C   UNL     1      47.332   3.889  15.212  0.00  0.00    +0.000 C 
ENDROOT
BRANCH   1   2
ATOM      2  C   UNL     1      46.674   4.365  13.943  0.00  0.00    +0.000 A 
ATOM      3  C   UNL     1      46.722   5.719  13.590  0.00  0.00    +0.000 A 
ATOM      4  C   UNL     1      46.143   6.163  12.399  0.00  0.00    +0.000 A 
ATOM      5  C   UNL     1      45.496   5.266  11.537  0.00  0.00    +0.000 A 
ATOM      6  C   UNL     1      45.416   3.917  11.910  0.00  0.00    +0.000 A 
ATOM      7  C   UNL     1      45.994   3.473  13.105  0.00  0.00    +0.000 A 
BRANCH   5   8
ATOM      8  C   UNL     1      44.887   5.753  10.241  0.00  0.00    +0.000 C 
BRANCH   8   9
ATOM      9  N   UNL     1      45.593   5.198   9.088  0.00  0.00    +0.000 NA
ATOM     10  H   UNL     1      46.500   4.848   9.394  0.00  0.00    +0.000 HD
BRANCH   9  11
ATOM     11  C   UNL     1      44.842   4.113   8.460  0.00  0.00    +0.000 C 
BRANCH  11  12
ATOM     12  C   UNL     1      45.772   3.056   7.924  0.00  0.00    +0.000 A 
ATOM     13  C   UNL     1      46.691   3.336   6.907  0.00  0.00    +0.000 A 
ATOM     14  C   UNL     1      47.552   2.340   6.456  0.00  0.00    +0.000 A 
ATOM     15  C   UNL     1      47.461   1.085   7.033  0.00  0.00    +0.000 A 
ATOM     16  N   UNL     1      46.576   0.767   8.001  0.00  0.00    +0.000 NA
ATOM     17  C   UNL     1      45.755   1.757   8.422  0.00  0.00    +0.000 A 
ENDBRANCH  11  12
ENDBRANCH   9  11
ENDBRANCH   8   9
ENDBRANCH   5   8
ENDBRANCH   1   2
BRANCH   1  20
ATOM     18  O   UNL     1      47.688   3.721  17.998  0.00  0.00    +0.000 OA
ATOM     19  C   UNL     1      47.829   4.808  17.444  0.00  0.00    +0.000 C 
ATOM     20  N   UNL     1      47.625   4.985  16.100  0.00  0.00    +0.000 N 
ATOM     21  H   UNL     1      47.923   5.849  15.661  0.00  0.00    +0.000 HD
BRANCH  19  22
ATOM     22  C   UNL     1      48.175   6.012  18.210  0.00  0.00    +0.000 A 
ATOM     23  C   UNL     1      47.411   6.370  19.312  0.00  0.00    +0.000 A 
ATOM     24  S   UNL     1      47.955   7.788  20.088  0.00  0.00    +0.000 S 
ATOM     25  C   UNL     1      49.255   7.951  19.000  0.00  0.00    +0.000 A 
ATOM     26  N   UNL     1      50.151   8.964  19.127  0.00  0.00    +0.000 NA
ATOM     27  C   UNL     1      51.107   8.942  18.261  0.00  0.00    +0.000 A 
ATOM     28  N   UNL     1      51.242   8.007  17.268  0.00  0.00    +0.000 N 
ATOM     29  C   UNL     1      50.312   7.015  17.048  0.00  0.00    +0.000 A 
ATOM     30  O   UNL     1      50.382   6.292  16.060  0.00  0.00    +0.000 OA
ATOM     31  C   UNL     1      49.251   6.958  18.035  0.00  0.00    +0.000 A 
ATOM     32  H   UNL     1      51.993   8.069  16.595  0.00  0.00    +0.000 HD
ENDBRANCH  19  22
ENDBRANCH   1  20
TORSDOF 7
ENDMDL
MODEL 5
REMARK VINA RESULT:    -7.104      2.151      2.910
REMARK INTER + INTRA:         -11.312
REMARK INTER:                 -10.317
REMARK INTRA:                  -0.995
REMARK UNBOUND:                -1.300
REMARK  Name = 
REMARK  7 active torsions:
REMARK  status: ('A' for Active; 'I' for Inactive)
REMARK    1  A    between atoms: C_2  and  C_20
REMARK    2  A    between atoms: N_3  and  C_4
REMARK    3  A    between atoms: C_4  and  C_5
REMARK    4  A    between atoms: C_8  and  C_9
REMARK    5  A    between atoms: C_9  and  N_10
REMARK    6  A    between atoms: N_10  and  C_11
REMARK    7  A    between atoms: C_11  and  C_12
REMARK                            x       y       z     vdW  Elec       q    Type
REMARK                         _______ _______ _______ _____ _____    ______ ____
ROOT
ATOM      1  C   UNL     1      47.341   4.357  15.347  0.00  0.00    +0.000 C 
ENDROOT
BRANCH   1   2
ATOM      2  C   UNL     1      46.714   4.709  14.023  0.00  0.00    +0.000 A 
ATOM      3  C   UNL     1      45.997   3.745  13.304  0.00  0.00    +0.000 A 
ATOM      4  C   UNL     1      45.385   4.072  12.092  0.00  0.00    +0.000 A 
ATOM      5  C   UNL     1      45.482   5.369  11.566  0.00  0.00    +0.000 A 
ATOM      6  C   UNL     1      46.231   6.323  12.268  0.00  0.00    +0.000 A 
ATOM      7  C   UNL     1      46.847   5.994  13.481  0.00  0.00    +0.000 A 
BRANCH   5   8
ATOM      8  C   UNL     1      44.801   5.719  10.262  0.00  0.00    +0.000 C 
BRANCH   8   9
ATOM      9  N   UNL     1      45.547   5.190   9.122  0.00  0.00    +0.000 NA
ATOM     10  H   UNL     1      46.439   4.823   9.453  0.00  0.00    +0.000 HD
BRANCH   9  11
ATOM     11  C   UNL     1      44.813   4.130   8.435  0.00  0.00    +0.000 C 
BRANCH  11  12
ATOM     12  C   UNL     1      45.754   3.078   7.910  0.00  0.00    +0.000 A 
ATOM     13  C   UNL     1      46.657   3.351   6.878  0.00  0.00    +0.000 A 
ATOM     14  C   UNL     1      47.530   2.361   6.437  0.00  0.00    +0.000 A 
ATOM     15  C   UNL     1      47.467   1.117   7.041  0.00  0.00    +0.000 A 
ATOM     16  N   UNL     1      46.598   0.804   8.025  0.00  0.00    +0.000 NA
ATOM     17  C   UNL     1      45.765   1.789   8.435  0.00  0.00    +0.000 A 
ENDBRANCH  11  12
ENDBRANCH   9  11
ENDBRANCH   8   9
ENDBRANCH   5   8
ENDBRANCH   1   2
BRANCH   1  20
ATOM     18  O   UNL     1      49.792   4.608  16.706  0.00  0.00    +0.000 OA
ATOM     19  C   UNL     1      49.048   5.582  16.635  0.00  0.00    +0.000 C 
ATOM     20  N   UNL     1      47.816   5.529  16.036  0.00  0.00    +0.000 N 
ATOM     21  H   UNL     1      47.319   6.392  15.845  0.00  0.00    +0.000 HD
BRANCH  19  22
ATOM     22  C   UNL     1      49.415   6.865  17.248  0.00  0.00    +0.000 A 
ATOM     23  C   UNL     1      50.504   7.574  16.760  0.00  0.00    +0.000 A 
ATOM     24  S   UNL     1      50.786   9.043  17.579  0.00  0.00    +0.000 S 
ATOM     25  C   UNL     1      49.437   8.801  18.590  0.00  0.00    +0.000 A 
ATOM     26  N   UNL     1      49.084   9.726  19.520  0.00  0.00    +0.000 NA
ATOM     27  C   UNL     1      48.019   9.434  20.187  0.00  0.00    +0.000 A 
ATOM     28  N   UNL     1      47.280   8.291  20.019  0.00  0.00    +0.000 N 
ATOM     29  C   UNL     1      47.647   7.288  19.150  0.00  0.00    +0.000 A 
ATOM     30  O   UNL     1      47.052   6.217  19.136  0.00  0.00    +0.000 OA
ATOM     31  C   UNL     1      48.803   7.597  18.330  0.00  0.00    +0.000 A 
ATOM     32  H   UNL     1      46.477   8.103  20.602  0.00  0.00    +0.000 HD
ENDBRANCH  19  22
ENDBRANCH   1  20
TORSDOF 7
ENDMDL
MODEL 6
REMARK VINA RESULT:    -7.099      3.404      8.156
REMARK INTER + INTRA:         -11.304
REMARK INTER:                  -9.760
REMARK INTRA:                  -1.544
REMARK UNBOUND:                -1.300
REMARK  Name = 
REMARK  7 active torsions:
REMARK  status: ('A' for Active; 'I' for Inactive)
REMARK    1  A    between atoms: C_2  and  C_20
REMARK    2  A    between atoms: N_3  and  C_4
REMARK    3  A    between atoms: C_4  and  C_5
REMARK    4  A    between atoms: C_8  and  C_9
REMARK    5  A    between atoms: C_9  and  N_10
REMARK    6  A    between atoms: N_10  and  C_11
REMARK    7  A    between atoms: C_11  and  C_12
REMARK                            x       y       z     vdW  Elec       q    Type
REMARK                         _______ _______ _______ _____ _____    ______ ____
ROOT
ATOM      1  C   UNL     1      48.415   8.057  12.014  0.00  0.00    +0.000 C 
ENDROOT
BRANCH   1   2
ATOM      2  C   UNL     1      48.545   7.991  13.513  0.00  0.00    +0.000 A 
ATOM      3  C   UNL     1      48.003   9.004  14.313  0.00  0.00    +0.000 A 
ATOM      4  C   UNL     1      48.091   8.934  15.705  0.00  0.00    +0.000 A 
ATOM      5  C   UNL     1      48.729   7.852  16.330  0.00  0.00    +0.000 A 
ATOM      6  C   UNL     1      49.303   6.857  15.528  0.00  0.00    +0.000 A 
ATOM      7  C   UNL     1      49.218   6.929  14.133  0.00  0.00    +0.000 A 
BRANCH   5   8
ATOM      8  C   UNL     1      48.803   7.776  17.839  0.00  0.00    +0.000 C 
BRANCH   8   9
ATOM      9  N   UNL     1      47.580   7.203  18.396  0.00  0.00    +0.000 NA
ATOM     10  H   UNL     1      46.948   6.966  17.631  0.00  0.00    +0.000 HD
BRANCH   9  11
ATOM     11  C   UNL     1      47.850   6.005  19.189  0.00  0.00    +0.000 C 
BRANCH  11  12
ATOM     12  C   UNL     1      48.093   4.815  18.298  0.00  0.00    +0.000 A 
ATOM     13  C   UNL     1      49.316   4.137  18.297  0.00  0.00    +0.000 A 
ATOM     14  C   UNL     1      49.494   3.025  17.479  0.00  0.00    +0.000 A 
ATOM     15  C   UNL     1      48.439   2.628  16.676  0.00  0.00    +0.000 A 
ATOM     16  N   UNL     1      47.249   3.264  16.631  0.00  0.00    +0.000 NA
ATOM     17  C   UNL     1      47.105   4.339  17.441  0.00  0.00    +0.000 A 
ENDBRANCH  11  12
ENDBRANCH   9  11
ENDBRANCH   8   9
ENDBRANCH   5   8
ENDBRANCH   1   2
BRANCH   1  20
ATOM     18  O   UNL     1      45.616   7.934  11.758  0.00  0.00    +0.000 OA
ATOM     19  C   UNL     1      46.291   6.987  11.365  0.00  0.00    +0.000 C 
ATOM     20  N   UNL     1      47.655   6.946  11.499  0.00  0.00    +0.000 N 
ATOM     21  H   UNL     1      48.182   6.234  11.006  0.00  0.00    +0.000 HD
BRANCH  19  22
ATOM     22  C   UNL     1      45.664   5.800  10.771  0.00  0.00    +0.000 A 
ATOM     23  C   UNL     1      45.868   5.512   9.429  0.00  0.00    +0.000 A 
ATOM     24  S   UNL     1      45.073   4.097   8.905  0.00  0.00    +0.000 S 
ATOM     25  C   UNL     1      44.461   3.797  10.465  0.00  0.00    +0.000 A 
ATOM     26  N   UNL     1      43.709   2.695  10.723  0.00  0.00    +0.000 NA
ATOM     27  C   UNL     1      43.348   2.572  11.955  0.00  0.00    +0.000 A 
ATOM     28  N   UNL     1      43.657   3.458  12.954  0.00  0.00    +0.000 N 
ATOM     29  C   UNL     1      44.342   4.630  12.723  0.00  0.00    +0.000 A 
ATOM     30  O   UNL     1      44.469   5.472  13.605  0.00  0.00    +0.000 OA
ATOM     31  C   UNL     1      44.827   4.784  11.365  0.00  0.00    +0.000 A 
ATOM     32  H   UNL     1      43.309   3.324  13.892  0.00  0.00    +0.000 HD
ENDBRANCH  19  22
ENDBRANCH   1  20
TORSDOF 7
ENDMDL
MODEL 7
REMARK VINA RESULT:    -7.069      2.692      4.541
REMARK INTER + INTRA:         -11.263
REMARK INTER:                 -10.035
REMARK INTRA:                  -1.227
REMARK UNBOUND:                -1.300
REMARK  Name = 
REMARK  7 active torsions:
REMARK  status: ('A' for Active; 'I' for Inactive)
REMARK    1  A    between atoms: C_2  and  C_20
REMARK    2  A    between atoms: N_3  and  C_4
REMARK    3  A    between atoms: C_4  and  C_5
REMARK    4  A    between atoms: C_8  and  C_9
REMARK    5  A    between atoms: C_9  and  N_10
REMARK    6  A    between atoms: N_10  and  C_11
REMARK    7  A    between atoms: C_11  and  C_12
REMARK                            x       y       z     vdW  Elec       q    Type
REMARK                         _______ _______ _______ _____ _____    ______ ____
ROOT
ATOM      1  C   UNL     1      47.692   5.564  14.436  0.00  0.00    +0.000 C 
ENDROOT
BRANCH   1   2
ATOM      2  C   UNL     1      46.596   5.190  13.473  0.00  0.00    +0.000 A 
ATOM      3  C   UNL     1      46.293   3.843  13.238  0.00  0.00    +0.000 A 
ATOM      4  C   UNL     1      45.257   3.489  12.371  0.00  0.00    +0.000 A 
ATOM      5  C   UNL     1      44.503   4.472  11.713  0.00  0.00    +0.000 A 
ATOM      6  C   UNL     1      44.832   5.819  11.920  0.00  0.00    +0.000 A 
ATOM      7  C   UNL     1      45.873   6.173  12.786  0.00  0.00    +0.000 A 
BRANCH   5   8
ATOM      8  C   UNL     1      43.371   4.079  10.791  0.00  0.00    +0.000 C 
BRANCH   8   9
ATOM      9  N   UNL     1      43.846   3.206   9.719  0.00  0.00    +0.000 NA
ATOM     10  H   UNL     1      43.041   2.808   9.237  0.00  0.00    +0.000 HD
BRANCH   9  11
ATOM     11  C   UNL     1      44.679   3.926   8.758  0.00  0.00    +0.000 C 
BRANCH  11  12
ATOM     12  C   UNL     1      45.701   3.008   8.140  0.00  0.00    +0.000 A 
ATOM     13  C   UNL     1      46.611   3.465   7.180  0.00  0.00    +0.000 A 
ATOM     14  C   UNL     1      47.558   2.593   6.651  0.00  0.00    +0.000 A 
ATOM     15  C   UNL     1      47.560   1.282   7.093  0.00  0.00    +0.000 A 
ATOM     16  N   UNL     1      46.688   0.795   8.002  0.00  0.00    +0.000 NA
ATOM     17  C   UNL     1      45.783   1.667   8.501  0.00  0.00    +0.000 A 
ENDBRANCH  11  12
ENDBRANCH   9  11
ENDBRANCH   8   9
ENDBRANCH   5   8
ENDBRANCH   1   2
BRANCH   1  20
ATOM     18  O   UNL     1      50.148   6.798  15.039  0.00  0.00    +0.000 OA
ATOM     19  C   UNL     1      49.206   7.495  14.669  0.00  0.00    +0.000 C 
ATOM     20  N   UNL     1      47.964   6.978  14.405  0.00  0.00    +0.000 N 
ATOM     21  H   UNL     1      47.275   7.556  13.936  0.00  0.00    +0.000 HD
BRANCH  19  22
ATOM     22  C   UNL     1      49.342   8.951  14.541  0.00  0.00    +0.000 A 
ATOM     23  C   UNL     1      49.756   9.702  15.632  0.00  0.00    +0.000 A 
ATOM     24  S   UNL     1      49.866  11.374  15.309  0.00  0.00    +0.000 S 
ATOM     25  C   UNL     1      49.401  11.146  13.687  0.00  0.00    +0.000 A 
ATOM     26  N   UNL     1      49.328  12.194  12.826  0.00  0.00    +0.000 NA
ATOM     27  C   UNL     1      49.005  11.872  11.619  0.00  0.00    +0.000 A 
ATOM     28  N   UNL     1      48.732  10.597  11.196  0.00  0.00    +0.000 N 
ATOM     29  C   UNL     1      48.709   9.518  12.051  0.00  0.00    +0.000 A 
ATOM     30  O   UNL     1      48.312   8.421  11.673  0.00  0.00    +0.000 OA
ATOM     31  C   UNL     1      49.129   9.817  13.406  0.00  0.00    +0.000 A 
ATOM     32  H   UNL     1      48.445  10.417  10.245  0.00  0.00    +0.000 HD
ENDBRANCH  19  22
ENDBRANCH   1  20
TORSDOF 7
ENDMDL
MODEL 8
REMARK VINA RESULT:    -7.062      2.856      4.313
REMARK INTER + INTRA:         -11.252
REMARK INTER:                 -10.863
REMARK INTRA:                  -0.389
REMARK UNBOUND:                -1.300
REMARK  Name = 
REMARK  7 active torsions:
REMARK  status: ('A' for Active; 'I' for Inactive)
REMARK    1  A    between atoms: C_2  and  C_20
REMARK    2  A    between atoms: N_3  and  C_4
REMARK    3  A    between atoms: C_4  and  C_5
REMARK    4  A    between atoms: C_8  and  C_9
REMARK    5  A    between atoms: C_9  and  N_10
REMARK    6  A    between atoms: N_10  and  C_11
REMARK    7  A    between atoms: C_11  and  C_12
REMARK                            x       y       z     vdW  Elec       q    Type
REMARK                         _______ _______ _______ _____ _____    ______ ____
ROOT
ATOM      1  C   UNL     1      44.193   5.167  10.946  0.00  0.00    +0.000 C 
ENDROOT
BRANCH   1   2
ATOM      2  C   UNL     1      44.780   4.240   9.915  0.00  0.00    +0.000 A 
ATOM      3  C   UNL     1      45.412   4.758   8.778  0.00  0.00    +0.000 A 
ATOM      4  C   UNL     1      45.987   3.905   7.834  0.00  0.00    +0.000 A 
ATOM      5  C   UNL     1      45.940   2.513   8.001  0.00  0.00    +0.000 A 
ATOM      6  C   UNL     1      45.276   1.994   9.121  0.00  0.00    +0.000 A 
ATOM      7  C   UNL     1      44.696   2.849  10.065  0.00  0.00    +0.000 A 
BRANCH   5   8
ATOM      8  C   UNL     1      46.582   1.597   6.983  0.00  0.00    +0.000 C 
BRANCH   8   9
ATOM      9  N   UNL     1      46.662   2.242   5.674  0.00  0.00    +0.000 NA
ATOM     10  H   UNL     1      47.002   3.196   5.796  0.00  0.00    +0.000 HD
BRANCH   9  11
ATOM     11  C   UNL     1      47.553   1.524   4.766  0.00  0.00    +0.000 C 
BRANCH  11  12
ATOM     12  C   UNL     1      46.767   0.670   3.806  0.00  0.00    +0.000 A 
ATOM     13  C   UNL     1      45.833   1.226   2.926  0.00  0.00    +0.000 A 
ATOM     14  C   UNL     1      45.144   0.407   2.036  0.00  0.00    +0.000 A 
ATOM     15  C   UNL     1      45.408  -0.952   2.058  0.00  0.00    +0.000 A 
ATOM     16  N   UNL     1      46.286  -1.532   2.904  0.00  0.00    +0.000 NA
ATOM     17  C   UNL     1      46.942  -0.710   3.755  0.00  0.00    +0.000 A 
ENDBRANCH  11  12
ENDBRANCH   9  11
ENDBRANCH   8   9
ENDBRANCH   5   8
ENDBRANCH   1   2
BRANCH   1  20
ATOM     18  O   UNL     1      46.656   6.523  10.847  0.00  0.00    +0.000 OA
ATOM     19  C   UNL     1      46.260   6.088  11.924  0.00  0.00    +0.000 C 
ATOM     20  N   UNL     1      45.096   5.373  12.049  0.00  0.00    +0.000 N 
ATOM     21  H   UNL     1      44.722   5.191  12.974  0.00  0.00    +0.000 HD
BRANCH  19  22
ATOM     22  C   UNL     1      47.047   6.261  13.151  0.00  0.00    +0.000 A 
ATOM     23  C   UNL     1      47.620   7.494  13.433  0.00  0.00    +0.000 A 
ATOM     24  S   UNL     1      48.494   7.522  14.898  0.00  0.00    +0.000 S 
ATOM     25  C   UNL     1      48.103   5.897  15.226  0.00  0.00    +0.000 A 
ATOM     26  N   UNL     1      48.519   5.294  16.370  0.00  0.00    +0.000 NA
ATOM     27  C   UNL     1      48.116   4.077  16.508  0.00  0.00    +0.000 A 
ATOM     28  N   UNL     1      47.346   3.399  15.599  0.00  0.00    +0.000 N 
ATOM     29  C   UNL     1      46.974   3.940  14.388  0.00  0.00    +0.000 A 
ATOM     30  O   UNL     1      46.419   3.257  13.536  0.00  0.00    +0.000 OA
ATOM     31  C   UNL     1      47.348   5.330  14.212  0.00  0.00    +0.000 A 
ATOM     32  H   UNL     1      47.097   2.432  15.749  0.00  0.00    +0.000 HD
ENDBRANCH  19  22
ENDBRANCH   1  20
TORSDOF 7
ENDMDL
MODEL 9
REMARK VINA RESULT:    -6.827      4.471      6.588
REMARK INTER + INTRA:         -10.921
REMARK INTER:                 -10.653
REMARK INTRA:                  -0.267
REMARK UNBOUND:                -1.300
REMARK  Name = 
REMARK  7 active torsions:
REMARK  status: ('A' for Active; 'I' for Inactive)
REMARK    1  A    between atoms: C_2  and  C_20
REMARK    2  A    between atoms: N_3  and  C_4
REMARK    3  A    between atoms: C_4  and  C_5
REMARK    4  A    between atoms: C_8  and  C_9
REMARK    5  A    between atoms: C_9  and  N_10
REMARK    6  A    between atoms: N_10  and  C_11
REMARK    7  A    between atoms: C_11  and  C_12
REMARK                            x       y       z     vdW  Elec       q    Type
REMARK                         _______ _______ _______ _____ _____    ______ ____
ROOT
ATOM      1  C   UNL     1      43.686   4.760  10.301  0.00  0.00    +0.000 C 
ENDROOT
BRANCH   1   2
ATOM      2  C   UNL     1      44.551   3.852   9.467  0.00  0.00    +0.000 A 
ATOM      3  C   UNL     1      45.504   4.391   8.595  0.00  0.00    +0.000 A 
ATOM      4  C   UNL     1      46.332   3.556   7.842  0.00  0.00    +0.000 A 
ATOM      5  C   UNL     1      46.222   2.160   7.939  0.00  0.00    +0.000 A 
ATOM      6  C   UNL     1      45.243   1.622   8.785  0.00  0.00    +0.000 A 
ATOM      7  C   UNL     1      44.411   2.460   9.536  0.00  0.00    +0.000 A 
BRANCH   5   8
ATOM      8  C   UNL     1      47.136   1.263   7.134  0.00  0.00    +0.000 C 
BRANCH   8   9
ATOM      9  N   UNL     1      47.827   2.018   6.091  0.00  0.00    +0.000 NA
ATOM     10  H   UNL     1      48.599   1.456   5.733  0.00  0.00    +0.000 HD
BRANCH   9  11
ATOM     11  C   UNL     1      46.933   2.371   4.990  0.00  0.00    +0.000 C 
BRANCH  11  12
ATOM     12  C   UNL     1      46.676   1.180   4.104  0.00  0.00    +0.000 A 
ATOM     13  C   UNL     1      47.247  -0.069   4.370  0.00  0.00    +0.000 A 
ATOM     14  C   UNL     1      46.964  -1.152   3.544  0.00  0.00    +0.000 A 
ATOM     15  C   UNL     1      46.122  -0.950   2.464  0.00  0.00    +0.000 A 
ATOM     16  N   UNL     1      45.566   0.242   2.159  0.00  0.00    +0.000 NA
ATOM     17  C   UNL     1      45.856   1.275   2.984  0.00  0.00    +0.000 A 
ENDBRANCH  11  12
ENDBRANCH   9  11
ENDBRANCH   8   9
ENDBRANCH   5   8
ENDBRANCH   1   2
BRANCH   1  20
ATOM     18  O   UNL     1      44.003   5.766  12.910  0.00  0.00    +0.000 OA
ATOM     19  C   UNL     1      44.532   6.360  11.975  0.00  0.00    +0.000 C 
ATOM     20  N   UNL     1      44.385   5.965  10.670  0.00  0.00    +0.000 N 
ATOM     21  H   UNL     1      44.978   6.374   9.957  0.00  0.00    +0.000 HD
BRANCH  19  22
ATOM     22  C   UNL     1      45.319   7.579  12.196  0.00  0.00    +0.000 A 
ATOM     23  C   UNL     1      46.511   7.510  12.906  0.00  0.00    +0.000 A 
ATOM     24  S   UNL     1      47.299   9.014  13.064  0.00  0.00    +0.000 S 
ATOM     25  C   UNL     1      46.095   9.804  12.156  0.00  0.00    +0.000 A 
ATOM     26  N   UNL     1      46.182  11.132  11.882  0.00  0.00    +0.000 NA
ATOM     27  C   UNL     1      45.223  11.590  11.151  0.00  0.00    +0.000 A 
ATOM     28  N   UNL     1      44.174  10.844  10.678  0.00  0.00    +0.000 N 
ATOM     29  C   UNL     1      43.999   9.517  11.002  0.00  0.00    +0.000 A 
ATOM     30  O   UNL     1      42.974   8.921  10.691  0.00  0.00    +0.000 OA
ATOM     31  C   UNL     1      45.085   8.938  11.770  0.00  0.00    +0.000 A 
ATOM     32  H   UNL     1      43.433  11.272  10.143  0.00  0.00    +0.000 HD
ENDBRANCH  19  22
ENDBRANCH   1  20
TORSDOF 7
ENDMDL
