MODEL 1
REMARK VINA RESULT:    -8.374      0.000      0.000
REMARK INTER + INTRA:         -11.589
REMARK INTER:                 -10.822
REMARK INTRA:                  -0.767
REMARK UNBOUND:                -0.767
REMARK  Name = 
REMARK  5 active torsions:
REMARK  status: ('A' for Active; 'I' for Inactive)
REMARK    1  A    between atoms: C_2  and  C_4
REMARK    2  A    between atoms: C_7  and  C_8
REMARK    3  A    between atoms: C_8  and  N_9
REMARK    4  A    between atoms: N_9  and  C_10
REMARK    5  A    between atoms: C_14  and  C_15
REMARK                            x       y       z     vdW  Elec       q    Type
REMARK                         _______ _______ _______ _____ _____    ______ ____
ROOT
ATOM      1  N   UNL     1      44.265   5.454  10.773  0.00  0.00    +0.000 N 
ATOM      2  H   UNL     1      43.535   6.109  11.047  0.00  0.00    +0.000 HD
ENDROOT
BRANCH   1   3
ATOM      3  C   UNL     1      45.278   5.364  11.739  0.00  0.00    +0.000 A 
ATOM      4  C   UNL     1      45.081   4.596  12.890  0.00  0.00    +0.000 A 
ATOM      5  N   UNL     1      45.954   4.491  13.918  0.00  0.00    +0.000 NA
ATOM      6  C   UNL     1      47.072   5.245  13.832  0.00  0.00    +0.000 A 
ATOM      7  C   UNL     1      47.375   6.110  12.779  0.00  0.00    +0.000 A 
ATOM      8  C   UNL     1      46.445   6.138  11.719  0.00  0.00    +0.000 A 
BRANCH   7   9
ATOM      9  C   UNL     1      48.557   7.000  12.813  0.00  0.00    +0.000 A 
ATOM     10  C   UNL     1      49.268   7.246  14.001  0.00  0.00    +0.000 A 
ATOM     11  C   UNL     1      50.428   8.030  14.008  0.00  0.00    +0.000 A 
ATOM     12  C   UNL     1      50.895   8.599  12.827  0.00  0.00    +0.000 A 
ATOM     13  C   UNL     1      50.198   8.393  11.640  0.00  0.00    +0.000 A 
ATOM     14  C   UNL     1      49.043   7.604  11.637  0.00  0.00    +0.000 A 
ENDBRANCH   7   9
ENDBRANCH   1   3
BRANCH   1  15
ATOM     15  C   UNL     1      43.691   4.229  10.228  0.00  0.00    +0.000 C 
BRANCH  15  19
ATOM     16  C   UNL     1      46.556   2.430   7.521  0.00  0.00    +0.000 A 
ATOM     17  C   UNL     1      46.295   3.802   7.459  0.00  0.00    +0.000 A 
ATOM     18  C   UNL     1      45.363   4.376   8.330  0.00  0.00    +0.000 A 
ATOM     19  C   UNL     1      44.679   3.591   9.273  0.00  0.00    +0.000 A 
ATOM     20  C   UNL     1      44.934   2.212   9.315  0.00  0.00    +0.000 A 
ATOM     21  C   UNL     1      45.862   1.635   8.442  0.00  0.00    +0.000 A 
BRANCH  16  23
ATOM     22  N   UNL     1      48.703   2.447   6.363  0.00  0.00    +0.000 N 
ATOM     23  C   UNL     1      47.543   1.771   6.624  0.00  0.00    +0.000 C 
ATOM     24  O   UNL     1      47.352   0.651   6.168  0.00  0.00    +0.000 OA
ATOM     25  H   UNL     1      49.409   1.938   5.847  0.00  0.00    +0.000 HD
ATOM     26  H   UNL     1      49.004   3.237   6.914  0.00  0.00    +0.000 HD
ENDBRANCH  16  23
ENDBRANCH  15  19
ENDBRANCH   1  15
TORSDOF 5
ENDMDL
MODEL 2
REMARK VINA RESULT:    -8.270      1.437      1.747
REMARK INTER + INTRA:         -11.454
REMARK INTER:                 -10.651
REMARK INTRA:                  -0.803
REMARK UNBOUND:                -0.767
REMARK  Name = 
REMARK  5 active torsions:
REMARK  status: ('A' for Active; 'I' for Inactive)
REMARK    1  A    between atoms: C_2  and  C_4
REMARK    2  A    between atoms: C_7  and  C_8
REMARK    3  A    between atoms: C_8  and  N_9
REMARK    4  A    between atoms: N_9  and  C_10
REMARK    5  A    between atoms: C_14  and  C_15
REMARK                            x       y       z     vdW  Elec       q    Type
REMARK                         _______ _______ _______ _____ _____    ______ ____
ROOT
ATOM      1  N   UNL     1      44.259   4.107  11.648  0.00  0.00    +0.000 N 
ATOM      2  H   UNL     1      44.240   3.107  11.834  0.00  0.00    +0.000 HD
ENDROOT
BRANCH   1   3
ATOM      3  C   UNL     1      45.420   4.713  12.148  0.00  0.00    +0.000 A 
ATOM      4  C   UNL     1      46.146   4.096  13.171  0.00  0.00    +0.000 A 
ATOM      5  N   UNL     1      47.237   4.617  13.780  0.00  0.00    +0.000 NA
ATOM      6  C   UNL     1      47.600   5.861  13.393  0.00  0.00    +0.000 A 
ATOM      7  C   UNL     1      46.934   6.627  12.435  0.00  0.00    +0.000 A 
ATOM      8  C   UNL     1      45.833   6.007  11.808  0.00  0.00    +0.000 A 
BRANCH   7   9
ATOM      9  C   UNL     1      47.314   8.029  12.153  0.00  0.00    +0.000 A 
ATOM     10  C   UNL     1      48.625   8.386  11.793  0.00  0.00    +0.000 A 
ATOM     11  C   UNL     1      48.957   9.704  11.457  0.00  0.00    +0.000 A 
ATOM     12  C   UNL     1      47.985  10.700  11.487  0.00  0.00    +0.000 A 
ATOM     13  C   UNL     1      46.684  10.380  11.863  0.00  0.00    +0.000 A 
ATOM     14  C   UNL     1      46.356   9.061  12.192  0.00  0.00    +0.000 A 
ENDBRANCH   7   9
ENDBRANCH   1   3
BRANCH   1  15
ATOM     15  C   UNL     1      43.841   4.392  10.280  0.00  0.00    +0.000 C 
BRANCH  15  19
ATOM     16  C   UNL     1      46.599   2.480   7.539  0.00  0.00    +0.000 A 
ATOM     17  C   UNL     1      46.463   3.872   7.543  0.00  0.00    +0.000 A 
ATOM     18  C   UNL     1      45.565   4.483   8.425  0.00  0.00    +0.000 A 
ATOM     19  C   UNL     1      44.792   3.716   9.312  0.00  0.00    +0.000 A 
ATOM     20  C   UNL     1      44.921   2.320   9.287  0.00  0.00    +0.000 A 
ATOM     21  C   UNL     1      45.816   1.706   8.403  0.00  0.00    +0.000 A 
BRANCH  16  23
ATOM     22  N   UNL     1      48.664   2.465   6.239  0.00  0.00    +0.000 N 
ATOM     23  C   UNL     1      47.545   1.781   6.628  0.00  0.00    +0.000 C 
ATOM     24  O   UNL     1      47.360   0.625   6.270  0.00  0.00    +0.000 OA
ATOM     25  H   UNL     1      49.350   1.936   5.715  0.00  0.00    +0.000 HD
ATOM     26  H   UNL     1      48.976   3.302   6.708  0.00  0.00    +0.000 HD
ENDBRANCH  16  23
ENDBRANCH  15  19
ENDBRANCH   1  15
TORSDOF 5
ENDMDL
MODEL 3
REMARK VINA RESULT:    -7.833      2.932      6.900
REMARK INTER + INTRA:         -10.889
REMARK INTER:                 -10.129
REMARK INTRA:                  -0.760
REMARK UNBOUND:                -0.767
REMARK  Name = 
REMARK  5 active torsions:
REMARK  status: ('A' for Active; 'I' for Inactive)
REMARK    1  A    between atoms: C_2  and  C_4
REMARK    2  A    between atoms: C_7  and  C_8
REMARK    3  A    between atoms: C_8  and  N_9
REMARK    4  A    between atoms: N_9  and  C_10
REMARK    5  A    between atoms: C_14  and  C_15
REMARK                            x       y       z     vdW  Elec       q    Type
REMARK                         _______ _______ _______ _____ _____    ______ ____
ROOT
ATOM      1  N   UNL     1      43.994   6.165  11.012  0.00  0.00    +0.000 N 
ATOM      2  H   UNL     1      44.422   6.821  10.362  0.00  0.00    +0.000 HD
ENDROOT
BRANCH   1   3
ATOM      3  C   UNL     1      44.053   4.846  10.541  0.00  0.00    +0.000 A 
ATOM      4  C   UNL     1      43.437   3.818  11.260  0.00  0.00    +0.000 A 
ATOM      5  N   UNL     1      43.486   2.503  10.943  0.00  0.00    +0.000 NA
ATOM      6  C   UNL     1      44.248   2.174   9.875  0.00  0.00    +0.000 A 
ATOM      7  C   UNL     1      44.975   3.080   9.102  0.00  0.00    +0.000 A 
ATOM      8  C   UNL     1      44.844   4.439   9.459  0.00  0.00    +0.000 A 
BRANCH   7   9
ATOM      9  C   UNL     1      45.888   2.634   8.026  0.00  0.00    +0.000 A 
ATOM     10  C   UNL     1      46.459   1.349   8.021  0.00  0.00    +0.000 A 
ATOM     11  C   UNL     1      47.262   0.911   6.962  0.00  0.00    +0.000 A 
ATOM     12  C   UNL     1      47.526   1.756   5.887  0.00  0.00    +0.000 A 
ATOM     13  C   UNL     1      46.994   3.042   5.877  0.00  0.00    +0.000 A 
ATOM     14  C   UNL     1      46.187   3.473   6.934  0.00  0.00    +0.000 A 
ENDBRANCH   7   9
ENDBRANCH   1   3
BRANCH   1  15
ATOM     15  C   UNL     1      44.398   6.449  12.384  0.00  0.00    +0.000 C 
BRANCH  15  19
ATOM     16  C   UNL     1      48.526   7.768  12.377  0.00  0.00    +0.000 A 
ATOM     17  C   UNL     1      48.216   6.427  12.621  0.00  0.00    +0.000 A 
ATOM     18  C   UNL     1      46.881   6.008  12.629  0.00  0.00    +0.000 A 
ATOM     19  C   UNL     1      45.839   6.920  12.396  0.00  0.00    +0.000 A 
ATOM     20  C   UNL     1      46.158   8.268  12.172  0.00  0.00    +0.000 A 
ATOM     21  C   UNL     1      47.492   8.689  12.168  0.00  0.00    +0.000 A 
BRANCH  16  23
ATOM     22  N   UNL     1      50.804   7.725  13.251  0.00  0.00    +0.000 N 
ATOM     23  C   UNL     1      49.928   8.264  12.348  0.00  0.00    +0.000 C 
ATOM     24  O   UNL     1      50.303   9.089  11.526  0.00  0.00    +0.000 OA
ATOM     25  H   UNL     1      51.775   7.989  13.142  0.00  0.00    +0.000 HD
ATOM     26  H   UNL     1      50.602   6.877  13.759  0.00  0.00    +0.000 HD
ENDBRANCH  16  23
ENDBRANCH  15  19
ENDBRANCH   1  15
TORSDOF 5
ENDMDL
MODEL 4
REMARK VINA RESULT:    -7.448      1.096      2.081
REMARK INTER + INTRA:         -10.392
REMARK INTER:                  -9.731
REMARK INTRA:                  -0.661
REMARK UNBOUND:                -0.767
REMARK  Name = 
REMARK  5 active torsions:
REMARK  status: ('A' for Active; 'I' for Inactive)
REMARK    1  A    between atoms: C_2  and  C_4
REMARK    2  A    between atoms: C_7  and  C_8
REMARK    3  A    between atoms: C_8  and  N_9
REMARK    4  A    between atoms: N_9  and  C_10
REMARK    5  A    between atoms: C_14  and  C_15
REMARK                            x       y       z     vdW  Elec       q    Type
REMARK                         _______ _______ _______ _____ _____    ______ ____
ROOT
ATOM      1  N   UNL     1      44.567   3.843  11.643  0.00  0.00    +0.000 N 
ATOM      2  H   UNL     1      45.287   3.132  11.759  0.00  0.00    +0.000 HD
ENDROOT
BRANCH   1   3
ATOM      3  C   UNL     1      45.030   5.119  11.993  0.00  0.00    +0.000 A 
ATOM      4  C   UNL     1      44.383   6.257  11.502  0.00  0.00    +0.000 A 
ATOM      5  N   UNL     1      44.779   7.533  11.712  0.00  0.00    +0.000 NA
ATOM      6  C   UNL     1      45.929   7.696  12.404  0.00  0.00    +0.000 A 
ATOM      7  C   UNL     1      46.719   6.657  12.898  0.00  0.00    +0.000 A 
ATOM      8  C   UNL     1      46.226   5.353  12.684  0.00  0.00    +0.000 A 
BRANCH   7   9
ATOM      9  C   UNL     1      48.030   6.907  13.537  0.00  0.00    +0.000 A 
ATOM     10  C   UNL     1      49.068   7.576  12.864  0.00  0.00    +0.000 A 
ATOM     11  C   UNL     1      50.279   7.872  13.502  0.00  0.00    +0.000 A 
ATOM     12  C   UNL     1      50.484   7.494  14.826  0.00  0.00    +0.000 A 
ATOM     13  C   UNL     1      49.483   6.809  15.509  0.00  0.00    +0.000 A 
ATOM     14  C   UNL     1      48.273   6.521  14.869  0.00  0.00    +0.000 A 
ENDBRANCH   7   9
ENDBRANCH   1   3
BRANCH   1  15
ATOM     15  C   UNL     1      43.854   3.664  10.383  0.00  0.00    +0.000 C 
BRANCH  15  19
ATOM     16  C   UNL     1      46.611   2.405   7.287  0.00  0.00    +0.000 A 
ATOM     17  C   UNL     1      46.051   1.463   8.155  0.00  0.00    +0.000 A 
ATOM     18  C   UNL     1      45.167   1.877   9.158  0.00  0.00    +0.000 A 
ATOM     19  C   UNL     1      44.832   3.232   9.309  0.00  0.00    +0.000 A 
ATOM     20  C   UNL     1      45.415   4.172   8.446  0.00  0.00    +0.000 A 
ATOM     21  C   UNL     1      46.302   3.761   7.445  0.00  0.00    +0.000 A 
BRANCH  16  23
ATOM     22  N   UNL     1      48.817   2.529   6.250  0.00  0.00    +0.000 N 
ATOM     23  C   UNL     1      47.549   2.018   6.198  0.00  0.00    +0.000 C 
ATOM     24  O   UNL     1      47.221   1.241   5.311  0.00  0.00    +0.000 OA
ATOM     25  H   UNL     1      49.472   2.167   5.569  0.00  0.00    +0.000 HD
ATOM     26  H   UNL     1      49.194   2.954   7.084  0.00  0.00    +0.000 HD
ENDBRANCH  16  23
ENDBRANCH  15  19
ENDBRANCH   1  15
TORSDOF 5
ENDMDL
MODEL 5
REMARK VINA RESULT:    -7.426      3.516      7.408
REMARK INTER + INTRA:         -10.364
REMARK INTER:                  -9.801
REMARK INTRA:                  -0.563
REMARK UNBOUND:                -0.767
REMARK  Name = 
REMARK  5 active torsions:
REMARK  status: ('A' for Active; 'I' for Inactive)
REMARK    1  A    between atoms: C_2  and  C_4
REMARK    2  A    between atoms: C_7  and  C_8
REMARK    3  A    between atoms: C_8  and  N_9
REMARK    4  A    between atoms: N_9  and  C_10
REMARK    5  A    between atoms: C_14  and  C_15
REMARK                            x       y       z     vdW  Elec       q    Type
REMARK                         _______ _______ _______ _____ _____    ______ ____
ROOT
ATOM      1  N   UNL     1      45.989   7.187  12.166  0.00  0.00    +0.000 N 
ATOM      2  H   UNL     1      45.859   8.156  11.882  0.00  0.00    +0.000 HD
ENDROOT
BRANCH   1   3
ATOM      3  C   UNL     1      45.240   6.304  11.376  0.00  0.00    +0.000 A 
ATOM      4  C   UNL     1      43.894   6.070  11.671  0.00  0.00    +0.000 A 
ATOM      5  N   UNL     1      43.093   5.190  11.027  0.00  0.00    +0.000 NA
ATOM      6  C   UNL     1      43.679   4.444  10.063  0.00  0.00    +0.000 A 
ATOM      7  C   UNL     1      45.026   4.517   9.703  0.00  0.00    +0.000 A 
ATOM      8  C   UNL     1      45.793   5.485  10.382  0.00  0.00    +0.000 A 
BRANCH   7   9
ATOM      9  C   UNL     1      45.626   3.581   8.727  0.00  0.00    +0.000 A 
ATOM     10  C   UNL     1      46.317   4.036   7.590  0.00  0.00    +0.000 A 
ATOM     11  C   UNL     1      46.944   3.144   6.712  0.00  0.00    +0.000 A 
ATOM     12  C   UNL     1      46.882   1.773   6.943  0.00  0.00    +0.000 A 
ATOM     13  C   UNL     1      46.183   1.292   8.047  0.00  0.00    +0.000 A 
ATOM     14  C   UNL     1      45.564   2.188   8.925  0.00  0.00    +0.000 A 
ENDBRANCH   7   9
ENDBRANCH   1   3
BRANCH   1  15
ATOM     15  C   UNL     1      47.398   6.901  12.413  0.00  0.00    +0.000 C 
BRANCH  15  19
ATOM     16  C   UNL     1      47.763   4.728  16.144  0.00  0.00    +0.000 A 
ATOM     17  C   UNL     1      48.459   5.925  15.956  0.00  0.00    +0.000 A 
ATOM     18  C   UNL     1      48.343   6.619  14.747  0.00  0.00    +0.000 A 
ATOM     19  C   UNL     1      47.534   6.128  13.709  0.00  0.00    +0.000 A 
ATOM     20  C   UNL     1      46.855   4.915  13.899  0.00  0.00    +0.000 A 
ATOM     21  C   UNL     1      46.972   4.218  15.107  0.00  0.00    +0.000 A 
BRANCH  16  23
ATOM     22  N   UNL     1      46.960   2.924  17.578  0.00  0.00    +0.000 N 
ATOM     23  C   UNL     1      47.843   3.956  17.413  0.00  0.00    +0.000 C 
ATOM     24  O   UNL     1      48.689   4.199  18.263  0.00  0.00    +0.000 OA
ATOM     25  H   UNL     1      47.103   2.340  18.392  0.00  0.00    +0.000 HD
ATOM     26  H   UNL     1      46.433   2.536  16.809  0.00  0.00    +0.000 HD
ENDBRANCH  16  23
ENDBRANCH  15  19
ENDBRANCH   1  15
TORSDOF 5
ENDMDL
MODEL 6
REMARK VINA RESULT:    -7.419      2.841      3.773
REMARK INTER + INTRA:         -10.354
REMARK INTER:                  -9.656
REMARK INTRA:                  -0.698
REMARK UNBOUND:                -0.767
REMARK  Name = 
REMARK  5 active torsions:
REMARK  status: ('A' for Active; 'I' for Inactive)
REMARK    1  A    between atoms: C_2  and  C_4
REMARK    2  A    between atoms: C_7  and  C_8
REMARK    3  A    between atoms: C_8  and  N_9
REMARK    4  A    between atoms: N_9  and  C_10
REMARK    5  A    between atoms: C_14  and  C_15
REMARK                            x       y       z     vdW  Elec       q    Type
REMARK                         _______ _______ _______ _____ _____    ______ ____
ROOT
ATOM      1  N   UNL     1      44.342   4.303  11.783  0.00  0.00    +0.000 N 
ATOM      2  H   UNL     1      44.893   3.488  12.045  0.00  0.00    +0.000 HD
ENDROOT
BRANCH   1   3
ATOM      3  C   UNL     1      45.029   5.501  12.023  0.00  0.00    +0.000 A 
ATOM      4  C   UNL     1      46.103   5.526  12.917  0.00  0.00    +0.000 A 
ATOM      5  N   UNL     1      46.793   6.632  13.280  0.00  0.00    +0.000 NA
ATOM      6  C   UNL     1      46.353   7.804  12.771  0.00  0.00    +0.000 A 
ATOM      7  C   UNL     1      45.255   7.946  11.922  0.00  0.00    +0.000 A 
ATOM      8  C   UNL     1      44.608   6.750  11.547  0.00  0.00    +0.000 A 
BRANCH   7   9
ATOM      9  C   UNL     1      44.754   9.275  11.505  0.00  0.00    +0.000 A 
ATOM     10  C   UNL     1      43.596   9.420  10.721  0.00  0.00    +0.000 A 
ATOM     11  C   UNL     1      43.090  10.684  10.394  0.00  0.00    +0.000 A 
ATOM     12  C   UNL     1      43.740  11.834  10.833  0.00  0.00    +0.000 A 
ATOM     13  C   UNL     1      44.902  11.720  11.591  0.00  0.00    +0.000 A 
ATOM     14  C   UNL     1      45.400  10.456  11.920  0.00  0.00    +0.000 A 
ENDBRANCH   7   9
ENDBRANCH   1   3
BRANCH   1  15
ATOM     15  C   UNL     1      43.693   4.101  10.492  0.00  0.00    +0.000 C 
BRANCH  15  19
ATOM     16  C   UNL     1      46.582   2.696   7.585  0.00  0.00    +0.000 A 
ATOM     17  C   UNL     1      45.911   1.785   8.407  0.00  0.00    +0.000 A 
ATOM     18  C   UNL     1      44.985   2.245   9.349  0.00  0.00    +0.000 A 
ATOM     19  C   UNL     1      44.716   3.617   9.485  0.00  0.00    +0.000 A 
ATOM     20  C   UNL     1      45.409   4.525   8.669  0.00  0.00    +0.000 A 
ATOM     21  C   UNL     1      46.338   4.067   7.729  0.00  0.00    +0.000 A 
BRANCH  16  23
ATOM     22  N   UNL     1      47.735   3.062   5.466  0.00  0.00    +0.000 N 
ATOM     23  C   UNL     1      47.569   2.259   6.561  0.00  0.00    +0.000 C 
ATOM     24  O   UNL     1      48.240   1.246   6.703  0.00  0.00    +0.000 OA
ATOM     25  H   UNL     1      48.489   2.811   4.839  0.00  0.00    +0.000 HD
ATOM     26  H   UNL     1      47.399   4.014   5.438  0.00  0.00    +0.000 HD
ENDBRANCH  16  23
ENDBRANCH  15  19
ENDBRANCH   1  15
TORSDOF 5
ENDMDL
MODEL 7
REMARK VINA RESULT:    -7.165      3.472      7.039
REMARK INTER + INTRA:         -10.026
REMARK INTER:                  -9.590
REMARK INTRA:                  -0.435
REMARK UNBOUND:                -0.767
REMARK  Name = 
REMARK  5 active torsions:
REMARK  status: ('A' for Active; 'I' for Inactive)
REMARK    1  A    between atoms: C_2  and  C_4
REMARK    2  A    between atoms: C_7  and  C_8
REMARK    3  A    between atoms: C_8  and  N_9
REMARK    4  A    between atoms: N_9  and  C_10
REMARK    5  A    between atoms: C_14  and  C_15
REMARK                            x       y       z     vdW  Elec       q    Type
REMARK                         _______ _______ _______ _____ _____    ______ ____
ROOT
ATOM      1  N   UNL     1      43.616   6.668  11.510  0.00  0.00    +0.000 N 
ATOM      2  H   UNL     1      42.685   7.064  11.400  0.00  0.00    +0.000 HD
ENDROOT
BRANCH   1   3
ATOM      3  C   UNL     1      43.672   5.333  11.086  0.00  0.00    +0.000 A 
ATOM      4  C   UNL     1      43.062   4.331  11.845  0.00  0.00    +0.000 A 
ATOM      5  N   UNL     1      43.110   3.005  11.575  0.00  0.00    +0.000 NA
ATOM      6  C   UNL     1      43.865   2.639  10.514  0.00  0.00    +0.000 A 
ATOM      7  C   UNL     1      44.586   3.518   9.705  0.00  0.00    +0.000 A 
ATOM      8  C   UNL     1      44.457   4.887  10.014  0.00  0.00    +0.000 A 
BRANCH   7   9
ATOM      9  C   UNL     1      45.492   3.034   8.639  0.00  0.00    +0.000 A 
ATOM     10  C   UNL     1      46.038   3.902   7.678  0.00  0.00    +0.000 A 
ATOM     11  C   UNL     1      46.951   3.448   6.718  0.00  0.00    +0.000 A 
ATOM     12  C   UNL     1      47.329   2.109   6.691  0.00  0.00    +0.000 A 
ATOM     13  C   UNL     1      46.786   1.221   7.615  0.00  0.00    +0.000 A 
ATOM     14  C   UNL     1      45.879   1.681   8.575  0.00  0.00    +0.000 A 
ENDBRANCH   7   9
ENDBRANCH   1   3
BRANCH   1  15
ATOM     15  C   UNL     1      44.639   7.603  11.054  0.00  0.00    +0.000 C 
BRANCH  15  19
ATOM     16  C   UNL     1      47.901   7.633  13.906  0.00  0.00    +0.000 A 
ATOM     17  C   UNL     1      47.284   8.830  13.530  0.00  0.00    +0.000 A 
ATOM     18  C   UNL     1      46.236   8.815  12.603  0.00  0.00    +0.000 A 
ATOM     19  C   UNL     1      45.791   7.608  12.039  0.00  0.00    +0.000 A 
ATOM     20  C   UNL     1      46.429   6.415  12.407  0.00  0.00    +0.000 A 
ATOM     21  C   UNL     1      47.480   6.428  13.331  0.00  0.00    +0.000 A 
BRANCH  16  23
ATOM     22  N   UNL     1      50.269   7.340  14.416  0.00  0.00    +0.000 N 
ATOM     23  C   UNL     1      49.012   7.592  14.894  0.00  0.00    +0.000 C 
ATOM     24  O   UNL     1      48.826   7.816  16.083  0.00  0.00    +0.000 OA
ATOM     25  H   UNL     1      51.026   7.429  15.082  0.00  0.00    +0.000 HD
ATOM     26  H   UNL     1      50.497   7.407  13.435  0.00  0.00    +0.000 HD
ENDBRANCH  16  23
ENDBRANCH  15  19
ENDBRANCH   1  15
TORSDOF 5
ENDMDL
MODEL 8
REMARK VINA RESULT:    -6.969      3.249      6.889
REMARK INTER + INTRA:          -9.773
REMARK INTER:                  -9.273
REMARK INTRA:                  -0.500
REMARK UNBOUND:                -0.767
REMARK  Name = 
REMARK  5 active torsions:
REMARK  status: ('A' for Active; 'I' for Inactive)
REMARK    1  A    between atoms: C_2  and  C_4
REMARK    2  A    between atoms: C_7  and  C_8
REMARK    3  A    between atoms: C_8  and  N_9
REMARK    4  A    between atoms: N_9  and  C_10
REMARK    5  A    between atoms: C_14  and  C_15
REMARK                            x       y       z     vdW  Elec       q    Type
REMARK                         _______ _______ _______ _____ _____    ______ ____
ROOT
ATOM      1  N   UNL     1      45.073   7.231  13.012  0.00  0.00    +0.000 N 
ATOM      2  H   UNL     1      44.568   7.462  13.865  0.00  0.00    +0.000 HD
ENDROOT
BRANCH   1   3
ATOM      3  C   UNL     1      44.499   6.142  12.340  0.00  0.00    +0.000 A 
ATOM      4  C   UNL     1      43.414   5.465  12.904  0.00  0.00    +0.000 A 
ATOM      5  N   UNL     1      42.825   4.362  12.385  0.00  0.00    +0.000 NA
ATOM      6  C   UNL     1      43.386   3.858  11.263  0.00  0.00    +0.000 A 
ATOM      7  C   UNL     1      44.510   4.383  10.624  0.00  0.00    +0.000 A 
ATOM      8  C   UNL     1      45.047   5.558  11.191  0.00  0.00    +0.000 A 
BRANCH   7   9
ATOM      9  C   UNL     1      45.143   3.705   9.472  0.00  0.00    +0.000 A 
ATOM     10  C   UNL     1      45.752   4.425   8.429  0.00  0.00    +0.000 A 
ATOM     11  C   UNL     1      46.412   3.773   7.380  0.00  0.00    +0.000 A 
ATOM     12  C   UNL     1      46.468   2.383   7.345  0.00  0.00    +0.000 A 
ATOM     13  C   UNL     1      45.853   1.643   8.351  0.00  0.00    +0.000 A 
ATOM     14  C   UNL     1      45.200   2.299   9.400  0.00  0.00    +0.000 A 
ENDBRANCH   7   9
ENDBRANCH   1   3
BRANCH   1  15
ATOM     15  C   UNL     1      45.406   8.435  12.260  0.00  0.00    +0.000 C 
BRANCH  15  19
ATOM     16  C   UNL     1      49.708   8.718  11.825  0.00  0.00    +0.000 A 
ATOM     17  C   UNL     1      49.104   7.477  12.051  0.00  0.00    +0.000 A 
ATOM     18  C   UNL     1      47.715   7.393  12.198  0.00  0.00    +0.000 A 
ATOM     19  C   UNL     1      46.911   8.543  12.123  0.00  0.00    +0.000 A 
ATOM     20  C   UNL     1      47.529   9.785  11.915  0.00  0.00    +0.000 A 
ATOM     21  C   UNL     1      48.918   9.872  11.772  0.00  0.00    +0.000 A 
BRANCH  16  23
ATOM     22  N   UNL     1      51.982   8.049  12.404  0.00  0.00    +0.000 N 
ATOM     23  C   UNL     1      51.179   8.862  11.652  0.00  0.00    +0.000 C 
ATOM     24  O   UNL     1      51.659   9.643  10.841  0.00  0.00    +0.000 OA
ATOM     25  H   UNL     1      52.971   8.079  12.191  0.00  0.00    +0.000 HD
ATOM     26  H   UNL     1      51.629   7.232  12.880  0.00  0.00    +0.000 HD
ENDBRANCH  16  23
ENDBRANCH  15  19
ENDBRANCH   1  15
TORSDOF 5
ENDMDL
MODEL 9
REMARK VINA RESULT:    -6.802      2.332      3.651
REMARK INTER + INTRA:          -9.557
REMARK INTER:                  -9.087
REMARK INTRA:                  -0.470
REMARK UNBOUND:                -0.767
REMARK  Name = 
REMARK  5 active torsions:
REMARK  status: ('A' for Active; 'I' for Inactive)
REMARK    1  A    between atoms: C_2  and  C_4
REMARK    2  A    between atoms: C_7  and  C_8
REMARK    3  A    between atoms: C_8  and  N_9
REMARK    4  A    between atoms: N_9  and  C_10
REMARK    5  A    between atoms: C_14  and  C_15
REMARK                            x       y       z     vdW  Elec       q    Type
REMARK                         _______ _______ _______ _____ _____    ______ ____
ROOT
ATOM      1  N   UNL     1      45.282   3.784   8.021  0.00  0.00    +0.000 N 
ATOM      2  H   UNL     1      44.815   2.901   7.829  0.00  0.00    +0.000 HD
ENDROOT
BRANCH   1   3
ATOM      3  C   UNL     1      45.026   4.243   9.321  0.00  0.00    +0.000 A 
ATOM      4  C   UNL     1      43.914   3.770  10.023  0.00  0.00    +0.000 A 
ATOM      5  N   UNL     1      43.527   4.190  11.250  0.00  0.00    +0.000 NA
ATOM      6  C   UNL     1      44.254   5.190  11.796  0.00  0.00    +0.000 A 
ATOM      7  C   UNL     1      45.348   5.808  11.187  0.00  0.00    +0.000 A 
ATOM      8  C   UNL     1      45.725   5.293   9.930  0.00  0.00    +0.000 A 
BRANCH   7   9
ATOM      9  C   UNL     1      46.017   6.983  11.789  0.00  0.00    +0.000 A 
ATOM     10  C   UNL     1      47.416   7.124  11.782  0.00  0.00    +0.000 A 
ATOM     11  C   UNL     1      48.036   8.273  12.289  0.00  0.00    +0.000 A 
ATOM     12  C   UNL     1      47.270   9.302  12.827  0.00  0.00    +0.000 A 
ATOM     13  C   UNL     1      45.884   9.179  12.869  0.00  0.00    +0.000 A 
ATOM     14  C   UNL     1      45.269   8.032  12.356  0.00  0.00    +0.000 A 
ENDBRANCH   7   9
ENDBRANCH   1   3
BRANCH   1  15
ATOM     15  C   UNL     1      46.656   3.765   7.532  0.00  0.00    +0.000 C 
BRANCH  15  19
ATOM     16  C   UNL     1      47.054   0.580   4.622  0.00  0.00    +0.000 A 
ATOM     17  C   UNL     1      47.186   0.306   5.986  0.00  0.00    +0.000 A 
ATOM     18  C   UNL     1      47.065   1.340   6.921  0.00  0.00    +0.000 A 
ATOM     19  C   UNL     1      46.810   2.658   6.508  0.00  0.00    +0.000 A 
ATOM     20  C   UNL     1      46.699   2.926   5.135  0.00  0.00    +0.000 A 
ATOM     21  C   UNL     1      46.824   1.894   4.199  0.00  0.00    +0.000 A 
BRANCH  16  23
ATOM     22  N   UNL     1      46.608  -1.700   3.874  0.00  0.00    +0.000 N 
ATOM     23  C   UNL     1      47.165  -0.484   3.587  0.00  0.00    +0.000 C 
ATOM     24  O   UNL     1      47.696  -0.276   2.504  0.00  0.00    +0.000 OA
ATOM     25  H   UNL     1      46.592  -2.373   3.118  0.00  0.00    +0.000 HD
ATOM     26  H   UNL     1      45.951  -1.828   4.630  0.00  0.00    +0.000 HD
ENDBRANCH  16  23
ENDBRANCH  15  19
ENDBRANCH   1  15
TORSDOF 5
ENDMDL
