MODEL 1
REMARK VINA RESULT:    -7.892      0.000      0.000
REMARK INTER + INTRA:         -10.567
REMARK INTER:                  -9.968
REMARK INTRA:                  -0.598
REMARK UNBOUND:                -0.598
REMARK  Name = 
REMARK  5 active torsions:
REMARK  status: ('A' for Active; 'I' for Inactive)
REMARK    1  A    between atoms: N_1  and  C_2
REMARK    2  A    between atoms: C_2  and  C_3
REMARK    3  A    between atoms: C_2  and  C_10
REMARK    4  A    between atoms: C_3  and  C_4
REMARK    5  A    between atoms: C_10  and  C_12
REMARK                            x       y       z     vdW  Elec       q    Type
REMARK                         _______ _______ _______ _____ _____    ______ ____
ROOT
ATOM      1  C   UNL     1      44.004   3.110  10.919  0.00  0.00    +0.000 C 
ATOM      2  O   UNL     1      43.100   2.397  11.369  0.00  0.00    +0.000 OA
ENDROOT
BRANCH   1   3
ATOM      3  C   UNL     1      44.788   3.965  11.841  0.00  0.00    +0.000 A 
ATOM      4  C   UNL     1      45.744   3.376  12.663  0.00  0.00    +0.000 A 
ATOM      5  S   UNL     1      46.657   4.494  13.571  0.00  0.00    +0.000 S 
ATOM      6  C   UNL     1      45.808   5.806  12.902  0.00  0.00    +0.000 A 
ATOM      7  N   UNL     1      46.155   7.088  13.200  0.00  0.00    +0.000 NA
ATOM      8  C   UNL     1      45.471   7.986  12.572  0.00  0.00    +0.000 A 
ATOM      9  N   UNL     1      44.440   7.719  11.714  0.00  0.00    +0.000 N 
ATOM     10  C   UNL     1      43.925   6.456  11.572  0.00  0.00    +0.000 A 
ATOM     11  O   UNL     1      42.801   6.295  11.125  0.00  0.00    +0.000 OA
ATOM     12  C   UNL     1      44.779   5.394  12.070  0.00  0.00    +0.000 A 
ATOM     13  H   UNL     1      43.868   8.469  11.352  0.00  0.00    +0.000 HD
ENDBRANCH   1   3
BRANCH   1  14
ATOM     14  C   UNL     1      44.264   3.108   9.397  0.00  0.00    +0.000 C 
BRANCH  14  15
ATOM     15  N   UNL     1      43.842   4.405   8.809  0.00  0.00    +0.000 NA
ATOM     16  H   UNL     1      42.836   4.393   8.645  0.00  0.00    +0.000 HD
ATOM     17  H   UNL     1      44.284   4.501   7.890  0.00  0.00    +0.000 HD
ENDBRANCH  14  15
BRANCH  14  18
ATOM     18  C   UNL     1      45.771   2.842   9.203  0.00  0.00    +0.000 C 
BRANCH  18  19
ATOM     19  C   UNL     1      46.243   2.342   7.858  0.00  0.00    +0.000 A 
ATOM     20  C   UNL     1      46.337   3.238   6.786  0.00  0.00    +0.000 A 
ATOM     21  C   UNL     1      46.889   2.825   5.577  0.00  0.00    +0.000 A 
ATOM     22  C   UNL     1      47.332   1.520   5.472  0.00  0.00    +0.000 A 
ATOM     23  N   UNL     1      47.248   0.619   6.472  0.00  0.00    +0.000 NA
ATOM     24  C   UNL     1      46.717   1.052   7.640  0.00  0.00    +0.000 A 
ENDBRANCH  18  19
ENDBRANCH  14  18
ENDBRANCH   1  14
TORSDOF 5
ENDMDL
MODEL 2
REMARK VINA RESULT:    -7.706      2.086      2.903
REMARK INTER + INTRA:         -10.332
REMARK INTER:                  -9.679
REMARK INTRA:                  -0.653
REMARK UNBOUND:                -0.598
REMARK  Name = 
REMARK  5 active torsions:
REMARK  status: ('A' for Active; 'I' for Inactive)
REMARK    1  A    between atoms: N_1  and  C_2
REMARK    2  A    between atoms: C_2  and  C_3
REMARK    3  A    between atoms: C_2  and  C_10
REMARK    4  A    between atoms: C_3  and  C_4
REMARK    5  A    between atoms: C_10  and  C_12
REMARK                            x       y       z     vdW  Elec       q    Type
REMARK                         _______ _______ _______ _____ _____    ______ ____
ROOT
ATOM      1  C   UNL     1      43.875   4.485  12.107  0.00  0.00    +0.000 C 
ATOM      2  O   UNL     1      42.748   4.663  12.582  0.00  0.00    +0.000 OA
ENDROOT
BRANCH   1   3
ATOM      3  C   UNL     1      44.917   5.523  12.292  0.00  0.00    +0.000 A 
ATOM      4  C   UNL     1      44.837   6.701  11.557  0.00  0.00    +0.000 A 
ATOM      5  S   UNL     1      46.024   7.854  11.970  0.00  0.00    +0.000 S 
ATOM      6  C   UNL     1      46.690   6.821  13.144  0.00  0.00    +0.000 A 
ATOM      7  N   UNL     1      47.711   7.237  13.942  0.00  0.00    +0.000 NA
ATOM      8  C   UNL     1      48.075   6.376  14.834  0.00  0.00    +0.000 A 
ATOM      9  N   UNL     1      47.547   5.123  14.967  0.00  0.00    +0.000 N 
ATOM     10  C   UNL     1      46.682   4.600  14.039  0.00  0.00    +0.000 A 
ATOM     11  O   UNL     1      46.527   3.393  13.953  0.00  0.00    +0.000 OA
ATOM     12  C   UNL     1      46.076   5.578  13.155  0.00  0.00    +0.000 A 
ATOM     13  H   UNL     1      47.961   4.456  15.604  0.00  0.00    +0.000 HD
ENDBRANCH   1   3
BRANCH   1  14
ATOM     14  C   UNL     1      44.148   3.195  11.304  0.00  0.00    +0.000 C 
BRANCH  14  15
ATOM     15  N   UNL     1      43.198   2.131  11.717  0.00  0.00    +0.000 NA
ATOM     16  H   UNL     1      42.386   2.555  12.165  0.00  0.00    +0.000 HD
ATOM     17  H   UNL     1      43.652   1.553  12.430  0.00  0.00    +0.000 HD
ENDBRANCH  14  15
BRANCH  14  18
ATOM     18  C   UNL     1      44.002   3.560   9.812  0.00  0.00    +0.000 C 
BRANCH  18  19
ATOM     19  C   UNL     1      45.022   3.018   8.839  0.00  0.00    +0.000 A 
ATOM     20  C   UNL     1      45.683   3.899   7.975  0.00  0.00    +0.000 A 
ATOM     21  C   UNL     1      46.716   3.440   7.163  0.00  0.00    +0.000 A 
ATOM     22  C   UNL     1      47.059   2.102   7.237  0.00  0.00    +0.000 A 
ATOM     23  N   UNL     1      46.441   1.215   8.042  0.00  0.00    +0.000 NA
ATOM     24  C   UNL     1      45.448   1.693   8.829  0.00  0.00    +0.000 A 
ENDBRANCH  18  19
ENDBRANCH  14  18
ENDBRANCH   1  14
TORSDOF 5
ENDMDL
MODEL 3
REMARK VINA RESULT:    -7.589      2.427      3.437
REMARK INTER + INTRA:         -10.184
REMARK INTER:                  -9.336
REMARK INTRA:                  -0.848
REMARK UNBOUND:                -0.598
REMARK  Name = 
REMARK  5 active torsions:
REMARK  status: ('A' for Active; 'I' for Inactive)
REMARK    1  A    between atoms: N_1  and  C_2
REMARK    2  A    between atoms: C_2  and  C_3
REMARK    3  A    between atoms: C_2  and  C_10
REMARK    4  A    between atoms: C_3  and  C_4
REMARK    5  A    between atoms: C_10  and  C_12
REMARK                            x       y       z     vdW  Elec       q    Type
REMARK                         _______ _______ _______ _____ _____    ______ ____
ROOT
ATOM      1  C   UNL     1      44.853   4.915  11.935  0.00  0.00    +0.000 C 
ATOM      2  O   UNL     1      43.800   5.552  11.820  0.00  0.00    +0.000 OA
ENDROOT
BRANCH   1   3
ATOM      3  C   UNL     1      46.111   5.634  12.244  0.00  0.00    +0.000 A 
ATOM      4  C   UNL     1      46.614   6.546  11.322  0.00  0.00    +0.000 A 
ATOM      5  S   UNL     1      47.990   7.393  11.868  0.00  0.00    +0.000 S 
ATOM      6  C   UNL     1      47.966   6.571  13.355  0.00  0.00    +0.000 A 
ATOM      7  N   UNL     1      48.849   6.887  14.342  0.00  0.00    +0.000 NA
ATOM      8  C   UNL     1      48.676   6.231  15.442  0.00  0.00    +0.000 A 
ATOM      9  N   UNL     1      47.736   5.256  15.627  0.00  0.00    +0.000 N 
ATOM     10  C   UNL     1      46.990   4.764  14.587  0.00  0.00    +0.000 A 
ATOM     11  O   UNL     1      46.457   3.670  14.675  0.00  0.00    +0.000 OA
ATOM     12  C   UNL     1      46.981   5.597  13.399  0.00  0.00    +0.000 A 
ATOM     13  H   UNL     1      47.735   4.698  16.470  0.00  0.00    +0.000 HD
ENDBRANCH   1   3
BRANCH   1  14
ATOM     14  C   UNL     1      44.823   3.387  11.717  0.00  0.00    +0.000 C 
BRANCH  14  15
ATOM     15  N   UNL     1      43.993   2.742  12.765  0.00  0.00    +0.000 NA
ATOM     16  H   UNL     1      43.329   2.103  12.329  0.00  0.00    +0.000 HD
ATOM     17  H   UNL     1      43.436   3.466  13.227  0.00  0.00    +0.000 HD
ENDBRANCH  14  15
BRANCH  14  18
ATOM     18  C   UNL     1      44.261   3.150  10.300  0.00  0.00    +0.000 C 
BRANCH  18  19
ATOM     19  C   UNL     1      45.227   3.135   9.139  0.00  0.00    +0.000 A 
ATOM     20  C   UNL     1      45.733   1.912   8.682  0.00  0.00    +0.000 A 
ATOM     21  C   UNL     1      46.522   1.866   7.537  0.00  0.00    +0.000 A 
ATOM     22  C   UNL     1      46.786   3.051   6.877  0.00  0.00    +0.000 A 
ATOM     23  N   UNL     1      46.333   4.253   7.288  0.00  0.00    +0.000 NA
ATOM     24  C   UNL     1      45.559   4.266   8.399  0.00  0.00    +0.000 A 
ENDBRANCH  18  19
ENDBRANCH  14  18
ENDBRANCH   1  14
TORSDOF 5
ENDMDL
MODEL 4
REMARK VINA RESULT:    -6.462      3.266      4.986
REMARK INTER + INTRA:          -8.760
REMARK INTER:                  -8.307
REMARK INTRA:                  -0.453
REMARK UNBOUND:                -0.598
REMARK  Name = 
REMARK  5 active torsions:
REMARK  status: ('A' for Active; 'I' for Inactive)
REMARK    1  A    between atoms: N_1  and  C_2
REMARK    2  A    between atoms: C_2  and  C_3
REMARK    3  A    between atoms: C_2  and  C_10
REMARK    4  A    between atoms: C_3  and  C_4
REMARK    5  A    between atoms: C_10  and  C_12
REMARK                            x       y       z     vdW  Elec       q    Type
REMARK                         _______ _______ _______ _____ _____    ______ ____
ROOT
ATOM      1  C   UNL     1      47.343   6.596  12.719  0.00  0.00    +0.000 C 
ATOM      2  O   UNL     1      48.028   7.066  11.803  0.00  0.00    +0.000 OA
ENDROOT
BRANCH   1   3
ATOM      3  C   UNL     1      47.948   6.407  14.058  0.00  0.00    +0.000 A 
ATOM      4  C   UNL     1      48.825   7.370  14.548  0.00  0.00    +0.000 A 
ATOM      5  S   UNL     1      49.337   7.087  16.150  0.00  0.00    +0.000 S 
ATOM      6  C   UNL     1      48.408   5.667  16.248  0.00  0.00    +0.000 A 
ATOM      7  N   UNL     1      48.331   4.962  17.410  0.00  0.00    +0.000 NA
ATOM      8  C   UNL     1      47.539   3.943  17.363  0.00  0.00    +0.000 A 
ATOM      9  N   UNL     1      46.858   3.536  16.250  0.00  0.00    +0.000 N 
ATOM     10  C   UNL     1      47.092   4.090  15.017  0.00  0.00    +0.000 A 
ATOM     11  O   UNL     1      46.786   3.486  14.002  0.00  0.00    +0.000 OA
ATOM     12  C   UNL     1      47.791   5.361  15.045  0.00  0.00    +0.000 A 
ATOM     13  H   UNL     1      46.353   2.661  16.248  0.00  0.00    +0.000 HD
ENDBRANCH   1   3
BRANCH   1  14
ATOM     14  C   UNL     1      45.883   6.191  12.423  0.00  0.00    +0.000 C 
BRANCH  14  15
ATOM     15  N   UNL     1      44.951   7.139  13.083  0.00  0.00    +0.000 NA
ATOM     16  H   UNL     1      44.068   6.668  13.277  0.00  0.00    +0.000 HD
ATOM     17  H   UNL     1      44.736   7.893  12.423  0.00  0.00    +0.000 HD
ENDBRANCH  14  15
BRANCH  14  18
ATOM     18  C   UNL     1      45.725   6.190  10.888  0.00  0.00    +0.000 C 
BRANCH  18  19
ATOM     19  C   UNL     1      45.202   4.939  10.223  0.00  0.00    +0.000 A 
ATOM     20  C   UNL     1      45.521   4.688   8.883  0.00  0.00    +0.000 A 
ATOM     21  C   UNL     1      45.157   3.482   8.291  0.00  0.00    +0.000 A 
ATOM     22  C   UNL     1      44.477   2.556   9.060  0.00  0.00    +0.000 A 
ATOM     23  N   UNL     1      44.135   2.760  10.349  0.00  0.00    +0.000 NA
ATOM     24  C   UNL     1      44.512   3.938  10.901  0.00  0.00    +0.000 A 
ENDBRANCH  18  19
ENDBRANCH  14  18
ENDBRANCH   1  14
TORSDOF 5
ENDMDL
MODEL 5
REMARK VINA RESULT:    -6.308      4.956      8.647
REMARK INTER + INTRA:          -8.566
REMARK INTER:                  -8.202
REMARK INTRA:                  -0.363
REMARK UNBOUND:                -0.598
REMARK  Name = 
REMARK  5 active torsions:
REMARK  status: ('A' for Active; 'I' for Inactive)
REMARK    1  A    between atoms: N_1  and  C_2
REMARK    2  A    between atoms: C_2  and  C_3
REMARK    3  A    between atoms: C_2  and  C_10
REMARK    4  A    between atoms: C_3  and  C_4
REMARK    5  A    between atoms: C_10  and  C_12
REMARK                            x       y       z     vdW  Elec       q    Type
REMARK                         _______ _______ _______ _____ _____    ______ ____
ROOT
ATOM      1  C   UNL     1      47.275   4.022  15.134  0.00  0.00    +0.000 C 
ATOM      2  O   UNL     1      47.730   2.903  14.869  0.00  0.00    +0.000 OA
ENDROOT
BRANCH   1   3
ATOM      3  C   UNL     1      47.071   5.004  14.043  0.00  0.00    +0.000 A 
ATOM      4  C   UNL     1      47.780   6.202  14.070  0.00  0.00    +0.000 A 
ATOM      5  S   UNL     1      47.546   7.172  12.687  0.00  0.00    +0.000 S 
ATOM      6  C   UNL     1      46.488   6.031  12.004  0.00  0.00    +0.000 A 
ATOM      7  N   UNL     1      45.978   6.212  10.755  0.00  0.00    +0.000 NA
ATOM      8  C   UNL     1      45.243   5.237  10.333  0.00  0.00    +0.000 A 
ATOM      9  N   UNL     1      44.931   4.124  11.064  0.00  0.00    +0.000 N 
ATOM     10  C   UNL     1      45.242   4.024  12.397  0.00  0.00    +0.000 A 
ATOM     11  O   UNL     1      44.643   3.237  13.112  0.00  0.00    +0.000 OA
ATOM     12  C   UNL     1      46.242   4.968  12.859  0.00  0.00    +0.000 A 
ATOM     13  H   UNL     1      44.252   3.459  10.722  0.00  0.00    +0.000 HD
ENDBRANCH   1   3
BRANCH   1  14
ATOM     14  C   UNL     1      46.965   4.367  16.606  0.00  0.00    +0.000 C 
BRANCH  14  15
ATOM     15  N   UNL     1      46.498   3.154  17.324  0.00  0.00    +0.000 NA
ATOM     16  H   UNL     1      47.081   2.999  18.145  0.00  0.00    +0.000 HD
ATOM     17  H   UNL     1      46.638   2.344  16.713  0.00  0.00    +0.000 HD
ENDBRANCH  14  15
BRANCH  14  18
ATOM     18  C   UNL     1      48.264   4.939  17.212  0.00  0.00    +0.000 C 
BRANCH  18  19
ATOM     19  C   UNL     1      48.308   5.197  18.699  0.00  0.00    +0.000 A 
ATOM     20  C   UNL     1      47.414   6.114  19.265  0.00  0.00    +0.000 A 
ATOM     21  C   UNL     1      47.353   6.270  20.646  0.00  0.00    +0.000 A 
ATOM     22  C   UNL     1      48.194   5.501  21.429  0.00  0.00    +0.000 A 
ATOM     23  N   UNL     1      49.080   4.616  20.928  0.00  0.00    +0.000 NA
ATOM     24  C   UNL     1      49.110   4.478  19.581  0.00  0.00    +0.000 A 
ENDBRANCH  18  19
ENDBRANCH  14  18
ENDBRANCH   1  14
TORSDOF 5
ENDMDL
MODEL 6
REMARK VINA RESULT:    -6.247      4.767      7.637
REMARK INTER + INTRA:          -8.489
REMARK INTER:                  -7.979
REMARK INTRA:                  -0.509
REMARK UNBOUND:                -0.598
REMARK  Name = 
REMARK  5 active torsions:
REMARK  status: ('A' for Active; 'I' for Inactive)
REMARK    1  A    between atoms: N_1  and  C_2
REMARK    2  A    between atoms: C_2  and  C_3
REMARK    3  A    between atoms: C_2  and  C_10
REMARK    4  A    between atoms: C_3  and  C_4
REMARK    5  A    between atoms: C_10  and  C_12
REMARK                            x       y       z     vdW  Elec       q    Type
REMARK                         _______ _______ _______ _____ _____    ______ ____
ROOT
ATOM      1  C   UNL     1      47.354   4.056  14.866  0.00  0.00    +0.000 C 
ATOM      2  O   UNL     1      47.380   2.925  14.367  0.00  0.00    +0.000 OA
ENDROOT
BRANCH   1   3
ATOM      3  C   UNL     1      46.956   5.213  14.030  0.00  0.00    +0.000 A 
ATOM      4  C   UNL     1      47.760   6.349  14.019  0.00  0.00    +0.000 A 
ATOM      5  S   UNL     1      47.252   7.544  12.914  0.00  0.00    +0.000 S 
ATOM      6  C   UNL     1      45.937   6.591  12.412  0.00  0.00    +0.000 A 
ATOM      7  N   UNL     1      45.122   7.001  11.403  0.00  0.00    +0.000 NA
ATOM      8  C   UNL     1      44.204   6.152  11.079  0.00  0.00    +0.000 A 
ATOM      9  N   UNL     1      43.997   4.954  11.705  0.00  0.00    +0.000 N 
ATOM     10  C   UNL     1      44.653   4.620  12.862  0.00  0.00    +0.000 A 
ATOM     11  O   UNL     1      44.199   3.762  13.602  0.00  0.00    +0.000 OA
ATOM     12  C   UNL     1      45.831   5.418  13.144  0.00  0.00    +0.000 A 
ATOM     13  H   UNL     1      43.186   4.393  11.484  0.00  0.00    +0.000 HD
ENDBRANCH   1   3
BRANCH   1  14
ATOM     14  C   UNL     1      47.771   4.226  16.342  0.00  0.00    +0.000 C 
BRANCH  14  15
ATOM     15  N   UNL     1      46.600   4.639  17.156  0.00  0.00    +0.000 NA
ATOM     16  H   UNL     1      46.259   3.841  17.691  0.00  0.00    +0.000 HD
ATOM     17  H   UNL     1      45.842   4.904  16.519  0.00  0.00    +0.000 HD
ENDBRANCH  14  15
BRANCH  14  18
ATOM     18  C   UNL     1      48.351   2.871  16.800  0.00  0.00    +0.000 C 
BRANCH  18  19
ATOM     19  C   UNL     1      49.755   2.844  17.354  0.00  0.00    +0.000 A 
ATOM     20  C   UNL     1      50.562   1.722  17.129  0.00  0.00    +0.000 A 
ATOM     21  C   UNL     1      51.897   1.730  17.521  0.00  0.00    +0.000 A 
ATOM     22  C   UNL     1      52.392   2.867  18.133  0.00  0.00    +0.000 A 
ATOM     23  N   UNL     1      51.649   3.964  18.383  0.00  0.00    +0.000 NA
ATOM     24  C   UNL     1      50.357   3.932  17.981  0.00  0.00    +0.000 A 
ENDBRANCH  18  19
ENDBRANCH  14  18
ENDBRANCH   1  14
TORSDOF 5
ENDMDL
MODEL 7
REMARK VINA RESULT:    -5.976      3.056      4.331
REMARK INTER + INTRA:          -8.146
REMARK INTER:                  -7.478
REMARK INTRA:                  -0.668
REMARK UNBOUND:                -0.598
REMARK  Name = 
REMARK  5 active torsions:
REMARK  status: ('A' for Active; 'I' for Inactive)
REMARK    1  A    between atoms: N_1  and  C_2
REMARK    2  A    between atoms: C_2  and  C_3
REMARK    3  A    between atoms: C_2  and  C_10
REMARK    4  A    between atoms: C_3  and  C_4
REMARK    5  A    between atoms: C_10  and  C_12
REMARK                            x       y       z     vdW  Elec       q    Type
REMARK                         _______ _______ _______ _____ _____    ______ ____
ROOT
ATOM      1  C   UNL     1      46.091   6.769  12.151  0.00  0.00    +0.000 C 
ATOM      2  O   UNL     1      45.371   7.738  11.887  0.00  0.00    +0.000 OA
ENDROOT
BRANCH   1   3
ATOM      3  C   UNL     1      47.468   6.997  12.649  0.00  0.00    +0.000 A 
ATOM      4  C   UNL     1      48.351   7.749  11.880  0.00  0.00    +0.000 A 
ATOM      5  S   UNL     1      49.850   8.041  12.637  0.00  0.00    +0.000 S 
ATOM      6  C   UNL     1      49.378   7.172  14.019  0.00  0.00    +0.000 A 
ATOM      7  N   UNL     1      50.189   7.101  15.110  0.00  0.00    +0.000 NA
ATOM      8  C   UNL     1      49.679   6.465  16.112  0.00  0.00    +0.000 A 
ATOM      9  N   UNL     1      48.456   5.853  16.105  0.00  0.00    +0.000 N 
ATOM     10  C   UNL     1      47.722   5.717  14.955  0.00  0.00    +0.000 A 
ATOM     11  O   UNL     1      46.854   4.863  14.875  0.00  0.00    +0.000 OA
ATOM     12  C   UNL     1      48.131   6.586  13.868  0.00  0.00    +0.000 A 
ATOM     13  H   UNL     1      48.170   5.270  16.879  0.00  0.00    +0.000 HD
ENDBRANCH   1   3
BRANCH   1  14
ATOM     14  C   UNL     1      45.538   5.346  11.919  0.00  0.00    +0.000 C 
BRANCH  14  15
ATOM     15  N   UNL     1      44.634   4.966  13.034  0.00  0.00    +0.000 NA
ATOM     16  H   UNL     1      44.627   5.707  13.734  0.00  0.00    +0.000 HD
ATOM     17  H   UNL     1      45.021   4.138  13.495  0.00  0.00    +0.000 HD
ENDBRANCH  14  15
BRANCH  14  18
ATOM     18  C   UNL     1      44.809   5.369  10.559  0.00  0.00    +0.000 C 
BRANCH  18  19
ATOM     19  C   UNL     1      45.092   4.258   9.576  0.00  0.00    +0.000 A 
ATOM     20  C   UNL     1      45.825   4.536   8.417  0.00  0.00    +0.000 A 
ATOM     21  C   UNL     1      46.205   3.504   7.565  0.00  0.00    +0.000 A 
ATOM     22  C   UNL     1      45.837   2.213   7.897  0.00  0.00    +0.000 A 
ATOM     23  N   UNL     1      45.118   1.900   8.994  0.00  0.00    +0.000 NA
ATOM     24  C   UNL     1      44.772   2.923   9.810  0.00  0.00    +0.000 A 
ENDBRANCH  18  19
ENDBRANCH  14  18
ENDBRANCH   1  14
TORSDOF 5
ENDMDL
MODEL 8
REMARK VINA RESULT:    -5.877      3.330      6.350
REMARK INTER + INTRA:          -8.021
REMARK INTER:                  -7.432
REMARK INTRA:                  -0.590
REMARK UNBOUND:                -0.598
REMARK  Name = 
REMARK  5 active torsions:
REMARK  status: ('A' for Active; 'I' for Inactive)
REMARK    1  A    between atoms: N_1  and  C_2
REMARK    2  A    between atoms: C_2  and  C_3
REMARK    3  A    between atoms: C_2  and  C_10
REMARK    4  A    between atoms: C_3  and  C_4
REMARK    5  A    between atoms: C_10  and  C_12
REMARK                            x       y       z     vdW  Elec       q    Type
REMARK                         _______ _______ _______ _____ _____    ______ ____
ROOT
ATOM      1  C   UNL     1      45.691   7.162  11.803  0.00  0.00    +0.000 C 
ATOM      2  O   UNL     1      45.130   8.244  11.595  0.00  0.00    +0.000 OA
ENDROOT
BRANCH   1   3
ATOM      3  C   UNL     1      45.258   5.960  11.052  0.00  0.00    +0.000 A 
ATOM      4  C   UNL     1      45.676   5.797   9.735  0.00  0.00    +0.000 A 
ATOM      5  S   UNL     1      45.213   4.308   9.043  0.00  0.00    +0.000 S 
ATOM      6  C   UNL     1      44.435   3.828  10.476  0.00  0.00    +0.000 A 
ATOM      7  N   UNL     1      43.884   2.589  10.589  0.00  0.00    +0.000 NA
ATOM      8  C   UNL     1      43.384   2.332  11.753  0.00  0.00    +0.000 A 
ATOM      9  N   UNL     1      43.340   3.217  12.793  0.00  0.00    +0.000 N 
ATOM     10  C   UNL     1      43.680   4.537  12.636  0.00  0.00    +0.000 A 
ATOM     11  O   UNL     1      43.283   5.375  13.428  0.00  0.00    +0.000 OA
ATOM     12  C   UNL     1      44.445   4.827  11.437  0.00  0.00    +0.000 A 
ATOM     13  H   UNL     1      42.826   2.996  13.634  0.00  0.00    +0.000 HD
ENDBRANCH   1   3
BRANCH   1  14
ATOM     14  C   UNL     1      46.807   7.096  12.868  0.00  0.00    +0.000 C 
BRANCH  14  15
ATOM     15  N   UNL     1      46.506   6.024  13.850  0.00  0.00    +0.000 NA
ATOM     16  H   UNL     1      46.246   6.443  14.742  0.00  0.00    +0.000 HD
ATOM     17  H   UNL     1      47.365   5.492  14.020  0.00  0.00    +0.000 HD
ENDBRANCH  14  15
BRANCH  14  18
ATOM     18  C   UNL     1      48.128   6.841  12.112  0.00  0.00    +0.000 C 
BRANCH  18  19
ATOM     19  C   UNL     1      49.036   8.017  11.842  0.00  0.00    +0.000 A 
ATOM     20  C   UNL     1      50.372   7.787  11.490  0.00  0.00    +0.000 A 
ATOM     21  C   UNL     1      51.188   8.849  11.114  0.00  0.00    +0.000 A 
ATOM     22  C   UNL     1      50.644  10.120  11.103  0.00  0.00    +0.000 A 
ATOM     23  N   UNL     1      49.369  10.391  11.449  0.00  0.00    +0.000 NA
ATOM     24  C   UNL     1      48.595   9.337  11.800  0.00  0.00    +0.000 A 
ENDBRANCH  18  19
ENDBRANCH  14  18
ENDBRANCH   1  14
TORSDOF 5
ENDMDL
MODEL 9
REMARK VINA RESULT:    -5.859      4.378      7.754
REMARK INTER + INTRA:          -7.999
REMARK INTER:                  -7.467
REMARK INTRA:                  -0.532
REMARK UNBOUND:                -0.598
REMARK  Name = 
REMARK  5 active torsions:
REMARK  status: ('A' for Active; 'I' for Inactive)
REMARK    1  A    between atoms: N_1  and  C_2
REMARK    2  A    between atoms: C_2  and  C_3
REMARK    3  A    between atoms: C_2  and  C_10
REMARK    4  A    between atoms: C_3  and  C_4
REMARK    5  A    between atoms: C_10  and  C_12
REMARK                            x       y       z     vdW  Elec       q    Type
REMARK                         _______ _______ _______ _____ _____    ______ ____
ROOT
ATOM      1  C   UNL     1      48.299   6.500  13.639  0.00  0.00    +0.000 C 
ATOM      2  O   UNL     1      49.210   6.331  12.821  0.00  0.00    +0.000 OA
ENDROOT
BRANCH   1   3
ATOM      3  C   UNL     1      46.893   6.286  13.221  0.00  0.00    +0.000 A 
ATOM      4  C   UNL     1      46.100   7.390  12.922  0.00  0.00    +0.000 A 
ATOM      5  S   UNL     1      44.553   6.988  12.328  0.00  0.00    +0.000 S 
ATOM      6  C   UNL     1      44.884   5.325  12.451  0.00  0.00    +0.000 A 
ATOM      7  N   UNL     1      43.985   4.401  12.017  0.00  0.00    +0.000 NA
ATOM      8  C   UNL     1      44.391   3.178  12.108  0.00  0.00    +0.000 A 
ATOM      9  N   UNL     1      45.591   2.794  12.639  0.00  0.00    +0.000 N 
ATOM     10  C   UNL     1      46.413   3.682  13.286  0.00  0.00    +0.000 A 
ATOM     11  O   UNL     1      47.258   3.281  14.069  0.00  0.00    +0.000 OA
ATOM     12  C   UNL     1      46.121   5.079  13.026  0.00  0.00    +0.000 A 
ATOM     13  H   UNL     1      45.795   1.817  12.793  0.00  0.00    +0.000 HD
ENDBRANCH   1   3
BRANCH   1  14
ATOM     14  C   UNL     1      48.659   6.964  15.067  0.00  0.00    +0.000 C 
BRANCH  14  15
ATOM     15  N   UNL     1      48.069   8.301  15.329  0.00  0.00    +0.000 NA
ATOM     16  H   UNL     1      48.480   8.985  14.694  0.00  0.00    +0.000 HD
ATOM     17  H   UNL     1      48.335   8.591  16.275  0.00  0.00    +0.000 HD
ENDBRANCH  14  15
BRANCH  14  18
ATOM     18  C   UNL     1      48.120   5.889  16.033  0.00  0.00    +0.000 C 
BRANCH  18  19
ATOM     19  C   UNL     1      49.114   5.007  16.750  0.00  0.00    +0.000 A 
ATOM     20  C   UNL     1      48.766   3.685  17.054  0.00  0.00    +0.000 A 
ATOM     21  C   UNL     1      49.711   2.821  17.598  0.00  0.00    +0.000 A 
ATOM     22  C   UNL     1      50.986   3.306  17.827  0.00  0.00    +0.000 A 
ATOM     23  N   UNL     1      51.361   4.574  17.564  0.00  0.00    +0.000 NA
ATOM     24  C   UNL     1      50.424   5.389  17.025  0.00  0.00    +0.000 A 
ENDBRANCH  18  19
ENDBRANCH  14  18
ENDBRANCH   1  14
TORSDOF 5
ENDMDL
