MODEL 1
REMARK VINA RESULT:    -7.964      0.000      0.000
REMARK INTER + INTRA:         -12.737
REMARK INTER:                 -11.922
REMARK INTRA:                  -0.815
REMARK UNBOUND:                -0.815
REMARK  Name = 
REMARK  9 active torsions:
REMARK  status: ('A' for Active; 'I' for Inactive)
REMARK    1  A    between atoms: C_2  and  C_22
REMARK    2  A    between atoms: N_3  and  C_4
REMARK    3  A    between atoms: C_4  and  C_5
REMARK    4  A    between atoms: C_8  and  C_9
REMARK    5  A    between atoms: C_9  and  N_10
REMARK    6  A    between atoms: N_10  and  CA_11
REMARK    7  A    between atoms: CA_11  and  C_12
REMARK    8  A    between atoms: CA_11  and  C_14
REMARK    9  A    between atoms: C_12  and  O_13
REMARK                            x       y       z     vdW  Elec       q    Type
REMARK                         _______ _______ _______ _____ _____    ______ ____
ROOT
ATOM      1  C   UNL     1      46.979   6.136  13.071  0.00  0.00    +0.000 A 
ATOM      2  C   UNL     1      46.031   5.169  13.433  0.00  0.00    +0.000 A 
ATOM      3  C   UNL     1      45.002   4.814  12.549  0.00  0.00    +0.000 A 
ATOM      4  C   UNL     1      44.902   5.413  11.284  0.00  0.00    +0.000 A 
ATOM      5  C   UNL     1      45.849   6.383  10.930  0.00  0.00    +0.000 A 
ATOM      6  C   UNL     1      46.880   6.733  11.807  0.00  0.00    +0.000 A 
ENDROOT
BRANCH   1   7
ATOM      7  C   UNL     1      48.088   6.527  14.012  0.00  0.00    +0.000 C 
BRANCH   7  10
ATOM      8  O   UNL     1      50.022   6.138  15.937  0.00  0.00    +0.000 OA
ATOM      9  C   UNL     1      48.846   5.991  16.271  0.00  0.00    +0.000 C 
ATOM     10  N   UNL     1      47.811   6.159  15.376  0.00  0.00    +0.000 N 
ATOM     11  H   UNL     1      46.853   6.080  15.677  0.00  0.00    +0.000 HD
BRANCH   9  12
ATOM     12  C   UNL     1      48.465   5.632  17.639  0.00  0.00    +0.000 A 
ATOM     13  C   UNL     1      48.363   4.359  18.182  0.00  0.00    +0.000 A 
ATOM     14  N   UNL     1      47.985   4.470  19.495  0.00  0.00    +0.000 N 
ATOM     15  C   UNL     1      47.828   5.791  19.835  0.00  0.00    +0.000 A 
ATOM     16  C   UNL     1      47.455   6.372  21.041  0.00  0.00    +0.000 A 
ATOM     17  N   UNL     1      47.368   7.718  21.126  0.00  0.00    +0.000 NA
ATOM     18  C   UNL     1      47.650   8.461  20.033  0.00  0.00    +0.000 A 
ATOM     19  C   UNL     1      48.029   7.944  18.803  0.00  0.00    +0.000 A 
ATOM     20  C   UNL     1      48.121   6.545  18.700  0.00  0.00    +0.000 A 
ATOM     21  H   UNL     1      47.838   3.694  20.127  0.00  0.00    +0.000 HD
ENDBRANCH   9  12
ENDBRANCH   7  10
ENDBRANCH   1   7
BRANCH   4  22
ATOM     22  C   UNL     1      43.831   4.989  10.295  0.00  0.00    +0.000 C 
BRANCH  22  23
ATOM     23  N   UNL     1      44.418   4.381   9.102  0.00  0.00    +0.000 NA
ATOM     24  H   UNL     1      45.145   5.016   8.760  0.00  0.00    +0.000 HD
BRANCH  23  25
ATOM     25  CA  UNL     1      45.068   3.068   9.338  0.00  0.00    +0.000 C 
BRANCH  25  26
ATOM     26  C   UNL     1      45.913   2.684   8.118  0.00  0.00    +0.000 A 
ATOM     27  C   UNL     1      46.177   3.618   7.106  0.00  0.00    +0.000 A 
ATOM     28  C   UNL     1      46.972   3.273   6.007  0.00  0.00    +0.000 A 
ATOM     29  C   UNL     1      47.510   1.991   5.901  0.00  0.00    +0.000 A 
ATOM     30  C   UNL     1      47.256   1.053   6.893  0.00  0.00    +0.000 A 
ATOM     31  C   UNL     1      46.474   1.399   7.995  0.00  0.00    +0.000 A 
ENDBRANCH  25  26
BRANCH  25  32
ATOM     32  C   UNL     1      44.064   1.929   9.674  0.00  0.00    +0.000 C 
BRANCH  32  33
ATOM     33  O   UNL     1      43.598   1.983  11.022  0.00  0.00    +0.000 OA
ATOM     34  H   UNL     1      44.140   2.672  11.458  0.00  0.00    +0.000 HD
ENDBRANCH  32  33
ENDBRANCH  25  32
ENDBRANCH  23  25
ENDBRANCH  22  23
ENDBRANCH   4  22
TORSDOF 9
ENDMDL
MODEL 2
REMARK VINA RESULT:    -7.904      1.785      2.730
REMARK INTER + INTRA:         -12.647
REMARK INTER:                 -11.777
REMARK INTRA:                  -0.870
REMARK UNBOUND:                -0.815
REMARK  Name = 
REMARK  9 active torsions:
REMARK  status: ('A' for Active; 'I' for Inactive)
REMARK    1  A    between atoms: C_2  and  C_22
REMARK    2  A    between atoms: N_3  and  C_4
REMARK    3  A    between atoms: C_4  and  C_5
REMARK    4  A    between atoms: C_8  and  C_9
REMARK    5  A    between atoms: C_9  and  N_10
REMARK    6  A    between atoms: N_10  and  CA_11
REMARK    7  A    between atoms: CA_11  and  C_12
REMARK    8  A    between atoms: CA_11  and  C_14
REMARK    9  A    between atoms: C_12  and  O_13
REMARK                            x       y       z     vdW  Elec       q    Type
REMARK                         _______ _______ _______ _____ _____    ______ ____
ROOT
ATOM      1  C   UNL     1      46.426   7.940  13.033  0.00  0.00    +0.000 A 
ATOM      2  C   UNL     1      45.633   8.615  12.095  0.00  0.00    +0.000 A 
ATOM      3  C   UNL     1      44.574   7.959  11.452  0.00  0.00    +0.000 A 
ATOM      4  C   UNL     1      44.282   6.616  11.736  0.00  0.00    +0.000 A 
ATOM      5  C   UNL     1      45.081   5.943  12.669  0.00  0.00    +0.000 A 
ATOM      6  C   UNL     1      46.133   6.599  13.317  0.00  0.00    +0.000 A 
ENDROOT
BRANCH   1   7
ATOM      7  C   UNL     1      47.567   8.633  13.729  0.00  0.00    +0.000 C 
BRANCH   7  10
ATOM      8  O   UNL     1      49.660   6.893  14.162  0.00  0.00    +0.000 OA
ATOM      9  C   UNL     1      48.949   7.183  15.126  0.00  0.00    +0.000 C 
ATOM     10  N   UNL     1      47.877   8.041  15.005  0.00  0.00    +0.000 N 
ATOM     11  H   UNL     1      47.334   8.302  15.812  0.00  0.00    +0.000 HD
BRANCH   9  12
ATOM     12  C   UNL     1      49.195   6.642  16.465  0.00  0.00    +0.000 A 
ATOM     13  C   UNL     1      49.932   7.220  17.488  0.00  0.00    +0.000 A 
ATOM     14  N   UNL     1      49.905   6.385  18.575  0.00  0.00    +0.000 N 
ATOM     15  C   UNL     1      49.170   5.261  18.293  0.00  0.00    +0.000 A 
ATOM     16  C   UNL     1      48.876   4.155  19.083  0.00  0.00    +0.000 A 
ATOM     17  N   UNL     1      48.121   3.160  18.569  0.00  0.00    +0.000 NA
ATOM     18  C   UNL     1      47.669   3.270  17.301  0.00  0.00    +0.000 A 
ATOM     19  C   UNL     1      47.922   4.346  16.464  0.00  0.00    +0.000 A 
ATOM     20  C   UNL     1      48.709   5.388  16.983  0.00  0.00    +0.000 A 
ATOM     21  H   UNL     1      50.361   6.565  19.460  0.00  0.00    +0.000 HD
ENDBRANCH   9  12
ENDBRANCH   7  10
ENDBRANCH   1   7
BRANCH   4  22
ATOM     22  C   UNL     1      43.097   5.915  11.094  0.00  0.00    +0.000 C 
BRANCH  22  23
ATOM     23  N   UNL     1      43.524   5.020  10.021  0.00  0.00    +0.000 NA
ATOM     24  H   UNL     1      44.073   5.576   9.358  0.00  0.00    +0.000 HD
BRANCH  23  25
ATOM     25  CA  UNL     1      44.390   3.899  10.463  0.00  0.00    +0.000 C 
BRANCH  25  26
ATOM     26  C   UNL     1      45.226   3.394   9.281  0.00  0.00    +0.000 A 
ATOM     27  C   UNL     1      45.459   2.022   9.104  0.00  0.00    +0.000 A 
ATOM     28  C   UNL     1      46.199   1.561   8.008  0.00  0.00    +0.000 A 
ATOM     29  C   UNL     1      46.719   2.462   7.080  0.00  0.00    +0.000 A 
ATOM     30  C   UNL     1      46.500   3.824   7.243  0.00  0.00    +0.000 A 
ATOM     31  C   UNL     1      45.752   4.283   8.327  0.00  0.00    +0.000 A 
ENDBRANCH  25  26
BRANCH  25  32
ATOM     32  C   UNL     1      43.602   2.721  11.103  0.00  0.00    +0.000 C 
BRANCH  32  33
ATOM     33  O   UNL     1      43.938   2.511  12.475  0.00  0.00    +0.000 OA
ATOM     34  H   UNL     1      44.505   1.713  12.485  0.00  0.00    +0.000 HD
ENDBRANCH  32  33
ENDBRANCH  25  32
ENDBRANCH  23  25
ENDBRANCH  22  23
ENDBRANCH   4  22
TORSDOF 9
ENDMDL
MODEL 3
REMARK VINA RESULT:    -7.335      3.576      6.663
REMARK INTER + INTRA:         -11.796
REMARK INTER:                 -10.941
REMARK INTRA:                  -0.855
REMARK UNBOUND:                -0.815
REMARK  Name = 
REMARK  9 active torsions:
REMARK  status: ('A' for Active; 'I' for Inactive)
REMARK    1  A    between atoms: C_2  and  C_22
REMARK    2  A    between atoms: N_3  and  C_4
REMARK    3  A    between atoms: C_4  and  C_5
REMARK    4  A    between atoms: C_8  and  C_9
REMARK    5  A    between atoms: C_9  and  N_10
REMARK    6  A    between atoms: N_10  and  CA_11
REMARK    7  A    between atoms: CA_11  and  C_12
REMARK    8  A    between atoms: CA_11  and  C_14
REMARK    9  A    between atoms: C_12  and  O_13
REMARK                            x       y       z     vdW  Elec       q    Type
REMARK                         _______ _______ _______ _____ _____    ______ ____
ROOT
ATOM      1  C   UNL     1      45.381   2.578   8.646  0.00  0.00    +0.000 A 
ATOM      2  C   UNL     1      45.465   3.602   7.694  0.00  0.00    +0.000 A 
ATOM      3  C   UNL     1      46.239   3.439   6.537  0.00  0.00    +0.000 A 
ATOM      4  C   UNL     1      46.943   2.247   6.305  0.00  0.00    +0.000 A 
ATOM      5  C   UNL     1      46.861   1.228   7.263  0.00  0.00    +0.000 A 
ATOM      6  C   UNL     1      46.083   1.387   8.414  0.00  0.00    +0.000 A 
ENDROOT
BRANCH   1   7
ATOM      7  C   UNL     1      44.554   2.742   9.894  0.00  0.00    +0.000 C 
BRANCH   7  10
ATOM      8  O   UNL     1      44.295   5.331  10.801  0.00  0.00    +0.000 OA
ATOM      9  C   UNL     1      45.106   4.603  11.374  0.00  0.00    +0.000 C 
ATOM     10  N   UNL     1      45.308   3.295  10.988  0.00  0.00    +0.000 N 
ATOM     11  H   UNL     1      45.943   2.702  11.497  0.00  0.00    +0.000 HD
BRANCH   9  12
ATOM     12  C   UNL     1      45.909   5.074  12.506  0.00  0.00    +0.000 A 
ATOM     13  C   UNL     1      45.858   4.632  13.820  0.00  0.00    +0.000 A 
ATOM     14  N   UNL     1      46.781   5.330  14.555  0.00  0.00    +0.000 N 
ATOM     15  C   UNL     1      47.440   6.232  13.758  0.00  0.00    +0.000 A 
ATOM     16  C   UNL     1      48.442   7.144  14.067  0.00  0.00    +0.000 A 
ATOM     17  N   UNL     1      48.937   7.936  13.092  0.00  0.00    +0.000 NA
ATOM     18  C   UNL     1      48.444   7.817  11.839  0.00  0.00    +0.000 A 
ATOM     19  C   UNL     1      47.448   6.927  11.465  0.00  0.00    +0.000 A 
ATOM     20  C   UNL     1      46.922   6.098  12.470  0.00  0.00    +0.000 A 
ATOM     21  H   UNL     1      46.953   5.206  15.544  0.00  0.00    +0.000 HD
ENDBRANCH   9  12
ENDBRANCH   7  10
ENDBRANCH   1   7
BRANCH   4  22
ATOM     22  C   UNL     1      47.731   2.035   5.024  0.00  0.00    +0.000 C 
BRANCH  22  23
ATOM     23  N   UNL     1      47.856   0.615   4.704  0.00  0.00    +0.000 NA
ATOM     24  H   UNL     1      48.021   0.115   5.583  0.00  0.00    +0.000 HD
BRANCH  23  25
ATOM     25  CA  UNL     1      46.647   0.014   4.089  0.00  0.00    +0.000 C 
BRANCH  25  26
ATOM     26  C   UNL     1      46.963  -1.407   3.607  0.00  0.00    +0.000 A 
ATOM     27  C   UNL     1      47.740  -1.617   2.457  0.00  0.00    +0.000 A 
ATOM     28  C   UNL     1      48.050  -2.915   2.035  0.00  0.00    +0.000 A 
ATOM     29  C   UNL     1      47.588  -4.018   2.751  0.00  0.00    +0.000 A 
ATOM     30  C   UNL     1      46.815  -3.828   3.889  0.00  0.00    +0.000 A 
ATOM     31  C   UNL     1      46.515  -2.535   4.317  0.00  0.00    +0.000 A 
ENDBRANCH  25  26
BRANCH  25  32
ATOM     32  C   UNL     1      46.061   0.857   2.920  0.00  0.00    +0.000 C 
BRANCH  32  33
ATOM     33  O   UNL     1      44.901   0.263   2.337  0.00  0.00    +0.000 OA
ATOM     34  H   UNL     1      44.256   0.992   2.239  0.00  0.00    +0.000 HD
ENDBRANCH  32  33
ENDBRANCH  25  32
ENDBRANCH  23  25
ENDBRANCH  22  23
ENDBRANCH   4  22
TORSDOF 9
ENDMDL
MODEL 4
REMARK VINA RESULT:    -7.259      2.409      9.276
REMARK INTER + INTRA:         -11.682
REMARK INTER:                  -9.919
REMARK INTRA:                  -1.762
REMARK UNBOUND:                -0.815
REMARK  Name = 
REMARK  9 active torsions:
REMARK  status: ('A' for Active; 'I' for Inactive)
REMARK    1  A    between atoms: C_2  and  C_22
REMARK    2  A    between atoms: N_3  and  C_4
REMARK    3  A    between atoms: C_4  and  C_5
REMARK    4  A    between atoms: C_8  and  C_9
REMARK    5  A    between atoms: C_9  and  N_10
REMARK    6  A    between atoms: N_10  and  CA_11
REMARK    7  A    between atoms: CA_11  and  C_12
REMARK    8  A    between atoms: CA_11  and  C_14
REMARK    9  A    between atoms: C_12  and  O_13
REMARK                            x       y       z     vdW  Elec       q    Type
REMARK                         _______ _______ _______ _____ _____    ______ ____
ROOT
ATOM      1  C   UNL     1      48.115   7.753  13.960  0.00  0.00    +0.000 A 
ATOM      2  C   UNL     1      48.926   6.723  14.457  0.00  0.00    +0.000 A 
ATOM      3  C   UNL     1      49.378   6.748  15.783  0.00  0.00    +0.000 A 
ATOM      4  C   UNL     1      49.026   7.800  16.644  0.00  0.00    +0.000 A 
ATOM      5  C   UNL     1      48.220   8.830  16.140  0.00  0.00    +0.000 A 
ATOM      6  C   UNL     1      47.763   8.802  14.819  0.00  0.00    +0.000 A 
ENDROOT
BRANCH   1   7
ATOM      7  C   UNL     1      47.625   7.738  12.536  0.00  0.00    +0.000 C 
BRANCH   7  10
ATOM      8  O   UNL     1      44.970   7.075  12.866  0.00  0.00    +0.000 OA
ATOM      9  C   UNL     1      45.712   6.231  12.362  0.00  0.00    +0.000 C 
ATOM     10  N   UNL     1      47.054   6.470  12.162  0.00  0.00    +0.000 N 
ATOM     11  H   UNL     1      47.636   5.785  11.707  0.00  0.00    +0.000 HD
BRANCH   9  12
ATOM     12  C   UNL     1      45.220   4.918  11.936  0.00  0.00    +0.000 A 
ATOM     13  C   UNL     1      44.705   3.908  12.736  0.00  0.00    +0.000 A 
ATOM     14  N   UNL     1      44.355   2.849  11.939  0.00  0.00    +0.000 N 
ATOM     15  C   UNL     1      44.633   3.133  10.625  0.00  0.00    +0.000 A 
ATOM     16  C   UNL     1      44.451   2.365   9.480  0.00  0.00    +0.000 A 
ATOM     17  N   UNL     1      44.810   2.873   8.281  0.00  0.00    +0.000 NA
ATOM     18  C   UNL     1      45.334   4.118   8.229  0.00  0.00    +0.000 A 
ATOM     19  C   UNL     1      45.539   4.934   9.331  0.00  0.00    +0.000 A 
ATOM     20  C   UNL     1      45.172   4.418  10.586  0.00  0.00    +0.000 A 
ATOM     21  H   UNL     1      43.953   1.981  12.265  0.00  0.00    +0.000 HD
ENDBRANCH   9  12
ENDBRANCH   7  10
ENDBRANCH   1   7
BRANCH   4  22
ATOM     22  C   UNL     1      49.455   7.803  18.100  0.00  0.00    +0.000 C 
BRANCH  22  23
ATOM     23  N   UNL     1      48.346   7.450  18.984  0.00  0.00    +0.000 NA
ATOM     24  H   UNL     1      47.507   7.361  18.403  0.00  0.00    +0.000 HD
BRANCH  23  25
ATOM     25  CA  UNL     1      48.514   6.160  19.697  0.00  0.00    +0.000 C 
BRANCH  25  26
ATOM     26  C   UNL     1      48.441   5.002  18.696  0.00  0.00    +0.000 A 
ATOM     27  C   UNL     1      49.532   4.138  18.519  0.00  0.00    +0.000 A 
ATOM     28  C   UNL     1      49.453   3.064  17.625  0.00  0.00    +0.000 A 
ATOM     29  C   UNL     1      48.287   2.840  16.894  0.00  0.00    +0.000 A 
ATOM     30  C   UNL     1      47.199   3.687  17.055  0.00  0.00    +0.000 A 
ATOM     31  C   UNL     1      47.272   4.750  17.955  0.00  0.00    +0.000 A 
ENDBRANCH  25  26
BRANCH  25  32
ATOM     32  C   UNL     1      47.483   5.945  20.841  0.00  0.00    +0.000 C 
BRANCH  32  33
ATOM     33  O   UNL     1      47.652   4.694  21.510  0.00  0.00    +0.000 OA
ATOM     34  H   UNL     1      48.182   4.895  22.307  0.00  0.00    +0.000 HD
ENDBRANCH  32  33
ENDBRANCH  25  32
ENDBRANCH  23  25
ENDBRANCH  22  23
ENDBRANCH   4  22
TORSDOF 9
ENDMDL
MODEL 5
REMARK VINA RESULT:    -7.151      5.088      8.137
REMARK INTER + INTRA:         -11.519
REMARK INTER:                 -10.560
REMARK INTRA:                  -0.959
REMARK UNBOUND:                -0.815
REMARK  Name = 
REMARK  9 active torsions:
REMARK  status: ('A' for Active; 'I' for Inactive)
REMARK    1  A    between atoms: C_2  and  C_22
REMARK    2  A    between atoms: N_3  and  C_4
REMARK    3  A    between atoms: C_4  and  C_5
REMARK    4  A    between atoms: C_8  and  C_9
REMARK    5  A    between atoms: C_9  and  N_10
REMARK    6  A    between atoms: N_10  and  CA_11
REMARK    7  A    between atoms: CA_11  and  C_12
REMARK    8  A    between atoms: CA_11  and  C_14
REMARK    9  A    between atoms: C_12  and  O_13
REMARK                            x       y       z     vdW  Elec       q    Type
REMARK                         _______ _______ _______ _____ _____    ______ ____
ROOT
ATOM      1  C   UNL     1      49.343   8.379  12.176  0.00  0.00    +0.000 A 
ATOM      2  C   UNL     1      48.480   9.405  12.585  0.00  0.00    +0.000 A 
ATOM      3  C   UNL     1      47.093   9.208  12.598  0.00  0.00    +0.000 A 
ATOM      4  C   UNL     1      46.537   7.981  12.205  0.00  0.00    +0.000 A 
ATOM      5  C   UNL     1      47.402   6.960  11.791  0.00  0.00    +0.000 A 
ATOM      6  C   UNL     1      48.787   7.153  11.785  0.00  0.00    +0.000 A 
ENDROOT
BRANCH   1   7
ATOM      7  C   UNL     1      50.835   8.578  12.157  0.00  0.00    +0.000 C 
BRANCH   7  10
ATOM      8  O   UNL     1      52.373   9.210   9.959  0.00  0.00    +0.000 OA
ATOM      9  C   UNL     1      52.264   8.020  10.256  0.00  0.00    +0.000 C 
ATOM     10  N   UNL     1      51.511   7.608  11.335  0.00  0.00    +0.000 N 
ATOM     11  H   UNL     1      51.470   6.634  11.590  0.00  0.00    +0.000 HD
BRANCH   9  12
ATOM     12  C   UNL     1      52.926   6.963   9.489  0.00  0.00    +0.000 A 
ATOM     13  C   UNL     1      53.387   5.741   9.956  0.00  0.00    +0.000 A 
ATOM     14  N   UNL     1      53.935   5.047   8.909  0.00  0.00    +0.000 N 
ATOM     15  C   UNL     1      53.854   5.786   7.755  0.00  0.00    +0.000 A 
ATOM     16  C   UNL     1      54.277   5.491   6.464  0.00  0.00    +0.000 A 
ATOM     17  N   UNL     1      54.082   6.397   5.482  0.00  0.00    +0.000 NA
ATOM     18  C   UNL     1      53.475   7.566   5.783  0.00  0.00    +0.000 A 
ATOM     19  C   UNL     1      53.027   7.920   7.047  0.00  0.00    +0.000 A 
ATOM     20  C   UNL     1      53.226   6.988   8.079  0.00  0.00    +0.000 A 
ATOM     21  H   UNL     1      54.346   4.125   8.971  0.00  0.00    +0.000 HD
ENDBRANCH   9  12
ENDBRANCH   7  10
ENDBRANCH   1   7
BRANCH   4  22
ATOM     22  C   UNL     1      45.040   7.736  12.277  0.00  0.00    +0.000 C 
BRANCH  22  23
ATOM     23  N   UNL     1      44.583   6.899  11.170  0.00  0.00    +0.000 NA
ATOM     24  H   UNL     1      45.340   6.862  10.481  0.00  0.00    +0.000 HD
BRANCH  23  25
ATOM     25  CA  UNL     1      44.273   5.498  11.545  0.00  0.00    +0.000 C 
BRANCH  25  26
ATOM     26  C   UNL     1      44.663   4.557  10.399  0.00  0.00    +0.000 A 
ATOM     27  C   UNL     1      44.253   3.215  10.403  0.00  0.00    +0.000 A 
ATOM     28  C   UNL     1      44.587   2.365   9.342  0.00  0.00    +0.000 A 
ATOM     29  C   UNL     1      45.335   2.841   8.266  0.00  0.00    +0.000 A 
ATOM     30  C   UNL     1      45.752   4.166   8.248  0.00  0.00    +0.000 A 
ATOM     31  C   UNL     1      45.410   5.017   9.299  0.00  0.00    +0.000 A 
ENDBRANCH  25  26
BRANCH  25  32
ATOM     32  C   UNL     1      42.785   5.274  11.937  0.00  0.00    +0.000 C 
BRANCH  32  33
ATOM     33  O   UNL     1      42.556   5.412  13.340  0.00  0.00    +0.000 OA
ATOM     34  H   UNL     1      43.004   6.243  13.597  0.00  0.00    +0.000 HD
ENDBRANCH  32  33
ENDBRANCH  25  32
ENDBRANCH  23  25
ENDBRANCH  22  23
ENDBRANCH   4  22
TORSDOF 9
ENDMDL
MODEL 6
REMARK VINA RESULT:    -7.129      3.507      8.945
REMARK INTER + INTRA:         -11.487
REMARK INTER:                  -9.475
REMARK INTRA:                  -2.012
REMARK UNBOUND:                -0.815
REMARK  Name = 
REMARK  9 active torsions:
REMARK  status: ('A' for Active; 'I' for Inactive)
REMARK    1  A    between atoms: C_2  and  C_22
REMARK    2  A    between atoms: N_3  and  C_4
REMARK    3  A    between atoms: C_4  and  C_5
REMARK    4  A    between atoms: C_8  and  C_9
REMARK    5  A    between atoms: C_9  and  N_10
REMARK    6  A    between atoms: N_10  and  CA_11
REMARK    7  A    between atoms: CA_11  and  C_12
REMARK    8  A    between atoms: CA_11  and  C_14
REMARK    9  A    between atoms: C_12  and  O_13
REMARK                            x       y       z     vdW  Elec       q    Type
REMARK                         _______ _______ _______ _____ _____    ______ ____
ROOT
ATOM      1  C   UNL     1      48.800   7.803  15.788  0.00  0.00    +0.000 A 
ATOM      2  C   UNL     1      49.962   7.034  15.933  0.00  0.00    +0.000 A 
ATOM      3  C   UNL     1      50.517   6.810  17.200  0.00  0.00    +0.000 A 
ATOM      4  C   UNL     1      49.920   7.346  18.351  0.00  0.00    +0.000 A 
ATOM      5  C   UNL     1      48.762   8.120  18.202  0.00  0.00    +0.000 A 
ATOM      6  C   UNL     1      48.203   8.337  16.938  0.00  0.00    +0.000 A 
ENDROOT
BRANCH   1   7
ATOM      7  C   UNL     1      48.195   8.051  14.432  0.00  0.00    +0.000 C 
BRANCH   7  10
ATOM      8  O   UNL     1      48.737   5.846  12.871  0.00  0.00    +0.000 OA
ATOM      9  C   UNL     1      47.586   5.981  13.289  0.00  0.00    +0.000 C 
ATOM     10  N   UNL     1      47.220   7.055  14.072  0.00  0.00    +0.000 N 
ATOM     11  H   UNL     1      46.286   7.126  14.441  0.00  0.00    +0.000 HD
BRANCH   9  12
ATOM     12  C   UNL     1      46.530   5.012  12.986  0.00  0.00    +0.000 A 
ATOM     13  C   UNL     1      46.548   3.644  13.212  0.00  0.00    +0.000 A 
ATOM     14  N   UNL     1      45.357   3.112  12.790  0.00  0.00    +0.000 N 
ATOM     15  C   UNL     1      44.549   4.099  12.282  0.00  0.00    +0.000 A 
ATOM     16  C   UNL     1      43.270   4.028  11.742  0.00  0.00    +0.000 A 
ATOM     17  N   UNL     1      42.676   5.158  11.301  0.00  0.00    +0.000 NA
ATOM     18  C   UNL     1      43.344   6.328  11.401  0.00  0.00    +0.000 A 
ATOM     19  C   UNL     1      44.618   6.468  11.930  0.00  0.00    +0.000 A 
ATOM     20  C   UNL     1      45.249   5.300  12.390  0.00  0.00    +0.000 A 
ATOM     21  H   UNL     1      45.105   2.134  12.839  0.00  0.00    +0.000 HD
ENDBRANCH   9  12
ENDBRANCH   7  10
ENDBRANCH   1   7
BRANCH   4  22
ATOM     22  C   UNL     1      50.475   7.056  19.734  0.00  0.00    +0.000 C 
BRANCH  22  23
ATOM     23  N   UNL     1      50.757   5.632  19.908  0.00  0.00    +0.000 NA
ATOM     24  H   UNL     1      51.395   5.541  20.704  0.00  0.00    +0.000 HD
BRANCH  23  25
ATOM     25  CA  UNL     1      49.566   4.802  20.212  0.00  0.00    +0.000 C 
BRANCH  25  26
ATOM     26  C   UNL     1      48.963   4.264  18.910  0.00  0.00    +0.000 A 
ATOM     27  C   UNL     1      49.648   3.306  18.146  0.00  0.00    +0.000 A 
ATOM     28  C   UNL     1      49.083   2.795  16.971  0.00  0.00    +0.000 A 
ATOM     29  C   UNL     1      47.832   3.235  16.542  0.00  0.00    +0.000 A 
ATOM     30  C   UNL     1      47.142   4.186  17.284  0.00  0.00    +0.000 A 
ATOM     31  C   UNL     1      47.699   4.686  18.461  0.00  0.00    +0.000 A 
ENDBRANCH  25  26
BRANCH  25  32
ATOM     32  C   UNL     1      48.480   5.552  21.035  0.00  0.00    +0.000 C 
BRANCH  32  33
ATOM     33  O   UNL     1      47.737   4.684  21.891  0.00  0.00    +0.000 OA
ATOM     34  H   UNL     1      47.928   4.988  22.801  0.00  0.00    +0.000 HD
ENDBRANCH  32  33
ENDBRANCH  25  32
ENDBRANCH  23  25
ENDBRANCH  22  23
ENDBRANCH   4  22
TORSDOF 9
ENDMDL
MODEL 7
REMARK VINA RESULT:    -7.023      2.804      9.178
REMARK INTER + INTRA:         -11.329
REMARK INTER:                 -10.075
REMARK INTRA:                  -1.254
REMARK UNBOUND:                -0.815
REMARK  Name = 
REMARK  9 active torsions:
REMARK  status: ('A' for Active; 'I' for Inactive)
REMARK    1  A    between atoms: C_2  and  C_22
REMARK    2  A    between atoms: N_3  and  C_4
REMARK    3  A    between atoms: C_4  and  C_5
REMARK    4  A    between atoms: C_8  and  C_9
REMARK    5  A    between atoms: C_9  and  N_10
REMARK    6  A    between atoms: N_10  and  CA_11
REMARK    7  A    between atoms: CA_11  and  C_12
REMARK    8  A    between atoms: CA_11  and  C_14
REMARK    9  A    between atoms: C_12  and  O_13
REMARK                            x       y       z     vdW  Elec       q    Type
REMARK                         _______ _______ _______ _____ _____    ______ ____
ROOT
ATOM      1  C   UNL     1      46.981   7.864  12.884  0.00  0.00    +0.000 A 
ATOM      2  C   UNL     1      48.071   7.060  12.523  0.00  0.00    +0.000 A 
ATOM      3  C   UNL     1      49.267   7.111  13.252  0.00  0.00    +0.000 A 
ATOM      4  C   UNL     1      49.399   7.963  14.360  0.00  0.00    +0.000 A 
ATOM      5  C   UNL     1      48.309   8.769  14.713  0.00  0.00    +0.000 A 
ATOM      6  C   UNL     1      47.112   8.714  13.991  0.00  0.00    +0.000 A 
ENDROOT
BRANCH   1   7
ATOM      7  C   UNL     1      45.691   7.819  12.109  0.00  0.00    +0.000 C 
BRANCH   7  10
ATOM      8  O   UNL     1      44.095   5.915  13.300  0.00  0.00    +0.000 OA
ATOM      9  C   UNL     1      44.610   5.633  12.218  0.00  0.00    +0.000 C 
ATOM     10  N   UNL     1      45.428   6.519  11.550  0.00  0.00    +0.000 N 
ATOM     11  H   UNL     1      45.804   6.288  10.645  0.00  0.00    +0.000 HD
BRANCH   9  12
ATOM     12  C   UNL     1      44.389   4.340  11.565  0.00  0.00    +0.000 A 
ATOM     13  C   UNL     1      43.731   3.233  12.082  0.00  0.00    +0.000 A 
ATOM     14  N   UNL     1      43.742   2.236  11.142  0.00  0.00    +0.000 N 
ATOM     15  C   UNL     1      44.399   2.655  10.012  0.00  0.00    +0.000 A 
ATOM     16  C   UNL     1      44.655   1.988   8.819  0.00  0.00    +0.000 A 
ATOM     17  N   UNL     1      45.334   2.625   7.840  0.00  0.00    +0.000 NA
ATOM     18  C   UNL     1      45.743   3.896   8.049  0.00  0.00    +0.000 A 
ATOM     19  C   UNL     1      45.519   4.616   9.212  0.00  0.00    +0.000 A 
ATOM     20  C   UNL     1      44.815   3.966  10.240  0.00  0.00    +0.000 A 
ATOM     21  H   UNL     1      43.330   1.320  11.258  0.00  0.00    +0.000 HD
ENDBRANCH   9  12
ENDBRANCH   7  10
ENDBRANCH   1   7
BRANCH   4  22
ATOM     22  C   UNL     1      50.667   7.978  15.195  0.00  0.00    +0.000 C 
BRANCH  22  23
ATOM     23  N   UNL     1      51.031   6.633  15.635  0.00  0.00    +0.000 NA
ATOM     24  H   UNL     1      52.051   6.555  15.571  0.00  0.00    +0.000 HD
BRANCH  23  25
ATOM     25  CA  UNL     1      50.663   6.323  17.038  0.00  0.00    +0.000 C 
BRANCH  25  26
ATOM     26  C   UNL     1      49.646   5.177  17.066  0.00  0.00    +0.000 A 
ATOM     27  C   UNL     1      50.003   3.914  17.562  0.00  0.00    +0.000 A 
ATOM     28  C   UNL     1      49.065   2.876  17.612  0.00  0.00    +0.000 A 
ATOM     29  C   UNL     1      47.760   3.084  17.166  0.00  0.00    +0.000 A 
ATOM     30  C   UNL     1      47.391   4.327  16.669  0.00  0.00    +0.000 A 
ATOM     31  C   UNL     1      48.322   5.365  16.630  0.00  0.00    +0.000 A 
ENDBRANCH  25  26
BRANCH  25  32
ATOM     32  C   UNL     1      50.110   7.548  17.820  0.00  0.00    +0.000 C 
BRANCH  32  33
ATOM     33  O   UNL     1      50.102   7.345  19.233  0.00  0.00    +0.000 OA
ATOM     34  H   UNL     1      49.162   7.214  19.473  0.00  0.00    +0.000 HD
ENDBRANCH  32  33
ENDBRANCH  25  32
ENDBRANCH  23  25
ENDBRANCH  22  23
ENDBRANCH   4  22
TORSDOF 9
ENDMDL
MODEL 8
REMARK VINA RESULT:    -6.913      2.272      9.722
REMARK INTER + INTRA:         -11.164
REMARK INTER:                  -9.902
REMARK INTRA:                  -1.262
REMARK UNBOUND:                -0.815
REMARK  Name = 
REMARK  9 active torsions:
REMARK  status: ('A' for Active; 'I' for Inactive)
REMARK    1  A    between atoms: C_2  and  C_22
REMARK    2  A    between atoms: N_3  and  C_4
REMARK    3  A    between atoms: C_4  and  C_5
REMARK    4  A    between atoms: C_8  and  C_9
REMARK    5  A    between atoms: C_9  and  N_10
REMARK    6  A    between atoms: N_10  and  CA_11
REMARK    7  A    between atoms: CA_11  and  C_12
REMARK    8  A    between atoms: CA_11  and  C_14
REMARK    9  A    between atoms: C_12  and  O_13
REMARK                            x       y       z     vdW  Elec       q    Type
REMARK                         _______ _______ _______ _____ _____    ______ ____
ROOT
ATOM      1  C   UNL     1      46.237   7.153  12.386  0.00  0.00    +0.000 A 
ATOM      2  C   UNL     1      46.309   8.453  12.905  0.00  0.00    +0.000 A 
ATOM      3  C   UNL     1      47.277   8.786  13.862  0.00  0.00    +0.000 A 
ATOM      4  C   UNL     1      48.196   7.829  14.318  0.00  0.00    +0.000 A 
ATOM      5  C   UNL     1      48.116   6.529  13.801  0.00  0.00    +0.000 A 
ATOM      6  C   UNL     1      47.156   6.198  12.841  0.00  0.00    +0.000 A 
ENDROOT
BRANCH   1   7
ATOM      7  C   UNL     1      45.201   6.782  11.358  0.00  0.00    +0.000 C 
BRANCH   7  10
ATOM      8  O   UNL     1      43.257   5.141  10.297  0.00  0.00    +0.000 OA
ATOM      9  C   UNL     1      44.426   4.757  10.235  0.00  0.00    +0.000 C 
ATOM     10  N   UNL     1      45.465   5.507  10.743  0.00  0.00    +0.000 N 
ATOM     11  H   UNL     1      46.418   5.198  10.643  0.00  0.00    +0.000 HD
BRANCH   9  12
ATOM     12  C   UNL     1      44.793   3.481   9.615  0.00  0.00    +0.000 A 
ATOM     13  C   UNL     1      44.333   2.215   9.948  0.00  0.00    +0.000 A 
ATOM     14  N   UNL     1      44.923   1.299   9.117  0.00  0.00    +0.000 N 
ATOM     15  C   UNL     1      45.772   1.929   8.242  0.00  0.00    +0.000 A 
ATOM     16  C   UNL     1      46.576   1.408   7.234  0.00  0.00    +0.000 A 
ATOM     17  N   UNL     1      47.336   2.247   6.497  0.00  0.00    +0.000 NA
ATOM     18  C   UNL     1      47.290   3.572   6.759  0.00  0.00    +0.000 A 
ATOM     19  C   UNL     1      46.509   4.154   7.746  0.00  0.00    +0.000 A 
ATOM     20  C   UNL     1      45.715   3.294   8.523  0.00  0.00    +0.000 A 
ATOM     21  H   UNL     1      44.763   0.301   9.142  0.00  0.00    +0.000 HD
ENDBRANCH   9  12
ENDBRANCH   7  10
ENDBRANCH   1   7
BRANCH   4  22
ATOM     22  C   UNL     1      49.290   8.196  15.306  0.00  0.00    +0.000 C 
BRANCH  22  23
ATOM     23  N   UNL     1      50.062   7.022  15.706  0.00  0.00    +0.000 NA
ATOM     24  H   UNL     1      51.053   7.249  15.579  0.00  0.00    +0.000 HD
BRANCH  23  25
ATOM     25  CA  UNL     1      49.891   6.628  17.126  0.00  0.00    +0.000 C 
BRANCH  25  26
ATOM     26  C   UNL     1      49.208   5.258  17.204  0.00  0.00    +0.000 A 
ATOM     27  C   UNL     1      49.963   4.090  17.391  0.00  0.00    +0.000 A 
ATOM     28  C   UNL     1      49.335   2.843  17.490  0.00  0.00    +0.000 A 
ATOM     29  C   UNL     1      47.947   2.744  17.399  0.00  0.00    +0.000 A 
ATOM     30  C   UNL     1      47.185   3.890  17.210  0.00  0.00    +0.000 A 
ATOM     31  C   UNL     1      47.809   5.134  17.124  0.00  0.00    +0.000 A 
ENDBRANCH  25  26
BRANCH  25  32
ATOM     32  C   UNL     1      49.100   7.669  17.969  0.00  0.00    +0.000 C 
BRANCH  32  33
ATOM     33  O   UNL     1      49.335   7.539  19.371  0.00  0.00    +0.000 OA
ATOM     34  H   UNL     1      50.291   7.711  19.492  0.00  0.00    +0.000 HD
ENDBRANCH  32  33
ENDBRANCH  25  32
ENDBRANCH  23  25
ENDBRANCH  22  23
ENDBRANCH   4  22
TORSDOF 9
ENDMDL
MODEL 9
REMARK VINA RESULT:    -6.270      3.152      9.005
REMARK INTER + INTRA:         -10.201
REMARK INTER:                  -8.872
REMARK INTRA:                  -1.329
REMARK UNBOUND:                -0.815
REMARK  Name = 
REMARK  9 active torsions:
REMARK  status: ('A' for Active; 'I' for Inactive)
REMARK    1  A    between atoms: C_2  and  C_22
REMARK    2  A    between atoms: N_3  and  C_4
REMARK    3  A    between atoms: C_4  and  C_5
REMARK    4  A    between atoms: C_8  and  C_9
REMARK    5  A    between atoms: C_9  and  N_10
REMARK    6  A    between atoms: N_10  and  CA_11
REMARK    7  A    between atoms: CA_11  and  C_12
REMARK    8  A    between atoms: CA_11  and  C_14
REMARK    9  A    between atoms: C_12  and  O_13
REMARK                            x       y       z     vdW  Elec       q    Type
REMARK                         _______ _______ _______ _____ _____    ______ ____
ROOT
ATOM      1  C   UNL     1      48.279   8.622  14.274  0.00  0.00    +0.000 A 
ATOM      2  C   UNL     1      48.481   9.639  15.217  0.00  0.00    +0.000 A 
ATOM      3  C   UNL     1      49.011   9.345  16.481  0.00  0.00    +0.000 A 
ATOM      4  C   UNL     1      49.355   8.030  16.828  0.00  0.00    +0.000 A 
ATOM      5  C   UNL     1      49.146   7.016  15.884  0.00  0.00    +0.000 A 
ATOM      6  C   UNL     1      48.625   7.309  14.620  0.00  0.00    +0.000 A 
ENDROOT
BRANCH   1   7
ATOM      7  C   UNL     1      47.710   8.925  12.913  0.00  0.00    +0.000 C 
BRANCH   7  10
ATOM      8  O   UNL     1      45.082   8.368  12.296  0.00  0.00    +0.000 OA
ATOM      9  C   UNL     1      45.936   7.550  11.951  0.00  0.00    +0.000 C 
ATOM     10  N   UNL     1      47.274   7.740  12.221  0.00  0.00    +0.000 N 
ATOM     11  H   UNL     1      47.963   7.083  11.892  0.00  0.00    +0.000 HD
BRANCH   9  12
ATOM     12  C   UNL     1      45.590   6.323  11.230  0.00  0.00    +0.000 A 
ATOM     13  C   UNL     1      45.968   5.962   9.945  0.00  0.00    +0.000 A 
ATOM     14  N   UNL     1      45.435   4.732   9.658  0.00  0.00    +0.000 N 
ATOM     15  C   UNL     1      44.706   4.269  10.725  0.00  0.00    +0.000 A 
ATOM     16  C   UNL     1      43.995   3.086  10.885  0.00  0.00    +0.000 A 
ATOM     17  N   UNL     1      43.347   2.857  12.048  0.00  0.00    +0.000 NA
ATOM     18  C   UNL     1      43.413   3.787  13.027  0.00  0.00    +0.000 A 
ATOM     19  C   UNL     1      44.106   4.984  12.932  0.00  0.00    +0.000 A 
ATOM     20  C   UNL     1      44.783   5.237  11.727  0.00  0.00    +0.000 A 
ATOM     21  H   UNL     1      45.556   4.233   8.787  0.00  0.00    +0.000 HD
ENDBRANCH   9  12
ENDBRANCH   7  10
ENDBRANCH   1   7
BRANCH   4  22
ATOM     22  C   UNL     1      49.990   7.710  18.170  0.00  0.00    +0.000 C 
BRANCH  22  23
ATOM     23  N   UNL     1      49.380   6.532  18.781  0.00  0.00    +0.000 NA
ATOM     24  H   UNL     1      48.650   6.199  18.145  0.00  0.00    +0.000 HD
BRANCH  23  25
ATOM     25  CA  UNL     1      50.312   5.398  18.997  0.00  0.00    +0.000 C 
BRANCH  25  26
ATOM     26  C   UNL     1      49.870   4.196  18.153  0.00  0.00    +0.000 A 
ATOM     27  C   UNL     1      48.543   4.081  17.713  0.00  0.00    +0.000 A 
ATOM     28  C   UNL     1      48.148   2.997  16.919  0.00  0.00    +0.000 A 
ATOM     29  C   UNL     1      49.069   2.015  16.559  0.00  0.00    +0.000 A 
ATOM     30  C   UNL     1      50.386   2.112  16.989  0.00  0.00    +0.000 A 
ATOM     31  C   UNL     1      50.783   3.198  17.770  0.00  0.00    +0.000 A 
ENDBRANCH  25  26
BRANCH  25  32
ATOM     32  C   UNL     1      50.450   4.982  20.489  0.00  0.00    +0.000 C 
BRANCH  32  33
ATOM     33  O   UNL     1      49.314   4.263  20.970  0.00  0.00    +0.000 OA
ATOM     34  H   UNL     1      49.556   3.965  21.870  0.00  0.00    +0.000 HD
ENDBRANCH  32  33
ENDBRANCH  25  32
ENDBRANCH  23  25
ENDBRANCH  22  23
ENDBRANCH   4  22
TORSDOF 9
ENDMDL
