MODEL 1
REMARK VINA RESULT:    -7.392      0.000      0.000
REMARK INTER + INTRA:         -11.786
REMARK INTER:                 -10.417
REMARK INTRA:                  -1.369
REMARK UNBOUND:                -1.369
REMARK  Name = 
REMARK  8 active torsions:
REMARK  status: ('A' for Active; 'I' for Inactive)
REMARK    1  A    between atoms: C_1  and  N_2
REMARK    2  A    between atoms: N_2  and  C_3
REMARK    3  A    between atoms: C_3  and  C_4
REMARK    4  A    between atoms: C_8  and  C_9
REMARK    5  A    between atoms: C_9  and  N_10
REMARK    6  A    between atoms: N_10  and  C_11
REMARK    7  A    between atoms: C_11  and  C_12
REMARK    8  A    between atoms: C_19  and  C_21
REMARK                            x       y       z     vdW  Elec       q    Type
REMARK                         _______ _______ _______ _____ _____    ______ ____
ROOT
ATOM      1  C   UNL     1      47.314   7.532  13.631  0.00  0.00    +0.000 C 
ENDROOT
BRANCH   1   2
ATOM      2  C   UNL     1      46.680   6.253  13.159  0.00  0.00    +0.000 A 
ATOM      3  C   UNL     1      46.997   5.027  13.750  0.00  0.00    +0.000 A 
ATOM      4  C   UNL     1      46.335   3.868  13.347  0.00  0.00    +0.000 A 
ATOM      5  C   UNL     1      45.334   3.926  12.371  0.00  0.00    +0.000 A 
ATOM      6  C   UNL     1      45.000   5.143  11.765  0.00  0.00    +0.000 A 
ATOM      7  C   UNL     1      45.695   6.295  12.157  0.00  0.00    +0.000 A 
BRANCH   6   8
ATOM      8  C   UNL     1      43.836   5.239  10.799  0.00  0.00    +0.000 C 
BRANCH   8   9
ATOM      9  N   UNL     1      44.004   4.314   9.680  0.00  0.00    +0.000 NA
ATOM     10  H   UNL     1      43.173   4.389   9.094  0.00  0.00    +0.000 HD
BRANCH   9  11
ATOM     11  C   UNL     1      45.200   4.585   8.889  0.00  0.00    +0.000 C 
BRANCH  11  12
ATOM     12  C   UNL     1      45.536   3.385   7.973  0.00  0.00    +0.000 C 
ATOM     13  C   UNL     1      45.811   2.133   8.825  0.00  0.00    +0.000 C 
ATOM     14  C   UNL     1      46.212   0.930   7.974  0.00  0.00    +0.000 C 
ATOM     15  C   UNL     1      47.399   1.249   7.073  0.00  0.00    +0.000 C 
ATOM     16  C   UNL     1      47.113   2.463   6.200  0.00  0.00    +0.000 C 
ATOM     17  C   UNL     1      46.727   3.676   7.039  0.00  0.00    +0.000 C 
ENDBRANCH  11  12
ENDBRANCH   9  11
ENDBRANCH   8   9
ENDBRANCH   6   8
ENDBRANCH   1   2
BRANCH   1  19
ATOM     18  C   UNL     1      49.388   7.219  12.188  0.00  0.00    +0.000 C 
ATOM     19  N   UNL     1      48.762   7.666  13.429  0.00  0.00    +0.000 N 
ATOM     20  C   UNL     1      49.648   8.170  14.396  0.00  0.00    +0.000 C 
ATOM     21  O   UNL     1      50.855   8.253  14.166  0.00  0.00    +0.000 OA
BRANCH  20  22
ATOM     22  C   UNL     1      49.142   8.573  15.713  0.00  0.00    +0.000 A 
ATOM     23  C   UNL     1      48.792   9.866  16.066  0.00  0.00    +0.000 A 
ATOM     24  S   UNL     1      48.159   9.994  17.647  0.00  0.00    +0.000 S 
ATOM     25  C   UNL     1      48.190   8.307  17.853  0.00  0.00    +0.000 A 
ATOM     26  N   UNL     1      47.674   7.725  18.966  0.00  0.00    +0.000 NA
ATOM     27  C   UNL     1      47.703   6.433  18.950  0.00  0.00    +0.000 A 
ATOM     28  N   UNL     1      48.240   5.674  17.939  0.00  0.00    +0.000 N 
ATOM     29  C   UNL     1      48.899   6.225  16.858  0.00  0.00    +0.000 A 
ATOM     30  O   UNL     1      49.570   5.528  16.106  0.00  0.00    +0.000 OA
ATOM     31  C   UNL     1      48.774   7.666  16.776  0.00  0.00    +0.000 A 
ATOM     32  H   UNL     1      48.292   4.671  18.021  0.00  0.00    +0.000 HD
ENDBRANCH  20  22
ENDBRANCH   1  19
TORSDOF 7
ENDMDL
MODEL 2
REMARK VINA RESULT:    -7.292      3.239      8.330
REMARK INTER + INTRA:         -11.645
REMARK INTER:                 -10.305
REMARK INTRA:                  -1.340
REMARK UNBOUND:                -1.369
REMARK  Name = 
REMARK  8 active torsions:
REMARK  status: ('A' for Active; 'I' for Inactive)
REMARK    1  A    between atoms: C_1  and  N_2
REMARK    2  A    between atoms: N_2  and  C_3
REMARK    3  A    between atoms: C_3  and  C_4
REMARK    4  A    between atoms: C_8  and  C_9
REMARK    5  A    between atoms: C_9  and  N_10
REMARK    6  A    between atoms: N_10  and  C_11
REMARK    7  A    between atoms: C_11  and  C_12
REMARK    8  A    between atoms: C_19  and  C_21
REMARK                            x       y       z     vdW  Elec       q    Type
REMARK                         _______ _______ _______ _____ _____    ______ ____
ROOT
ATOM      1  C   UNL     1      47.161   6.187  12.528  0.00  0.00    +0.000 C 
ENDROOT
BRANCH   1   2
ATOM      2  C   UNL     1      48.378   6.817  13.148  0.00  0.00    +0.000 A 
ATOM      3  C   UNL     1      49.397   7.354  12.358  0.00  0.00    +0.000 A 
ATOM      4  C   UNL     1      50.475   8.003  12.958  0.00  0.00    +0.000 A 
ATOM      5  C   UNL     1      50.533   8.144  14.348  0.00  0.00    +0.000 A 
ATOM      6  C   UNL     1      49.524   7.614  15.161  0.00  0.00    +0.000 A 
ATOM      7  C   UNL     1      48.462   6.936  14.545  0.00  0.00    +0.000 A 
BRANCH   6   8
ATOM      8  C   UNL     1      49.512   7.867  16.654  0.00  0.00    +0.000 C 
BRANCH   8   9
ATOM      9  N   UNL     1      48.385   7.189  17.293  0.00  0.00    +0.000 NA
ATOM     10  H   UNL     1      48.018   6.512  16.626  0.00  0.00    +0.000 HD
BRANCH   9  11
ATOM     11  C   UNL     1      48.752   6.519  18.536  0.00  0.00    +0.000 C 
BRANCH  11  12
ATOM     12  C   UNL     1      48.649   4.983  18.383  0.00  0.00    +0.000 C 
ATOM     13  C   UNL     1      49.905   4.438  17.680  0.00  0.00    +0.000 C 
ATOM     14  C   UNL     1      49.828   2.931  17.445  0.00  0.00    +0.000 C 
ATOM     15  C   UNL     1      48.565   2.544  16.684  0.00  0.00    +0.000 C 
ATOM     16  C   UNL     1      47.319   3.047  17.399  0.00  0.00    +0.000 C 
ATOM     17  C   UNL     1      47.376   4.554  17.626  0.00  0.00    +0.000 C 
ENDBRANCH  11  12
ENDBRANCH   9  11
ENDBRANCH   8   9
ENDBRANCH   6   8
ENDBRANCH   1   2
BRANCH   1  19
ATOM     18  C   UNL     1      46.247   8.544  12.223  0.00  0.00    +0.000 C 
ATOM     19  N   UNL     1      46.085   7.097  12.113  0.00  0.00    +0.000 N 
ATOM     20  C   UNL     1      44.834   6.671  11.638  0.00  0.00    +0.000 C 
ATOM     21  O   UNL     1      43.972   7.485  11.308  0.00  0.00    +0.000 OA
BRANCH  20  22
ATOM     22  C   UNL     1      44.530   5.237  11.562  0.00  0.00    +0.000 A 
ATOM     23  C   UNL     1      43.807   4.529  12.508  0.00  0.00    +0.000 A 
ATOM     24  S   UNL     1      43.552   2.894  12.089  0.00  0.00    +0.000 S 
ATOM     25  C   UNL     1      44.268   3.119  10.563  0.00  0.00    +0.000 A 
ATOM     26  N   UNL     1      44.281   2.124   9.639  0.00  0.00    +0.000 NA
ATOM     27  C   UNL     1      44.793   2.463   8.502  0.00  0.00    +0.000 A 
ATOM     28  N   UNL     1      45.330   3.696   8.222  0.00  0.00    +0.000 N 
ATOM     29  C   UNL     1      45.465   4.688   9.173  0.00  0.00    +0.000 A 
ATOM     30  O   UNL     1      46.158   5.676   8.961  0.00  0.00    +0.000 OA
ATOM     31  C   UNL     1      44.787   4.392  10.419  0.00  0.00    +0.000 A 
ATOM     32  H   UNL     1      45.777   3.873   7.336  0.00  0.00    +0.000 HD
ENDBRANCH  20  22
ENDBRANCH   1  19
TORSDOF 7
ENDMDL
MODEL 3
REMARK VINA RESULT:    -7.224      2.392      3.558
REMARK INTER + INTRA:         -11.550
REMARK INTER:                 -10.794
REMARK INTRA:                  -0.756
REMARK UNBOUND:                -1.369
REMARK  Name = 
REMARK  8 active torsions:
REMARK  status: ('A' for Active; 'I' for Inactive)
REMARK    1  A    between atoms: C_1  and  N_2
REMARK    2  A    between atoms: N_2  and  C_3
REMARK    3  A    between atoms: C_3  and  C_4
REMARK    4  A    between atoms: C_8  and  C_9
REMARK    5  A    between atoms: C_9  and  N_10
REMARK    6  A    between atoms: N_10  and  C_11
REMARK    7  A    between atoms: C_11  and  C_12
REMARK    8  A    between atoms: C_19  and  C_21
REMARK                            x       y       z     vdW  Elec       q    Type
REMARK                         _______ _______ _______ _____ _____    ______ ____
ROOT
ATOM      1  C   UNL     1      48.345   5.843  15.260  0.00  0.00    +0.000 C 
ENDROOT
BRANCH   1   2
ATOM      2  C   UNL     1      48.049   6.527  13.953  0.00  0.00    +0.000 A 
ATOM      3  C   UNL     1      49.076   6.905  13.086  0.00  0.00    +0.000 A 
ATOM      4  C   UNL     1      48.770   7.463  11.845  0.00  0.00    +0.000 A 
ATOM      5  C   UNL     1      47.438   7.625  11.450  0.00  0.00    +0.000 A 
ATOM      6  C   UNL     1      46.392   7.253  12.303  0.00  0.00    +0.000 A 
ATOM      7  C   UNL     1      46.714   6.722  13.560  0.00  0.00    +0.000 A 
BRANCH   6   8
ATOM      8  C   UNL     1      44.950   7.307  11.839  0.00  0.00    +0.000 C 
BRANCH   8   9
ATOM      9  N   UNL     1      44.757   6.510  10.629  0.00  0.00    +0.000 NA
ATOM     10  H   UNL     1      45.663   6.428  10.170  0.00  0.00    +0.000 HD
BRANCH   9  11
ATOM     11  C   UNL     1      44.211   5.184  10.900  0.00  0.00    +0.000 C 
BRANCH  11  12
ATOM     12  C   UNL     1      44.397   4.254   9.679  0.00  0.00    +0.000 C 
ATOM     13  C   UNL     1      44.519   2.792  10.144  0.00  0.00    +0.000 C 
ATOM     14  C   UNL     1      44.769   1.834   8.981  0.00  0.00    +0.000 C 
ATOM     15  C   UNL     1      45.985   2.250   8.160  0.00  0.00    +0.000 C 
ATOM     16  C   UNL     1      45.846   3.682   7.665  0.00  0.00    +0.000 C 
ATOM     17  C   UNL     1      45.613   4.652   8.818  0.00  0.00    +0.000 C 
ENDBRANCH  11  12
ENDBRANCH   9  11
ENDBRANCH   8   9
ENDBRANCH   6   8
ENDBRANCH   1   2
BRANCH   1  19
ATOM     18  C   UNL     1      46.943   3.856  14.508  0.00  0.00    +0.000 C 
ATOM     19  N   UNL     1      47.557   4.644  15.572  0.00  0.00    +0.000 N 
ATOM     20  C   UNL     1      47.292   4.195  16.876  0.00  0.00    +0.000 C 
ATOM     21  O   UNL     1      46.620   3.182  17.072  0.00  0.00    +0.000 OA
BRANCH  20  22
ATOM     22  C   UNL     1      47.790   4.955  18.028  0.00  0.00    +0.000 A 
ATOM     23  C   UNL     1      47.016   5.782  18.827  0.00  0.00    +0.000 A 
ATOM     24  S   UNL     1      47.873   6.461  20.138  0.00  0.00    +0.000 S 
ATOM     25  C   UNL     1      49.262   5.553  19.768  0.00  0.00    +0.000 A 
ATOM     26  N   UNL     1      50.354   5.578  20.576  0.00  0.00    +0.000 NA
ATOM     27  C   UNL     1      51.304   4.784  20.207  0.00  0.00    +0.000 A 
ATOM     28  N   UNL     1      51.275   3.999  19.080  0.00  0.00    +0.000 N 
ATOM     29  C   UNL     1      50.248   4.047  18.160  0.00  0.00    +0.000 A 
ATOM     30  O   UNL     1      50.362   3.523  17.058  0.00  0.00    +0.000 OA
ATOM     31  C   UNL     1      49.109   4.827  18.603  0.00  0.00    +0.000 A 
ATOM     32  H   UNL     1      52.079   3.453  18.813  0.00  0.00    +0.000 HD
ENDBRANCH  20  22
ENDBRANCH   1  19
TORSDOF 7
ENDMDL
MODEL 4
REMARK VINA RESULT:    -7.145      2.721      4.188
REMARK INTER + INTRA:         -11.439
REMARK INTER:                 -10.176
REMARK INTRA:                  -1.263
REMARK UNBOUND:                -1.369
REMARK  Name = 
REMARK  8 active torsions:
REMARK  status: ('A' for Active; 'I' for Inactive)
REMARK    1  A    between atoms: C_1  and  N_2
REMARK    2  A    between atoms: N_2  and  C_3
REMARK    3  A    between atoms: C_3  and  C_4
REMARK    4  A    between atoms: C_8  and  C_9
REMARK    5  A    between atoms: C_9  and  N_10
REMARK    6  A    between atoms: N_10  and  C_11
REMARK    7  A    between atoms: C_11  and  C_12
REMARK    8  A    between atoms: C_19  and  C_21
REMARK                            x       y       z     vdW  Elec       q    Type
REMARK                         _______ _______ _______ _____ _____    ______ ____
ROOT
ATOM      1  C   UNL     1      49.777   6.804  15.658  0.00  0.00    +0.000 C 
ENDROOT
BRANCH   1   2
ATOM      2  C   UNL     1      49.093   7.064  14.344  0.00  0.00    +0.000 A 
ATOM      3  C   UNL     1      49.628   7.957  13.413  0.00  0.00    +0.000 A 
ATOM      4  C   UNL     1      49.017   8.118  12.171  0.00  0.00    +0.000 A 
ATOM      5  C   UNL     1      47.883   7.370  11.837  0.00  0.00    +0.000 A 
ATOM      6  C   UNL     1      47.328   6.469  12.753  0.00  0.00    +0.000 A 
ATOM      7  C   UNL     1      47.935   6.341  14.011  0.00  0.00    +0.000 A 
BRANCH   6   8
ATOM      8  C   UNL     1      46.177   5.565  12.359  0.00  0.00    +0.000 C 
BRANCH   8   9
ATOM      9  N   UNL     1      45.598   5.977  11.082  0.00  0.00    +0.000 NA
ATOM     10  H   UNL     1      46.271   5.745  10.352  0.00  0.00    +0.000 HD
BRANCH   9  11
ATOM     11  C   UNL     1      44.317   5.336  10.803  0.00  0.00    +0.000 C 
BRANCH  11  12
ATOM     12  C   UNL     1      44.447   4.337   9.630  0.00  0.00    +0.000 C 
ATOM     13  C   UNL     1      44.535   2.899  10.170  0.00  0.00    +0.000 C 
ATOM     14  C   UNL     1      44.729   1.873   9.055  0.00  0.00    +0.000 C 
ATOM     15  C   UNL     1      45.938   2.207   8.188  0.00  0.00    +0.000 C 
ATOM     16  C   UNL     1      45.832   3.614   7.620  0.00  0.00    +0.000 C 
ATOM     17  C   UNL     1      45.655   4.650   8.724  0.00  0.00    +0.000 C 
ENDBRANCH  11  12
ENDBRANCH   9  11
ENDBRANCH   8   9
ENDBRANCH   6   8
ENDBRANCH   1   2
BRANCH   1  19
ATOM     18  C   UNL     1      48.858   8.476  17.344  0.00  0.00    +0.000 C 
ATOM     19  N   UNL     1      49.008   7.103  16.874  0.00  0.00    +0.000 N 
ATOM     20  C   UNL     1      48.414   6.125  17.688  0.00  0.00    +0.000 C 
ATOM     21  O   UNL     1      47.785   6.440  18.698  0.00  0.00    +0.000 OA
BRANCH  20  22
ATOM     22  C   UNL     1      48.570   4.703  17.358  0.00  0.00    +0.000 A 
ATOM     23  C   UNL     1      47.686   3.967  16.587  0.00  0.00    +0.000 A 
ATOM     24  S   UNL     1      48.193   2.359  16.316  0.00  0.00    +0.000 S 
ATOM     25  C   UNL     1      49.679   2.641  17.092  0.00  0.00    +0.000 A 
ATOM     26  N   UNL     1      50.649   1.690  17.119  0.00  0.00    +0.000 NA
ATOM     27  C   UNL     1      51.749   2.073  17.679  0.00  0.00    +0.000 A 
ATOM     28  N   UNL     1      51.949   3.305  18.251  0.00  0.00    +0.000 N 
ATOM     29  C   UNL     1      50.948   4.248  18.370  0.00  0.00    +0.000 A 
ATOM     30  O   UNL     1      51.087   5.229  19.090  0.00  0.00    +0.000 OA
ATOM     31  C   UNL     1      49.742   3.908  17.641  0.00  0.00    +0.000 A 
ATOM     32  H   UNL     1      52.809   3.515  18.733  0.00  0.00    +0.000 HD
ENDBRANCH  20  22
ENDBRANCH   1  19
TORSDOF 7
ENDMDL
MODEL 5
REMARK VINA RESULT:    -6.782      2.123      3.398
REMARK INTER + INTRA:         -10.926
REMARK INTER:                  -9.330
REMARK INTRA:                  -1.596
REMARK UNBOUND:                -1.369
REMARK  Name = 
REMARK  8 active torsions:
REMARK  status: ('A' for Active; 'I' for Inactive)
REMARK    1  A    between atoms: C_1  and  N_2
REMARK    2  A    between atoms: N_2  and  C_3
REMARK    3  A    between atoms: C_3  and  C_4
REMARK    4  A    between atoms: C_8  and  C_9
REMARK    5  A    between atoms: C_9  and  N_10
REMARK    6  A    between atoms: N_10  and  C_11
REMARK    7  A    between atoms: C_11  and  C_12
REMARK    8  A    between atoms: C_19  and  C_21
REMARK                            x       y       z     vdW  Elec       q    Type
REMARK                         _______ _______ _______ _____ _____    ______ ____
ROOT
ATOM      1  C   UNL     1      48.058   4.482  15.058  0.00  0.00    +0.000 C 
ENDROOT
BRANCH   1   2
ATOM      2  C   UNL     1      47.141   5.135  14.060  0.00  0.00    +0.000 A 
ATOM      3  C   UNL     1      47.593   6.157  13.222  0.00  0.00    +0.000 A 
ATOM      4  C   UNL     1      46.745   6.689  12.252  0.00  0.00    +0.000 A 
ATOM      5  C   UNL     1      45.449   6.189  12.093  0.00  0.00    +0.000 A 
ATOM      6  C   UNL     1      44.973   5.166  12.921  0.00  0.00    +0.000 A 
ATOM      7  C   UNL     1      45.826   4.662  13.913  0.00  0.00    +0.000 A 
BRANCH   6   8
ATOM      8  C   UNL     1      43.618   4.532  12.679  0.00  0.00    +0.000 C 
BRANCH   8   9
ATOM      9  N   UNL     1      43.388   4.313  11.252  0.00  0.00    +0.000 NA
ATOM     10  H   UNL     1      43.922   5.017  10.744  0.00  0.00    +0.000 HD
BRANCH   9  11
ATOM     11  C   UNL     1      43.776   2.977  10.810  0.00  0.00    +0.000 C 
BRANCH  11  12
ATOM     12  C   UNL     1      45.001   3.044   9.869  0.00  0.00    +0.000 C 
ATOM     13  C   UNL     1      44.926   4.310   8.996  0.00  0.00    +0.000 C 
ATOM     14  C   UNL     1      46.080   4.395   8.000  0.00  0.00    +0.000 C 
ATOM     15  C   UNL     1      46.175   3.141   7.139  0.00  0.00    +0.000 C 
ATOM     16  C   UNL     1      46.291   1.892   8.000  0.00  0.00    +0.000 C 
ATOM     17  C   UNL     1      45.134   1.786   8.988  0.00  0.00    +0.000 C 
ENDBRANCH  11  12
ENDBRANCH   9  11
ENDBRANCH   8   9
ENDBRANCH   6   8
ENDBRANCH   1   2
BRANCH   1  19
ATOM     18  C   UNL     1      46.930   3.951  17.278  0.00  0.00    +0.000 C 
ATOM     19  N   UNL     1      47.817   4.787  16.475  0.00  0.00    +0.000 N 
ATOM     20  C   UNL     1      48.359   5.896  17.144  0.00  0.00    +0.000 C 
ATOM     21  O   UNL     1      48.116   6.098  18.334  0.00  0.00    +0.000 OA
BRANCH  20  22
ATOM     22  C   UNL     1      49.200   6.852  16.414  0.00  0.00    +0.000 A 
ATOM     23  C   UNL     1      48.758   8.054  15.885  0.00  0.00    +0.000 A 
ATOM     24  S   UNL     1      50.000   8.980  15.166  0.00  0.00    +0.000 S 
ATOM     25  C   UNL     1      51.189   7.876  15.674  0.00  0.00    +0.000 A 
ATOM     26  N   UNL     1      52.510   8.126  15.477  0.00  0.00    +0.000 NA
ATOM     27  C   UNL     1      53.298   7.234  15.980  0.00  0.00    +0.000 A 
ATOM     28  N   UNL     1      52.881   6.094  16.624  0.00  0.00    +0.000 N 
ATOM     29  C   UNL     1      51.553   5.733  16.722  0.00  0.00    +0.000 A 
ATOM     30  O   UNL     1      51.230   4.607  17.084  0.00  0.00    +0.000 OA
ATOM     31  C   UNL     1      50.636   6.768  16.287  0.00  0.00    +0.000 A 
ATOM     32  H   UNL     1      53.548   5.405  16.932  0.00  0.00    +0.000 HD
ENDBRANCH  20  22
ENDBRANCH   1  19
TORSDOF 7
ENDMDL
MODEL 6
REMARK VINA RESULT:    -6.746      2.985      4.517
REMARK INTER + INTRA:         -10.876
REMARK INTER:                  -9.533
REMARK INTRA:                  -1.343
REMARK UNBOUND:                -1.369
REMARK  Name = 
REMARK  8 active torsions:
REMARK  status: ('A' for Active; 'I' for Inactive)
REMARK    1  A    between atoms: C_1  and  N_2
REMARK    2  A    between atoms: N_2  and  C_3
REMARK    3  A    between atoms: C_3  and  C_4
REMARK    4  A    between atoms: C_8  and  C_9
REMARK    5  A    between atoms: C_9  and  N_10
REMARK    6  A    between atoms: N_10  and  C_11
REMARK    7  A    between atoms: C_11  and  C_12
REMARK    8  A    between atoms: C_19  and  C_21
REMARK                            x       y       z     vdW  Elec       q    Type
REMARK                         _______ _______ _______ _____ _____    ______ ____
ROOT
ATOM      1  C   UNL     1      48.554   6.380  15.489  0.00  0.00    +0.000 C 
ENDROOT
BRANCH   1   2
ATOM      2  C   UNL     1      48.447   7.163  14.209  0.00  0.00    +0.000 A 
ATOM      3  C   UNL     1      49.455   7.113  13.244  0.00  0.00    +0.000 A 
ATOM      4  C   UNL     1      49.293   7.783  12.032  0.00  0.00    +0.000 A 
ATOM      5  C   UNL     1      48.115   8.487  11.764  0.00  0.00    +0.000 A 
ATOM      6  C   UNL     1      47.091   8.552  12.716  0.00  0.00    +0.000 A 
ATOM      7  C   UNL     1      47.280   7.899  13.942  0.00  0.00    +0.000 A 
BRANCH   6   8
ATOM      8  C   UNL     1      45.763   9.206  12.390  0.00  0.00    +0.000 C 
BRANCH   8   9
ATOM      9  N   UNL     1      44.672   8.235  12.446  0.00  0.00    +0.000 NA
ATOM     10  H   UNL     1      43.798   8.759  12.478  0.00  0.00    +0.000 HD
BRANCH   9  11
ATOM     11  C   UNL     1      44.664   7.319  11.311  0.00  0.00    +0.000 C 
BRANCH  11  12
ATOM     12  C   UNL     1      44.707   5.849  11.791  0.00  0.00    +0.000 C 
ATOM     13  C   UNL     1      44.823   4.903  10.583  0.00  0.00    +0.000 C 
ATOM     14  C   UNL     1      44.805   3.433  10.995  0.00  0.00    +0.000 C 
ATOM     15  C   UNL     1      43.578   3.099  11.836  0.00  0.00    +0.000 C 
ATOM     16  C   UNL     1      43.485   4.007  13.053  0.00  0.00    +0.000 C 
ATOM     17  C   UNL     1      43.485   5.478  12.654  0.00  0.00    +0.000 C 
ENDBRANCH  11  12
ENDBRANCH   9  11
ENDBRANCH   8   9
ENDBRANCH   6   8
ENDBRANCH   1   2
BRANCH   1  19
ATOM     18  C   UNL     1      47.160   4.549  14.400  0.00  0.00    +0.000 C 
ATOM     19  N   UNL     1      47.734   5.166  15.592  0.00  0.00    +0.000 N 
ATOM     20  C   UNL     1      47.400   4.543  16.806  0.00  0.00    +0.000 C 
ATOM     21  O   UNL     1      46.704   3.528  16.825  0.00  0.00    +0.000 OA
BRANCH  20  22
ATOM     22  C   UNL     1      47.853   5.123  18.075  0.00  0.00    +0.000 A 
ATOM     23  C   UNL     1      47.047   5.819  18.962  0.00  0.00    +0.000 A 
ATOM     24  S   UNL     1      47.854   6.295  20.390  0.00  0.00    +0.000 S 
ATOM     25  C   UNL     1      49.262   5.456  19.935  0.00  0.00    +0.000 A 
ATOM     26  N   UNL     1      50.326   5.363  20.774  0.00  0.00    +0.000 NA
ATOM     27  C   UNL     1      51.293   4.635  20.323  0.00  0.00    +0.000 A 
ATOM     28  N   UNL     1      51.309   4.028  19.090  0.00  0.00    +0.000 N 
ATOM     29  C   UNL     1      50.312   4.212  18.153  0.00  0.00    +0.000 A 
ATOM     30  O   UNL     1      50.467   3.860  16.989  0.00  0.00    +0.000 OA
ATOM     31  C   UNL     1      49.153   4.913  18.669  0.00  0.00    +0.000 A 
ATOM     32  H   UNL     1      52.125   3.531  18.772  0.00  0.00    +0.000 HD
ENDBRANCH  20  22
ENDBRANCH   1  19
TORSDOF 7
ENDMDL
MODEL 7
REMARK VINA RESULT:    -6.537      3.654      8.034
REMARK INTER + INTRA:         -10.582
REMARK INTER:                  -9.395
REMARK INTRA:                  -1.187
REMARK UNBOUND:                -1.369
REMARK  Name = 
REMARK  8 active torsions:
REMARK  status: ('A' for Active; 'I' for Inactive)
REMARK    1  A    between atoms: C_1  and  N_2
REMARK    2  A    between atoms: N_2  and  C_3
REMARK    3  A    between atoms: C_3  and  C_4
REMARK    4  A    between atoms: C_8  and  C_9
REMARK    5  A    between atoms: C_9  and  N_10
REMARK    6  A    between atoms: N_10  and  C_11
REMARK    7  A    between atoms: C_11  and  C_12
REMARK    8  A    between atoms: C_19  and  C_21
REMARK                            x       y       z     vdW  Elec       q    Type
REMARK                         _______ _______ _______ _____ _____    ______ ____
ROOT
ATOM      1  C   UNL     1      47.601   6.611  12.192  0.00  0.00    +0.000 C 
ENDROOT
BRANCH   1   2
ATOM      2  C   UNL     1      48.899   7.146  12.731  0.00  0.00    +0.000 A 
ATOM      3  C   UNL     1      49.851   7.722  11.886  0.00  0.00    +0.000 A 
ATOM      4  C   UNL     1      51.009   8.282  12.421  0.00  0.00    +0.000 A 
ATOM      5  C   UNL     1      51.217   8.295  13.805  0.00  0.00    +0.000 A 
ATOM      6  C   UNL     1      50.278   7.723  14.671  0.00  0.00    +0.000 A 
ATOM      7  C   UNL     1      49.131   7.136  14.117  0.00  0.00    +0.000 A 
BRANCH   6   8
ATOM      8  C   UNL     1      50.430   7.840  16.174  0.00  0.00    +0.000 C 
BRANCH   8   9
ATOM      9  N   UNL     1      51.211   6.728  16.712  0.00  0.00    +0.000 NA
ATOM     10  H   UNL     1      52.088   7.112  17.062  0.00  0.00    +0.000 HD
BRANCH   9  11
ATOM     11  C   UNL     1      50.521   6.008  17.777  0.00  0.00    +0.000 C 
BRANCH  11  12
ATOM     12  C   UNL     1      49.520   4.987  17.188  0.00  0.00    +0.000 C 
ATOM     13  C   UNL     1      48.099   5.288  17.697  0.00  0.00    +0.000 C 
ATOM     14  C   UNL     1      47.076   4.270  17.197  0.00  0.00    +0.000 C 
ATOM     15  C   UNL     1      47.489   2.843  17.541  0.00  0.00    +0.000 C 
ATOM     16  C   UNL     1      48.878   2.530  17.003  0.00  0.00    +0.000 C 
ATOM     17  C   UNL     1      49.911   3.531  17.508  0.00  0.00    +0.000 C 
ENDBRANCH  11  12
ENDBRANCH   9  11
ENDBRANCH   8   9
ENDBRANCH   6   8
ENDBRANCH   1   2
BRANCH   1  19
ATOM     18  C   UNL     1      46.531   8.836  12.815  0.00  0.00    +0.000 C 
ATOM     19  N   UNL     1      46.478   7.555  12.117  0.00  0.00    +0.000 N 
ATOM     20  C   UNL     1      45.278   7.297  11.434  0.00  0.00    +0.000 C 
ATOM     21  O   UNL     1      44.371   8.130  11.411  0.00  0.00    +0.000 OA
BRANCH  20  22
ATOM     22  C   UNL     1      45.080   6.007  10.763  0.00  0.00    +0.000 A 
ATOM     23  C   UNL     1      45.636   5.653   9.544  0.00  0.00    +0.000 A 
ATOM     24  S   UNL     1      45.283   4.051   9.072  0.00  0.00    +0.000 S 
ATOM     25  C   UNL     1      44.505   3.732  10.550  0.00  0.00    +0.000 A 
ATOM     26  N   UNL     1      44.053   2.487  10.852  0.00  0.00    +0.000 NA
ATOM     27  C   UNL     1      43.550   2.379  12.037  0.00  0.00    +0.000 A 
ATOM     28  N   UNL     1      43.421   3.415  12.930  0.00  0.00    +0.000 N 
ATOM     29  C   UNL     1      43.737   4.721  12.614  0.00  0.00    +0.000 A 
ATOM     30  O   UNL     1      43.389   5.647  13.336  0.00  0.00    +0.000 OA
ATOM     31  C   UNL     1      44.423   4.860  11.345  0.00  0.00    +0.000 A 
ATOM     32  H   UNL     1      42.956   3.277  13.814  0.00  0.00    +0.000 HD
ENDBRANCH  20  22
ENDBRANCH   1  19
TORSDOF 7
ENDMDL
MODEL 8
REMARK VINA RESULT:    -6.494      3.192      9.188
REMARK INTER + INTRA:         -10.520
REMARK INTER:                  -9.160
REMARK INTRA:                  -1.361
REMARK UNBOUND:                -1.369
REMARK  Name = 
REMARK  8 active torsions:
REMARK  status: ('A' for Active; 'I' for Inactive)
REMARK    1  A    between atoms: C_1  and  N_2
REMARK    2  A    between atoms: N_2  and  C_3
REMARK    3  A    between atoms: C_3  and  C_4
REMARK    4  A    between atoms: C_8  and  C_9
REMARK    5  A    between atoms: C_9  and  N_10
REMARK    6  A    between atoms: N_10  and  C_11
REMARK    7  A    between atoms: C_11  and  C_12
REMARK    8  A    between atoms: C_19  and  C_21
REMARK                            x       y       z     vdW  Elec       q    Type
REMARK                         _______ _______ _______ _____ _____    ______ ____
ROOT
ATOM      1  C   UNL     1      47.510   6.084  12.392  0.00  0.00    +0.000 C 
ENDROOT
BRANCH   1   2
ATOM      2  C   UNL     1      48.043   6.026  13.797  0.00  0.00    +0.000 A 
ATOM      3  C   UNL     1      49.056   6.888  14.223  0.00  0.00    +0.000 A 
ATOM      4  C   UNL     1      49.475   6.868  15.553  0.00  0.00    +0.000 A 
ATOM      5  C   UNL     1      48.869   6.006  16.473  0.00  0.00    +0.000 A 
ATOM      6  C   UNL     1      47.853   5.133  16.070  0.00  0.00    +0.000 A 
ATOM      7  C   UNL     1      47.463   5.142  14.723  0.00  0.00    +0.000 A 
BRANCH   6   8
ATOM      8  C   UNL     1      47.106   4.285  17.080  0.00  0.00    +0.000 C 
BRANCH   8   9
ATOM      9  N   UNL     1      47.557   4.569  18.441  0.00  0.00    +0.000 NA
ATOM     10  H   UNL     1      48.499   4.955  18.377  0.00  0.00    +0.000 HD
BRANCH   9  11
ATOM     11  C   UNL     1      46.683   5.499  19.149  0.00  0.00    +0.000 C 
BRANCH  11  12
ATOM     12  C   UNL     1      47.489   6.699  19.699  0.00  0.00    +0.000 C 
ATOM     13  C   UNL     1      47.327   6.786  21.227  0.00  0.00    +0.000 C 
ATOM     14  C   UNL     1      48.052   7.993  21.819  0.00  0.00    +0.000 C 
ATOM     15  C   UNL     1      47.621   9.293  21.147  0.00  0.00    +0.000 C 
ATOM     16  C   UNL     1      47.820   9.222  19.640  0.00  0.00    +0.000 C 
ATOM     17  C   UNL     1      47.087   8.030  19.035  0.00  0.00    +0.000 C 
ENDBRANCH  11  12
ENDBRANCH   9  11
ENDBRANCH   8   9
ENDBRANCH   6   8
ENDBRANCH   1   2
BRANCH   1  19
ATOM     18  C   UNL     1      46.737   8.504  12.230  0.00  0.00    +0.000 C 
ATOM     19  N   UNL     1      46.459   7.075  12.124  0.00  0.00    +0.000 N 
ATOM     20  C   UNL     1      45.132   6.747  11.803  0.00  0.00    +0.000 C 
ATOM     21  O   UNL     1      44.296   7.626  11.593  0.00  0.00    +0.000 OA
BRANCH  20  22
ATOM     22  C   UNL     1      44.718   5.340  11.750  0.00  0.00    +0.000 A 
ATOM     23  C   UNL     1      44.014   4.682  12.746  0.00  0.00    +0.000 A 
ATOM     24  S   UNL     1      43.611   3.072  12.346  0.00  0.00    +0.000 S 
ATOM     25  C   UNL     1      44.230   3.252  10.773  0.00  0.00    +0.000 A 
ATOM     26  N   UNL     1      44.103   2.263   9.850  0.00  0.00    +0.000 NA
ATOM     27  C   UNL     1      44.556   2.570   8.680  0.00  0.00    +0.000 A 
ATOM     28  N   UNL     1      45.162   3.761   8.362  0.00  0.00    +0.000 N 
ATOM     29  C   UNL     1      45.436   4.736   9.300  0.00  0.00    +0.000 A 
ATOM     30  O   UNL     1      46.184   5.671   9.038  0.00  0.00    +0.000 OA
ATOM     31  C   UNL     1      44.829   4.484  10.592  0.00  0.00    +0.000 A 
ATOM     32  H   UNL     1      45.555   3.910   7.446  0.00  0.00    +0.000 HD
ENDBRANCH  20  22
ENDBRANCH   1  19
TORSDOF 7
ENDMDL
MODEL 9
REMARK VINA RESULT:    -6.474      3.603      7.458
REMARK INTER + INTRA:         -10.493
REMARK INTER:                  -8.816
REMARK INTRA:                  -1.677
REMARK UNBOUND:                -1.369
REMARK  Name = 
REMARK  8 active torsions:
REMARK  status: ('A' for Active; 'I' for Inactive)
REMARK    1  A    between atoms: C_1  and  N_2
REMARK    2  A    between atoms: N_2  and  C_3
REMARK    3  A    between atoms: C_3  and  C_4
REMARK    4  A    between atoms: C_8  and  C_9
REMARK    5  A    between atoms: C_9  and  N_10
REMARK    6  A    between atoms: N_10  and  C_11
REMARK    7  A    between atoms: C_11  and  C_12
REMARK    8  A    between atoms: C_19  and  C_21
REMARK                            x       y       z     vdW  Elec       q    Type
REMARK                         _______ _______ _______ _____ _____    ______ ____
ROOT
ATOM      1  C   UNL     1      48.607   8.671  15.385  0.00  0.00    +0.000 C 
ENDROOT
BRANCH   1   2
ATOM      2  C   UNL     1      48.440   8.010  16.726  0.00  0.00    +0.000 A 
ATOM      3  C   UNL     1      48.129   8.754  17.866  0.00  0.00    +0.000 A 
ATOM      4  C   UNL     1      47.901   8.106  19.079  0.00  0.00    +0.000 A 
ATOM      5  C   UNL     1      47.955   6.711  19.159  0.00  0.00    +0.000 A 
ATOM      6  C   UNL     1      48.266   5.944  18.030  0.00  0.00    +0.000 A 
ATOM      7  C   UNL     1      48.524   6.610  16.823  0.00  0.00    +0.000 A 
BRANCH   6   8
ATOM      8  C   UNL     1      48.207   4.431  18.074  0.00  0.00    +0.000 C 
BRANCH   8   9
ATOM      9  N   UNL     1      49.043   3.841  17.030  0.00  0.00    +0.000 NA
ATOM     10  H   UNL     1      49.852   4.449  16.907  0.00  0.00    +0.000 HD
BRANCH   9  11
ATOM     11  C   UNL     1      49.482   2.486  17.348  0.00  0.00    +0.000 C 
BRANCH  11  12
ATOM     12  C   UNL     1      51.020   2.368  17.244  0.00  0.00    +0.000 C 
ATOM     13  C   UNL     1      51.478   0.988  17.748  0.00  0.00    +0.000 C 
ATOM     14  C   UNL     1      52.998   0.839  17.728  0.00  0.00    +0.000 C 
ATOM     15  C   UNL     1      53.684   1.960  18.501  0.00  0.00    +0.000 C 
ATOM     16  C   UNL     1      53.263   3.325  17.976  0.00  0.00    +0.000 C 
ATOM     17  C   UNL     1      51.748   3.492  18.007  0.00  0.00    +0.000 C 
ENDBRANCH  11  12
ENDBRANCH   9  11
ENDBRANCH   8   9
ENDBRANCH   6   8
ENDBRANCH   1   2
BRANCH   1  19
ATOM     18  C   UNL     1      50.858   7.895  14.485  0.00  0.00    +0.000 C 
ATOM     19  N   UNL     1      49.403   7.947  14.385  0.00  0.00    +0.000 N 
ATOM     20  C   UNL     1      48.859   7.307  13.260  0.00  0.00    +0.000 C 
ATOM     21  O   UNL     1      49.581   6.719  12.455  0.00  0.00    +0.000 OA
BRANCH  20  22
ATOM     22  C   UNL     1      47.413   7.365  13.013  0.00  0.00    +0.000 A 
ATOM     23  C   UNL     1      46.754   8.422  12.407  0.00  0.00    +0.000 A 
ATOM     24  S   UNL     1      45.082   8.149  12.189  0.00  0.00    +0.000 S 
ATOM     25  C   UNL     1      45.216   6.552  12.757  0.00  0.00    +0.000 A 
ATOM     26  N   UNL     1      44.153   5.707  12.733  0.00  0.00    +0.000 NA
ATOM     27  C   UNL     1      44.423   4.506  13.128  0.00  0.00    +0.000 A 
ATOM     28  N   UNL     1      45.650   4.089  13.584  0.00  0.00    +0.000 N 
ATOM     29  C   UNL     1      46.716   4.948  13.758  0.00  0.00    +0.000 A 
ATOM     30  O   UNL     1      47.710   4.602  14.386  0.00  0.00    +0.000 OA
ATOM     31  C   UNL     1      46.492   6.269  13.205  0.00  0.00    +0.000 A 
ATOM     32  H   UNL     1      45.774   3.155  13.943  0.00  0.00    +0.000 HD
ENDBRANCH  20  22
ENDBRANCH   1  19
TORSDOF 7
ENDMDL
