MODEL 1
REMARK VINA RESULT:    -7.393      0.000      0.000
REMARK INTER + INTRA:         -11.060
REMARK INTER:                  -9.986
REMARK INTRA:                  -1.074
REMARK UNBOUND:                -1.074
REMARK  Name = 
REMARK  8 active torsions:
REMARK  status: ('A' for Active; 'I' for Inactive)
REMARK    1  A    between atoms: C_1  and  C_2
REMARK    2  A    between atoms: C_6  and  C_7
REMARK    3  A    between atoms: C_7  and  N_8
REMARK    4  A    between atoms: N_8  and  C_9
REMARK    5  A    between atoms: C_12  and  C_13
REMARK    6  A    between atoms: C_13  and  N_14
REMARK    7  A    between atoms: N_14  and  C_15
REMARK    8  A    between atoms: C_16  and  C_18
REMARK                            x       y       z     vdW  Elec       q    Type
REMARK                         _______ _______ _______ _____ _____    ______ ____
ROOT
ATOM      1  C   UNL     1      45.203   3.676  12.165  0.00  0.00    +0.000 A 
ATOM      2  C   UNL     1      44.906   5.044  12.182  0.00  0.00    +0.000 A 
ATOM      3  C   UNL     1      45.721   5.961  12.865  0.00  0.00    +0.000 A 
ATOM      4  C   UNL     1      46.871   5.530  13.538  0.00  0.00    +0.000 A 
ATOM      5  C   UNL     1      47.093   4.155  13.638  0.00  0.00    +0.000 A 
ATOM      6  C   UNL     1      46.257   3.246  12.981  0.00  0.00    +0.000 A 
ENDROOT
BRANCH   1   7
ATOM      7  N   UNL     1      44.367   2.789  11.462  0.00  0.00    +0.000 N 
ATOM      8  H   UNL     1      43.562   2.532  12.031  0.00  0.00    +0.000 HD
BRANCH   7   9
ATOM      9  C   UNL     1      43.917   3.200  10.124  0.00  0.00    +0.000 C 
BRANCH   9  15
ATOM     10  C   UNL     1      46.827   0.176   7.624  0.00  0.00    +0.000 C 
ATOM     11  C   UNL     1      46.396   1.588   7.883  0.00  0.00    +0.000 A 
ATOM     12  C   UNL     1      46.957   2.648   7.180  0.00  0.00    +0.000 A 
ATOM     13  C   UNL     1      46.518   3.939   7.454  0.00  0.00    +0.000 A 
ATOM     14  C   UNL     1      45.534   4.136   8.420  0.00  0.00    +0.000 A 
ATOM     15  C   UNL     1      45.017   3.028   9.090  0.00  0.00    +0.000 A 
ATOM     16  N   UNL     1      45.440   1.763   8.829  0.00  0.00    +0.000 NA
ENDBRANCH   9  15
ENDBRANCH   7   9
ENDBRANCH   1   7
BRANCH   4  17
ATOM     17  C   UNL     1      47.883   6.521  14.069  0.00  0.00    +0.000 C 
BRANCH  17  18
ATOM     18  N   UNL     1      48.127   7.660  13.192  0.00  0.00    +0.000 N 
ATOM     19  C   UNL     1      48.431   7.367  11.801  0.00  0.00    +0.000 C 
ATOM     20  C   UNL     1      47.935   8.936  13.732  0.00  0.00    +0.000 C 
ATOM     21  O   UNL     1      47.670   9.096  14.919  0.00  0.00    +0.000 OA
BRANCH  20  22
ATOM     22  C   UNL     1      47.990  10.105  12.840  0.00  0.00    +0.000 A 
ATOM     23  C   UNL     1      49.131  10.843  12.553  0.00  0.00    +0.000 A 
ATOM     24  S   UNL     1      48.876  12.101  11.434  0.00  0.00    +0.000 S 
ATOM     25  C   UNL     1      47.278  11.601  11.175  0.00  0.00    +0.000 A 
ATOM     26  N   UNL     1      46.518  12.188  10.208  0.00  0.00    +0.000 NA
ATOM     27  C   UNL     1      45.345  11.667  10.082  0.00  0.00    +0.000 A 
ATOM     28  N   UNL     1      44.845  10.656  10.862  0.00  0.00    +0.000 N 
ATOM     29  C   UNL     1      45.526  10.122  11.931  0.00  0.00    +0.000 A 
ATOM     30  O   UNL     1      44.956   9.390  12.735  0.00  0.00    +0.000 OA
ATOM     31  C   UNL     1      46.902  10.579  12.022  0.00  0.00    +0.000 A 
ATOM     32  H   UNL     1      43.885  10.349  10.760  0.00  0.00    +0.000 HD
ENDBRANCH  20  22
ENDBRANCH  17  18
ENDBRANCH   4  17
TORSDOF 6
ENDMDL
MODEL 2
REMARK VINA RESULT:    -7.207      5.096      7.579
REMARK INTER + INTRA:         -10.808
REMARK INTER:                 -10.261
REMARK INTRA:                  -0.547
REMARK UNBOUND:                -1.074
REMARK  Name = 
REMARK  8 active torsions:
REMARK  status: ('A' for Active; 'I' for Inactive)
REMARK    1  A    between atoms: C_1  and  C_2
REMARK    2  A    between atoms: C_6  and  C_7
REMARK    3  A    between atoms: C_7  and  N_8
REMARK    4  A    between atoms: N_8  and  C_9
REMARK    5  A    between atoms: C_12  and  C_13
REMARK    6  A    between atoms: C_13  and  N_14
REMARK    7  A    between atoms: N_14  and  C_15
REMARK    8  A    between atoms: C_16  and  C_18
REMARK                            x       y       z     vdW  Elec       q    Type
REMARK                         _______ _______ _______ _____ _____    ______ ____
ROOT
ATOM      1  C   UNL     1      46.892   6.302  12.372  0.00  0.00    +0.000 A 
ATOM      2  C   UNL     1      46.721   5.203  13.223  0.00  0.00    +0.000 A 
ATOM      3  C   UNL     1      47.280   5.182  14.510  0.00  0.00    +0.000 A 
ATOM      4  C   UNL     1      48.014   6.276  14.988  0.00  0.00    +0.000 A 
ATOM      5  C   UNL     1      48.302   7.310  14.096  0.00  0.00    +0.000 A 
ATOM      6  C   UNL     1      47.768   7.308  12.802  0.00  0.00    +0.000 A 
ENDROOT
BRANCH   1   7
ATOM      7  N   UNL     1      46.310   6.290  11.091  0.00  0.00    +0.000 N 
ATOM      8  H   UNL     1      46.946   5.872  10.414  0.00  0.00    +0.000 HD
BRANCH   7   9
ATOM      9  C   UNL     1      44.978   5.681  10.959  0.00  0.00    +0.000 C 
BRANCH   9  15
ATOM     10  C   UNL     1      46.521   3.745   6.749  0.00  0.00    +0.000 C 
ATOM     11  C   UNL     1      45.749   3.554   8.019  0.00  0.00    +0.000 A 
ATOM     12  C   UNL     1      45.138   2.340   8.310  0.00  0.00    +0.000 A 
ATOM     13  C   UNL     1      44.438   2.213   9.506  0.00  0.00    +0.000 A 
ATOM     14  C   UNL     1      44.368   3.299  10.375  0.00  0.00    +0.000 A 
ATOM     15  C   UNL     1      45.001   4.488  10.019  0.00  0.00    +0.000 A 
ATOM     16  N   UNL     1      45.687   4.622   8.854  0.00  0.00    +0.000 NA
ENDBRANCH   9  15
ENDBRANCH   7   9
ENDBRANCH   1   7
BRANCH   4  17
ATOM     17  C   UNL     1      48.413   6.372  16.444  0.00  0.00    +0.000 C 
BRANCH  17  18
ATOM     18  N   UNL     1      49.728   5.821  16.746  0.00  0.00    +0.000 N 
ATOM     19  C   UNL     1      50.880   6.568  16.267  0.00  0.00    +0.000 C 
ATOM     20  C   UNL     1      49.775   4.689  17.565  0.00  0.00    +0.000 C 
ATOM     21  O   UNL     1      48.752   4.123  17.935  0.00  0.00    +0.000 OA
BRANCH  20  22
ATOM     22  C   UNL     1      51.080   4.207  18.046  0.00  0.00    +0.000 A 
ATOM     23  C   UNL     1      51.931   4.906  18.893  0.00  0.00    +0.000 A 
ATOM     24  S   UNL     1      53.340   4.049  19.315  0.00  0.00    +0.000 S 
ATOM     25  C   UNL     1      52.785   2.662  18.515  0.00  0.00    +0.000 A 
ATOM     26  N   UNL     1      53.475   1.490  18.603  0.00  0.00    +0.000 NA
ATOM     27  C   UNL     1      52.906   0.505  17.996  0.00  0.00    +0.000 A 
ATOM     28  N   UNL     1      51.746   0.594  17.270  0.00  0.00    +0.000 N 
ATOM     29  C   UNL     1      51.086   1.779  17.047  0.00  0.00    +0.000 A 
ATOM     30  O   UNL     1      50.190   1.850  16.209  0.00  0.00    +0.000 OA
ATOM     31  C   UNL     1      51.612   2.887  17.826  0.00  0.00    +0.000 A 
ATOM     32  H   UNL     1      51.397  -0.204  16.752  0.00  0.00    +0.000 HD
ENDBRANCH  20  22
ENDBRANCH  17  18
ENDBRANCH   4  17
TORSDOF 6
ENDMDL
MODEL 3
REMARK VINA RESULT:    -7.163      2.945      4.797
REMARK INTER + INTRA:         -10.749
REMARK INTER:                  -9.874
REMARK INTRA:                  -0.875
REMARK UNBOUND:                -1.074
REMARK  Name = 
REMARK  8 active torsions:
REMARK  status: ('A' for Active; 'I' for Inactive)
REMARK    1  A    between atoms: C_1  and  C_2
REMARK    2  A    between atoms: C_6  and  C_7
REMARK    3  A    between atoms: C_7  and  N_8
REMARK    4  A    between atoms: N_8  and  C_9
REMARK    5  A    between atoms: C_12  and  C_13
REMARK    6  A    between atoms: C_13  and  N_14
REMARK    7  A    between atoms: N_14  and  C_15
REMARK    8  A    between atoms: C_16  and  C_18
REMARK                            x       y       z     vdW  Elec       q    Type
REMARK                         _______ _______ _______ _____ _____    ______ ____
ROOT
ATOM      1  C   UNL     1      45.277   4.186  11.868  0.00  0.00    +0.000 A 
ATOM      2  C   UNL     1      45.061   5.401  11.208  0.00  0.00    +0.000 A 
ATOM      3  C   UNL     1      45.559   6.609  11.721  0.00  0.00    +0.000 A 
ATOM      4  C   UNL     1      46.304   6.629  12.907  0.00  0.00    +0.000 A 
ATOM      5  C   UNL     1      46.402   5.443  13.637  0.00  0.00    +0.000 A 
ATOM      6  C   UNL     1      45.875   4.248  13.134  0.00  0.00    +0.000 A 
ENDROOT
BRANCH   1   7
ATOM      7  N   UNL     1      44.770   2.993  11.320  0.00  0.00    +0.000 N 
ATOM      8  H   UNL     1      44.115   2.554  11.964  0.00  0.00    +0.000 HD
BRANCH   7   9
ATOM      9  C   UNL     1      44.169   3.068   9.979  0.00  0.00    +0.000 C 
BRANCH   9  15
ATOM     10  C   UNL     1      46.927  -0.169   7.576  0.00  0.00    +0.000 C 
ATOM     11  C   UNL     1      46.504   1.260   7.733  0.00  0.00    +0.000 A 
ATOM     12  C   UNL     1      47.008   2.252   6.898  0.00  0.00    +0.000 A 
ATOM     13  C   UNL     1      46.578   3.562   7.083  0.00  0.00    +0.000 A 
ATOM     14  C   UNL     1      45.660   3.845   8.091  0.00  0.00    +0.000 A 
ATOM     15  C   UNL     1      45.199   2.803   8.893  0.00  0.00    +0.000 A 
ATOM     16  N   UNL     1      45.613   1.520   8.721  0.00  0.00    +0.000 NA
ENDBRANCH   9  15
ENDBRANCH   7   9
ENDBRANCH   1   7
BRANCH   4  17
ATOM     17  C   UNL     1      47.047   7.873  13.342  0.00  0.00    +0.000 C 
BRANCH  17  18
ATOM     18  N   UNL     1      48.459   7.659  13.634  0.00  0.00    +0.000 N 
ATOM     19  C   UNL     1      49.259   7.032  12.594  0.00  0.00    +0.000 C 
ATOM     20  C   UNL     1      48.949   8.178  14.836  0.00  0.00    +0.000 C 
ATOM     21  O   UNL     1      48.206   8.704  15.658  0.00  0.00    +0.000 OA
BRANCH  20  22
ATOM     22  C   UNL     1      50.399   8.150  15.089  0.00  0.00    +0.000 A 
ATOM     23  C   UNL     1      51.300   9.135  14.708  0.00  0.00    +0.000 A 
ATOM     24  S   UNL     1      52.901   8.836  15.204  0.00  0.00    +0.000 S 
ATOM     25  C   UNL     1      52.417   7.469  16.080  0.00  0.00    +0.000 A 
ATOM     26  N   UNL     1      53.306   6.805  16.872  0.00  0.00    +0.000 NA
ATOM     27  C   UNL     1      52.785   5.822  17.525  0.00  0.00    +0.000 A 
ATOM     28  N   UNL     1      51.481   5.412  17.422  0.00  0.00    +0.000 N 
ATOM     29  C   UNL     1      50.583   5.970  16.542  0.00  0.00    +0.000 A 
ATOM     30  O   UNL     1      49.504   5.428  16.320  0.00  0.00    +0.000 OA
ATOM     31  C   UNL     1      51.085   7.167  15.890  0.00  0.00    +0.000 A 
ATOM     32  H   UNL     1      51.159   4.582  17.905  0.00  0.00    +0.000 HD
ENDBRANCH  20  22
ENDBRANCH  17  18
ENDBRANCH   4  17
TORSDOF 6
ENDMDL
MODEL 4
REMARK VINA RESULT:    -6.989      3.542      5.396
REMARK INTER + INTRA:         -10.515
REMARK INTER:                  -9.454
REMARK INTRA:                  -1.060
REMARK UNBOUND:                -1.074
REMARK  Name = 
REMARK  8 active torsions:
REMARK  status: ('A' for Active; 'I' for Inactive)
REMARK    1  A    between atoms: C_1  and  C_2
REMARK    2  A    between atoms: C_6  and  C_7
REMARK    3  A    between atoms: C_7  and  N_8
REMARK    4  A    between atoms: N_8  and  C_9
REMARK    5  A    between atoms: C_12  and  C_13
REMARK    6  A    between atoms: C_13  and  N_14
REMARK    7  A    between atoms: N_14  and  C_15
REMARK    8  A    between atoms: C_16  and  C_18
REMARK                            x       y       z     vdW  Elec       q    Type
REMARK                         _______ _______ _______ _____ _____    ______ ____
ROOT
ATOM      1  C   UNL     1      45.357   5.522  12.065  0.00  0.00    +0.000 A 
ATOM      2  C   UNL     1      46.112   4.905  13.070  0.00  0.00    +0.000 A 
ATOM      3  C   UNL     1      47.366   5.404  13.453  0.00  0.00    +0.000 A 
ATOM      4  C   UNL     1      47.893   6.553  12.848  0.00  0.00    +0.000 A 
ATOM      5  C   UNL     1      47.208   7.088  11.754  0.00  0.00    +0.000 A 
ATOM      6  C   UNL     1      45.973   6.563  11.358  0.00  0.00    +0.000 A 
ENDROOT
BRANCH   1   7
ATOM      7  N   UNL     1      44.100   4.997  11.713  0.00  0.00    +0.000 N 
ATOM      8  H   UNL     1      43.365   5.429  12.270  0.00  0.00    +0.000 HD
BRANCH   7   9
ATOM      9  C   UNL     1      43.728   5.030  10.290  0.00  0.00    +0.000 C 
BRANCH   9  15
ATOM     10  C   UNL     1      46.817   3.915   6.674  0.00  0.00    +0.000 C 
ATOM     11  C   UNL     1      45.943   3.420   7.786  0.00  0.00    +0.000 A 
ATOM     12  C   UNL     1      45.855   2.063   8.078  0.00  0.00    +0.000 A 
ATOM     13  C   UNL     1      45.033   1.657   9.125  0.00  0.00    +0.000 A 
ATOM     14  C   UNL     1      44.325   2.613   9.848  0.00  0.00    +0.000 A 
ATOM     15  C   UNL     1      44.457   3.956   9.500  0.00  0.00    +0.000 A 
ATOM     16  N   UNL     1      45.257   4.363   8.479  0.00  0.00    +0.000 NA
ENDBRANCH   9  15
ENDBRANCH   7   9
ENDBRANCH   1   7
BRANCH   4  17
ATOM     17  C   UNL     1      49.118   7.240  13.409  0.00  0.00    +0.000 C 
BRANCH  17  18
ATOM     18  N   UNL     1      48.938   7.794  14.745  0.00  0.00    +0.000 N 
ATOM     19  C   UNL     1      47.851   8.742  14.924  0.00  0.00    +0.000 C 
ATOM     20  C   UNL     1      49.748   7.282  15.764  0.00  0.00    +0.000 C 
ATOM     21  O   UNL     1      50.640   6.473  15.529  0.00  0.00    +0.000 OA
BRANCH  20  22
ATOM     22  C   UNL     1      49.479   7.675  17.157  0.00  0.00    +0.000 A 
ATOM     23  C   UNL     1      49.858   8.878  17.739  0.00  0.00    +0.000 A 
ATOM     24  S   UNL     1      49.343   9.056  19.352  0.00  0.00    +0.000 S 
ATOM     25  C   UNL     1      48.462   7.611  19.273  0.00  0.00    +0.000 A 
ATOM     26  N   UNL     1      47.656   7.235  20.306  0.00  0.00    +0.000 NA
ATOM     27  C   UNL     1      47.002   6.146  20.084  0.00  0.00    +0.000 A 
ATOM     28  N   UNL     1      47.116   5.376  18.955  0.00  0.00    +0.000 N 
ATOM     29  C   UNL     1      48.008   5.647  17.945  0.00  0.00    +0.000 A 
ATOM     30  O   UNL     1      48.239   4.815  17.072  0.00  0.00    +0.000 OA
ATOM     31  C   UNL     1      48.664   6.936  18.088  0.00  0.00    +0.000 A 
ATOM     32  H   UNL     1      46.630   4.490  18.881  0.00  0.00    +0.000 HD
ENDBRANCH  20  22
ENDBRANCH  17  18
ENDBRANCH   4  17
TORSDOF 6
ENDMDL
MODEL 5
REMARK VINA RESULT:    -6.948      2.035      3.341
REMARK INTER + INTRA:         -10.460
REMARK INTER:                  -9.517
REMARK INTRA:                  -0.942
REMARK UNBOUND:                -1.074
REMARK  Name = 
REMARK  8 active torsions:
REMARK  status: ('A' for Active; 'I' for Inactive)
REMARK    1  A    between atoms: C_1  and  C_2
REMARK    2  A    between atoms: C_6  and  C_7
REMARK    3  A    between atoms: C_7  and  N_8
REMARK    4  A    between atoms: N_8  and  C_9
REMARK    5  A    between atoms: C_12  and  C_13
REMARK    6  A    between atoms: C_13  and  N_14
REMARK    7  A    between atoms: N_14  and  C_15
REMARK    8  A    between atoms: C_16  and  C_18
REMARK                            x       y       z     vdW  Elec       q    Type
REMARK                         _______ _______ _______ _____ _____    ______ ____
ROOT
ATOM      1  C   UNL     1      45.253   4.570  11.726  0.00  0.00    +0.000 A 
ATOM      2  C   UNL     1      46.069   4.793  12.842  0.00  0.00    +0.000 A 
ATOM      3  C   UNL     1      46.343   6.091  13.299  0.00  0.00    +0.000 A 
ATOM      4  C   UNL     1      45.789   7.206  12.657  0.00  0.00    +0.000 A 
ATOM      5  C   UNL     1      45.091   6.995  11.467  0.00  0.00    +0.000 A 
ATOM      6  C   UNL     1      44.850   5.699  10.999  0.00  0.00    +0.000 A 
ENDROOT
BRANCH   1   7
ATOM      7  N   UNL     1      44.994   3.254  11.302  0.00  0.00    +0.000 N 
ATOM      8  H   UNL     1      44.504   2.735  12.028  0.00  0.00    +0.000 HD
BRANCH   7   9
ATOM      9  C   UNL     1      44.300   3.083  10.016  0.00  0.00    +0.000 C 
BRANCH   9  15
ATOM     10  C   UNL     1      46.928  -0.227   7.568  0.00  0.00    +0.000 C 
ATOM     11  C   UNL     1      46.520   1.208   7.710  0.00  0.00    +0.000 A 
ATOM     12  C   UNL     1      46.991   2.177   6.831  0.00  0.00    +0.000 A 
ATOM     13  C   UNL     1      46.577   3.494   7.003  0.00  0.00    +0.000 A 
ATOM     14  C   UNL     1      45.708   3.806   8.045  0.00  0.00    +0.000 A 
ATOM     15  C   UNL     1      45.277   2.786   8.891  0.00  0.00    +0.000 A 
ATOM     16  N   UNL     1      45.676   1.497   8.731  0.00  0.00    +0.000 NA
ENDBRANCH   9  15
ENDBRANCH   7   9
ENDBRANCH   1   7
BRANCH   4  17
ATOM     17  C   UNL     1      45.874   8.585  13.274  0.00  0.00    +0.000 C 
BRANCH  17  18
ATOM     18  N   UNL     1      47.223   9.134  13.338  0.00  0.00    +0.000 N 
ATOM     19  C   UNL     1      48.063   8.691  14.439  0.00  0.00    +0.000 C 
ATOM     20  C   UNL     1      47.634   9.945  12.276  0.00  0.00    +0.000 C 
ATOM     21  O   UNL     1      46.862  10.265  11.378  0.00  0.00    +0.000 OA
BRANCH  20  22
ATOM     22  C   UNL     1      49.041  10.371  12.203  0.00  0.00    +0.000 A 
ATOM     23  C   UNL     1      49.521  11.622  12.569  0.00  0.00    +0.000 A 
ATOM     24  S   UNL     1      51.210  11.781  12.426  0.00  0.00    +0.000 S 
ATOM     25  C   UNL     1      51.372  10.142  12.029  0.00  0.00    +0.000 A 
ATOM     26  N   UNL     1      52.607   9.579  11.905  0.00  0.00    +0.000 NA
ATOM     27  C   UNL     1      52.578   8.313  11.660  0.00  0.00    +0.000 A 
ATOM     28  N   UNL     1      51.439   7.573  11.477  0.00  0.00    +0.000 N 
ATOM     29  C   UNL     1      50.178   8.122  11.466  0.00  0.00    +0.000 A 
ATOM     30  O   UNL     1      49.214   7.470  11.073  0.00  0.00    +0.000 OA
ATOM     31  C   UNL     1      50.153   9.515  11.876  0.00  0.00    +0.000 A 
ATOM     32  H   UNL     1      51.492   6.598  11.209  0.00  0.00    +0.000 HD
ENDBRANCH  20  22
ENDBRANCH  17  18
ENDBRANCH   4  17
TORSDOF 6
ENDMDL
MODEL 6
REMARK VINA RESULT:    -6.230      3.474      5.931
REMARK INTER + INTRA:          -9.489
REMARK INTER:                  -8.411
REMARK INTRA:                  -1.078
REMARK UNBOUND:                -1.074
REMARK  Name = 
REMARK  8 active torsions:
REMARK  status: ('A' for Active; 'I' for Inactive)
REMARK    1  A    between atoms: C_1  and  C_2
REMARK    2  A    between atoms: C_6  and  C_7
REMARK    3  A    between atoms: C_7  and  N_8
REMARK    4  A    between atoms: N_8  and  C_9
REMARK    5  A    between atoms: C_12  and  C_13
REMARK    6  A    between atoms: C_13  and  N_14
REMARK    7  A    between atoms: N_14  and  C_15
REMARK    8  A    between atoms: C_16  and  C_18
REMARK                            x       y       z     vdW  Elec       q    Type
REMARK                         _______ _______ _______ _____ _____    ______ ____
ROOT
ATOM      1  C   UNL     1      45.810   7.759  11.705  0.00  0.00    +0.000 A 
ATOM      2  C   UNL     1      47.008   7.037  11.768  0.00  0.00    +0.000 A 
ATOM      3  C   UNL     1      48.144   7.559  12.406  0.00  0.00    +0.000 A 
ATOM      4  C   UNL     1      48.103   8.819  13.017  0.00  0.00    +0.000 A 
ATOM      5  C   UNL     1      46.958   9.597  12.837  0.00  0.00    +0.000 A 
ATOM      6  C   UNL     1      45.841   9.080  12.171  0.00  0.00    +0.000 A 
ENDROOT
BRANCH   1   7
ATOM      7  N   UNL     1      44.690   7.199  11.064  0.00  0.00    +0.000 N 
ATOM      8  H   UNL     1      44.913   6.959  10.100  0.00  0.00    +0.000 HD
BRANCH   7   9
ATOM      9  C   UNL     1      44.036   6.056  11.721  0.00  0.00    +0.000 C 
BRANCH   9  15
ATOM     10  C   UNL     1      45.857   3.867   7.752  0.00  0.00    +0.000 C 
ATOM     11  C   UNL     1      45.090   3.727   9.032  0.00  0.00    +0.000 A 
ATOM     12  C   UNL     1      44.613   2.489   9.451  0.00  0.00    +0.000 A 
ATOM     13  C   UNL     1      43.912   2.413  10.650  0.00  0.00    +0.000 A 
ATOM     14  C   UNL     1      43.707   3.571  11.396  0.00  0.00    +0.000 A 
ATOM     15  C   UNL     1      44.209   4.779  10.916  0.00  0.00    +0.000 A 
ATOM     16  N   UNL     1      44.895   4.864   9.746  0.00  0.00    +0.000 NA
ENDBRANCH   9  15
ENDBRANCH   7   9
ENDBRANCH   1   7
BRANCH   4  17
ATOM     17  C   UNL     1      49.230   9.291  13.910  0.00  0.00    +0.000 C 
BRANCH  17  18
ATOM     18  N   UNL     1      49.607   8.345  14.953  0.00  0.00    +0.000 N 
ATOM     19  C   UNL     1      50.844   7.607  14.756  0.00  0.00    +0.000 C 
ATOM     20  C   UNL     1      48.814   8.312  16.104  0.00  0.00    +0.000 C 
ATOM     21  O   UNL     1      47.787   8.977  16.194  0.00  0.00    +0.000 OA
BRANCH  20  22
ATOM     22  C   UNL     1      49.257   7.510  17.256  0.00  0.00    +0.000 A 
ATOM     23  C   UNL     1      49.898   8.010  18.382  0.00  0.00    +0.000 A 
ATOM     24  S   UNL     1      50.227   6.834  19.568  0.00  0.00    +0.000 S 
ATOM     25  C   UNL     1      49.382   5.656  18.691  0.00  0.00    +0.000 A 
ATOM     26  N   UNL     1      49.164   4.420  19.225  0.00  0.00    +0.000 NA
ATOM     27  C   UNL     1      48.457   3.648  18.472  0.00  0.00    +0.000 A 
ATOM     28  N   UNL     1      47.996   3.973  17.223  0.00  0.00    +0.000 N 
ATOM     29  C   UNL     1      48.299   5.157  16.593  0.00  0.00    +0.000 A 
ATOM     30  O   UNL     1      48.061   5.311  15.398  0.00  0.00    +0.000 OA
ATOM     31  C   UNL     1      48.973   6.112  17.456  0.00  0.00    +0.000 A 
ATOM     32  H   UNL     1      47.514   3.288  16.653  0.00  0.00    +0.000 HD
ENDBRANCH  20  22
ENDBRANCH  17  18
ENDBRANCH   4  17
TORSDOF 6
ENDMDL
MODEL 7
REMARK VINA RESULT:    -6.193      4.502      6.506
REMARK INTER + INTRA:          -9.439
REMARK INTER:                  -8.418
REMARK INTRA:                  -1.021
REMARK UNBOUND:                -1.074
REMARK  Name = 
REMARK  8 active torsions:
REMARK  status: ('A' for Active; 'I' for Inactive)
REMARK    1  A    between atoms: C_1  and  C_2
REMARK    2  A    between atoms: C_6  and  C_7
REMARK    3  A    between atoms: C_7  and  N_8
REMARK    4  A    between atoms: N_8  and  C_9
REMARK    5  A    between atoms: C_12  and  C_13
REMARK    6  A    between atoms: C_13  and  N_14
REMARK    7  A    between atoms: N_14  and  C_15
REMARK    8  A    between atoms: C_16  and  C_18
REMARK                            x       y       z     vdW  Elec       q    Type
REMARK                         _______ _______ _______ _____ _____    ______ ____
ROOT
ATOM      1  C   UNL     1      45.901   6.035  12.070  0.00  0.00    +0.000 A 
ATOM      2  C   UNL     1      46.327   7.363  12.190  0.00  0.00    +0.000 A 
ATOM      3  C   UNL     1      47.346   7.725  13.084  0.00  0.00    +0.000 A 
ATOM      4  C   UNL     1      47.981   6.758  13.873  0.00  0.00    +0.000 A 
ATOM      5  C   UNL     1      47.466   5.460  13.857  0.00  0.00    +0.000 A 
ATOM      6  C   UNL     1      46.427   5.114  12.986  0.00  0.00    +0.000 A 
ENDROOT
BRANCH   1   7
ATOM      7  N   UNL     1      44.881   5.708  11.157  0.00  0.00    +0.000 N 
ATOM      8  H   UNL     1      44.047   6.262  11.340  0.00  0.00    +0.000 HD
BRANCH   7   9
ATOM      9  C   UNL     1      45.212   5.769   9.725  0.00  0.00    +0.000 C 
BRANCH   9  15
ATOM     10  C   UNL     1      46.957   2.964   6.127  0.00  0.00    +0.000 C 
ATOM     11  C   UNL     1      46.207   3.035   7.423  0.00  0.00    +0.000 A 
ATOM     12  C   UNL     1      45.724   1.884   8.035  0.00  0.00    +0.000 A 
ATOM     13  C   UNL     1      45.039   2.005   9.240  0.00  0.00    +0.000 A 
ATOM     14  C   UNL     1      44.855   3.268   9.797  0.00  0.00    +0.000 A 
ATOM     15  C   UNL     1      45.362   4.380   9.128  0.00  0.00    +0.000 A 
ATOM     16  N   UNL     1      46.032   4.272   7.951  0.00  0.00    +0.000 NA
ENDBRANCH   9  15
ENDBRANCH   7   9
ENDBRANCH   1   7
BRANCH   4  17
ATOM     17  C   UNL     1      49.233   7.087  14.656  0.00  0.00    +0.000 C 
BRANCH  17  18
ATOM     18  N   UNL     1      49.010   7.319  16.078  0.00  0.00    +0.000 N 
ATOM     19  C   UNL     1      48.489   8.621  16.459  0.00  0.00    +0.000 C 
ATOM     20  C   UNL     1      49.205   6.236  16.941  0.00  0.00    +0.000 C 
ATOM     21  O   UNL     1      49.641   5.164  16.535  0.00  0.00    +0.000 OA
BRANCH  20  22
ATOM     22  C   UNL     1      48.818   6.369  18.355  0.00  0.00    +0.000 A 
ATOM     23  C   UNL     1      47.606   5.960  18.896  0.00  0.00    +0.000 A 
ATOM     24  S   UNL     1      47.488   6.196  20.578  0.00  0.00    +0.000 S 
ATOM     25  C   UNL     1      49.103   6.699  20.662  0.00  0.00    +0.000 A 
ATOM     26  N   UNL     1      49.693   6.932  21.869  0.00  0.00    +0.000 NA
ATOM     27  C   UNL     1      50.940   7.249  21.784  0.00  0.00    +0.000 A 
ATOM     28  N   UNL     1      51.634   7.406  20.612  0.00  0.00    +0.000 N 
ATOM     29  C   UNL     1      51.050   7.308  19.371  0.00  0.00    +0.000 A 
ATOM     30  O   UNL     1      51.648   7.679  18.365  0.00  0.00    +0.000 OA
ATOM     31  C   UNL     1      49.684   6.814  19.417  0.00  0.00    +0.000 A 
ATOM     32  H   UNL     1      52.592   7.735  20.617  0.00  0.00    +0.000 HD
ENDBRANCH  20  22
ENDBRANCH  17  18
ENDBRANCH   4  17
TORSDOF 6
ENDMDL
MODEL 8
REMARK VINA RESULT:    -6.089      4.476      7.769
REMARK INTER + INTRA:          -9.299
REMARK INTER:                  -8.295
REMARK INTRA:                  -1.005
REMARK UNBOUND:                -1.074
REMARK  Name = 
REMARK  8 active torsions:
REMARK  status: ('A' for Active; 'I' for Inactive)
REMARK    1  A    between atoms: C_1  and  C_2
REMARK    2  A    between atoms: C_6  and  C_7
REMARK    3  A    between atoms: C_7  and  N_8
REMARK    4  A    between atoms: N_8  and  C_9
REMARK    5  A    between atoms: C_12  and  C_13
REMARK    6  A    between atoms: C_13  and  N_14
REMARK    7  A    between atoms: N_14  and  C_15
REMARK    8  A    between atoms: C_16  and  C_18
REMARK                            x       y       z     vdW  Elec       q    Type
REMARK                         _______ _______ _______ _____ _____    ______ ____
ROOT
ATOM      1  C   UNL     1      44.115   8.982  11.228  0.00  0.00    +0.000 A 
ATOM      2  C   UNL     1      44.733  10.200  11.536  0.00  0.00    +0.000 A 
ATOM      3  C   UNL     1      46.034  10.248  12.059  0.00  0.00    +0.000 A 
ATOM      4  C   UNL     1      46.762   9.070  12.272  0.00  0.00    +0.000 A 
ATOM      5  C   UNL     1      46.101   7.852  12.096  0.00  0.00    +0.000 A 
ATOM      6  C   UNL     1      44.792   7.814  11.605  0.00  0.00    +0.000 A 
ENDROOT
BRANCH   1   7
ATOM      7  N   UNL     1      42.812   8.974  10.698  0.00  0.00    +0.000 N 
ATOM      8  H   UNL     1      42.167   8.525  11.345  0.00  0.00    +0.000 HD
BRANCH   7   9
ATOM      9  C   UNL     1      42.255  10.261  10.255  0.00  0.00    +0.000 C 
BRANCH   9  15
ATOM     10  C   UNL     1      37.601   9.704  11.631  0.00  0.00    +0.000 C 
ATOM     11  C   UNL     1      38.896  10.436  11.820  0.00  0.00    +0.000 A 
ATOM     12  C   UNL     1      39.023  11.428  12.786  0.00  0.00    +0.000 A 
ATOM     13  C   UNL     1      40.248  12.073  12.924  0.00  0.00    +0.000 A 
ATOM     14  C   UNL     1      41.309  11.710  12.098  0.00  0.00    +0.000 A 
ATOM     15  C   UNL     1      41.111  10.709  11.149  0.00  0.00    +0.000 A 
ATOM     16  N   UNL     1      39.918  10.073  11.006  0.00  0.00    +0.000 NA
ENDBRANCH   9  15
ENDBRANCH   7   9
ENDBRANCH   1   7
BRANCH   4  17
ATOM     17  C   UNL     1      48.238   9.112  12.602  0.00  0.00    +0.000 C 
BRANCH  17  18
ATOM     18  N   UNL     1      48.578   8.567  13.909  0.00  0.00    +0.000 N 
ATOM     19  C   UNL     1      48.134   9.319  15.072  0.00  0.00    +0.000 C 
ATOM     20  C   UNL     1      49.199   7.314  13.939  0.00  0.00    +0.000 C 
ATOM     21  O   UNL     1      49.534   6.741  12.908  0.00  0.00    +0.000 OA
BRANCH  20  22
ATOM     22  C   UNL     1      49.394   6.643  15.234  0.00  0.00    +0.000 A 
ATOM     23  C   UNL     1      50.353   6.985  16.179  0.00  0.00    +0.000 A 
ATOM     24  S   UNL     1      50.281   6.055  17.603  0.00  0.00    +0.000 S 
ATOM     25  C   UNL     1      48.872   5.278  17.073  0.00  0.00    +0.000 A 
ATOM     26  N   UNL     1      48.196   4.431  17.900  0.00  0.00    +0.000 NA
ATOM     27  C   UNL     1      47.111   3.960  17.386  0.00  0.00    +0.000 A 
ATOM     28  N   UNL     1      46.668   4.214  16.114  0.00  0.00    +0.000 N 
ATOM     29  C   UNL     1      47.380   4.958  15.202  0.00  0.00    +0.000 A 
ATOM     30  O   UNL     1      47.063   4.968  14.016  0.00  0.00    +0.000 OA
ATOM     31  C   UNL     1      48.536   5.622  15.780  0.00  0.00    +0.000 A 
ATOM     32  H   UNL     1      45.847   3.747  15.747  0.00  0.00    +0.000 HD
ENDBRANCH  20  22
ENDBRANCH  17  18
ENDBRANCH   4  17
TORSDOF 6
ENDMDL
MODEL 9
REMARK VINA RESULT:    -5.891      3.313      5.372
REMARK INTER + INTRA:          -9.032
REMARK INTER:                  -8.038
REMARK INTRA:                  -0.994
REMARK UNBOUND:                -1.074
REMARK  Name = 
REMARK  8 active torsions:
REMARK  status: ('A' for Active; 'I' for Inactive)
REMARK    1  A    between atoms: C_1  and  C_2
REMARK    2  A    between atoms: C_6  and  C_7
REMARK    3  A    between atoms: C_7  and  N_8
REMARK    4  A    between atoms: N_8  and  C_9
REMARK    5  A    between atoms: C_12  and  C_13
REMARK    6  A    between atoms: C_13  and  N_14
REMARK    7  A    between atoms: N_14  and  C_15
REMARK    8  A    between atoms: C_16  and  C_18
REMARK                            x       y       z     vdW  Elec       q    Type
REMARK                         _______ _______ _______ _____ _____    ______ ____
ROOT
ATOM      1  C   UNL     1      45.192   7.160  12.482  0.00  0.00    +0.000 A 
ATOM      2  C   UNL     1      45.219   8.557  12.403  0.00  0.00    +0.000 A 
ATOM      3  C   UNL     1      46.423   9.256  12.224  0.00  0.00    +0.000 A 
ATOM      4  C   UNL     1      47.637   8.567  12.101  0.00  0.00    +0.000 A 
ATOM      5  C   UNL     1      47.631   7.188  12.317  0.00  0.00    +0.000 A 
ATOM      6  C   UNL     1      46.429   6.503  12.528  0.00  0.00    +0.000 A 
ENDROOT
BRANCH   1   7
ATOM      7  N   UNL     1      43.965   6.494  12.653  0.00  0.00    +0.000 N 
ATOM      8  H   UNL     1      43.375   6.997  13.313  0.00  0.00    +0.000 HD
BRANCH   7   9
ATOM      9  C   UNL     1      43.193   6.176  11.441  0.00  0.00    +0.000 C 
BRANCH   9  15
ATOM     10  C   UNL     1      45.312   3.591   7.879  0.00  0.00    +0.000 C 
ATOM     11  C   UNL     1      44.594   3.577   9.195  0.00  0.00    +0.000 A 
ATOM     12  C   UNL     1      44.337   2.382   9.858  0.00  0.00    +0.000 A 
ATOM     13  C   UNL     1      43.672   2.424  11.079  0.00  0.00    +0.000 A 
ATOM     14  C   UNL     1      43.283   3.655  11.603  0.00  0.00    +0.000 A 
ATOM     15  C   UNL     1      43.570   4.813  10.884  0.00  0.00    +0.000 A 
ATOM     16  N   UNL     1      44.219   4.782   9.690  0.00  0.00    +0.000 NA
ENDBRANCH   9  15
ENDBRANCH   7   9
ENDBRANCH   1   7
BRANCH   4  17
ATOM     17  C   UNL     1      48.900   9.280  11.670  0.00  0.00    +0.000 C 
BRANCH  17  18
ATOM     18  N   UNL     1      50.106   8.835  12.355  0.00  0.00    +0.000 N 
ATOM     19  C   UNL     1      51.029   8.007  11.595  0.00  0.00    +0.000 C 
ATOM     20  C   UNL     1      50.333   9.335  13.642  0.00  0.00    +0.000 C 
ATOM     21  O   UNL     1      49.505  10.038  14.211  0.00  0.00    +0.000 OA
BRANCH  20  22
ATOM     22  C   UNL     1      51.621   9.062  14.299  0.00  0.00    +0.000 A 
ATOM     23  C   UNL     1      52.761   9.847  14.187  0.00  0.00    +0.000 A 
ATOM     24  S   UNL     1      54.073   9.295  15.121  0.00  0.00    +0.000 S 
ATOM     25  C   UNL     1      53.115   8.089  15.828  0.00  0.00    +0.000 A 
ATOM     26  N   UNL     1      53.605   7.323  16.843  0.00  0.00    +0.000 NA
ATOM     27  C   UNL     1      52.748   6.489  17.324  0.00  0.00    +0.000 A 
ATOM     28  N   UNL     1      51.472   6.314  16.854  0.00  0.00    +0.000 N 
ATOM     29  C   UNL     1      50.977   6.972  15.753  0.00  0.00    +0.000 A 
ATOM     30  O   UNL     1      49.922   6.619  15.233  0.00  0.00    +0.000 OA
ATOM     31  C   UNL     1      51.858   8.020  15.266  0.00  0.00    +0.000 A 
ATOM     32  H   UNL     1      50.877   5.583  17.228  0.00  0.00    +0.000 HD
ENDBRANCH  20  22
ENDBRANCH  17  18
ENDBRANCH   4  17
TORSDOF 6
ENDMDL
