MODEL 1
REMARK VINA RESULT:    -7.612      0.000      0.000
REMARK INTER + INTRA:         -10.162
REMARK INTER:                  -9.837
REMARK INTRA:                  -0.325
REMARK UNBOUND:                -0.325
REMARK  Name = 
REMARK  5 active torsions:
REMARK  status: ('A' for Active; 'I' for Inactive)
REMARK    1  A    between atoms: C_2  and  C_4
REMARK    2  A    between atoms: C_8  and  O_9
REMARK    3  A    between atoms: O_9  and  C_10
REMARK    4  A    between atoms: C_10  and  C_11
REMARK    5  A    between atoms: C_16  and  C_17
REMARK                            x       y       z     vdW  Elec       q    Type
REMARK                         _______ _______ _______ _____ _____    ______ ____
ROOT
ATOM      1  C   UNL     1      44.873   4.864  11.818  0.00  0.00    +0.000 A 
ATOM      2  C   UNL     1      44.862   4.008  12.923  0.00  0.00    +0.000 A 
ATOM      3  C   UNL     1      45.855   4.116  13.888  0.00  0.00    +0.000 A 
ATOM      4  C   UNL     1      46.862   5.072  13.755  0.00  0.00    +0.000 A 
ATOM      5  F   UNL     1      47.792   5.091  14.717  0.00  0.00    +0.000 F 
ATOM      6  C   UNL     1      46.912   5.957  12.667  0.00  0.00    +0.000 A 
ATOM      7  C   UNL     1      45.907   5.809  11.688  0.00  0.00    +0.000 A 
ENDROOT
BRANCH   6   8
ATOM      8  C   UNL     1      48.018   6.991  12.445  0.00  0.00    +0.000 C 
ATOM      9  C   UNL     1      48.855   7.413  13.668  0.00  0.00    +0.000 C 
ATOM     10  C   UNL     1      48.098   8.378  14.586  0.00  0.00    +0.000 C 
ATOM     11  N   UNL     1      47.658   9.578  13.874  0.00  0.00    +0.000 NA
ATOM     12  C   UNL     1      46.825   9.236  12.722  0.00  0.00    +0.000 C 
ATOM     13  C   UNL     1      47.535   8.288  11.755  0.00  0.00    +0.000 C 
ATOM     14  H   UNL     1      48.477  10.099  13.561  0.00  0.00    +0.000 HD
ENDBRANCH   6   8
BRANCH   1  15
ATOM     15  C   UNL     1      43.783   4.768  10.784  0.00  0.00    +0.000 C 
BRANCH  15  16
ATOM     16  O   UNL     1      43.829   3.489  10.153  0.00  0.00    +0.000 OA
BRANCH  16  21
ATOM     17  C   UNL     1      46.338   2.103   7.806  0.00  0.00    +0.000 A 
ATOM     18  C   UNL     1      46.737   3.315   7.255  0.00  0.00    +0.000 A 
ATOM     19  N   UNL     1      46.201   4.508   7.604  0.00  0.00    +0.000 NA
ATOM     20  C   UNL     1      45.242   4.484   8.562  0.00  0.00    +0.000 A 
ATOM     21  C   UNL     1      44.790   3.330   9.194  0.00  0.00    +0.000 A 
ATOM     22  C   UNL     1      45.358   2.119   8.803  0.00  0.00    +0.000 A 
BRANCH  17  24
ATOM     23  N   UNL     1      47.818   0.939   6.274  0.00  0.00    +0.000 N 
ATOM     24  C   UNL     1      46.981   0.855   7.355  0.00  0.00    +0.000 C 
ATOM     25  O   UNL     1      46.796  -0.206   7.932  0.00  0.00    +0.000 OA
ATOM     26  H   UNL     1      48.325   0.095   6.036  0.00  0.00    +0.000 HD
ATOM     27  H   UNL     1      48.197   1.814   5.942  0.00  0.00    +0.000 HD
ENDBRANCH  17  24
ENDBRANCH  16  21
ENDBRANCH  15  16
ENDBRANCH   1  15
TORSDOF 5
ENDMDL
MODEL 2
REMARK VINA RESULT:    -7.156      4.298      7.589
REMARK INTER + INTRA:          -9.573
REMARK INTER:                  -8.904
REMARK INTRA:                  -0.670
REMARK UNBOUND:                -0.325
REMARK  Name = 
REMARK  5 active torsions:
REMARK  status: ('A' for Active; 'I' for Inactive)
REMARK    1  A    between atoms: C_2  and  C_4
REMARK    2  A    between atoms: C_8  and  O_9
REMARK    3  A    between atoms: O_9  and  C_10
REMARK    4  A    between atoms: C_10  and  C_11
REMARK    5  A    between atoms: C_16  and  C_17
REMARK                            x       y       z     vdW  Elec       q    Type
REMARK                         _______ _______ _______ _____ _____    ______ ____
ROOT
ATOM      1  C   UNL     1      47.337   7.419  12.822  0.00  0.00    +0.000 A 
ATOM      2  C   UNL     1      46.951   8.762  12.790  0.00  0.00    +0.000 A 
ATOM      3  C   UNL     1      45.735   9.115  12.220  0.00  0.00    +0.000 A 
ATOM      4  C   UNL     1      44.902   8.136  11.681  0.00  0.00    +0.000 A 
ATOM      5  F   UNL     1      43.760   8.566  11.131  0.00  0.00    +0.000 F 
ATOM      6  C   UNL     1      45.243   6.775  11.696  0.00  0.00    +0.000 A 
ATOM      7  C   UNL     1      46.495   6.445  12.255  0.00  0.00    +0.000 A 
ENDROOT
BRANCH   6   8
ATOM      8  C   UNL     1      44.392   5.664  11.076  0.00  0.00    +0.000 C 
ATOM      9  C   UNL     1      42.972   5.456  11.639  0.00  0.00    +0.000 C 
ATOM     10  C   UNL     1      42.982   4.733  12.990  0.00  0.00    +0.000 C 
ATOM     11  N   UNL     1      43.658   3.438  12.911  0.00  0.00    +0.000 NA
ATOM     12  C   UNL     1      45.027   3.582  12.418  0.00  0.00    +0.000 C 
ATOM     13  C   UNL     1      45.082   4.280  11.058  0.00  0.00    +0.000 C 
ATOM     14  H   UNL     1      43.133   2.825  12.288  0.00  0.00    +0.000 HD
ENDBRANCH   6   8
BRANCH   1  15
ATOM     15  C   UNL     1      48.644   7.028  13.462  0.00  0.00    +0.000 C 
BRANCH  15  16
ATOM     16  O   UNL     1      48.636   7.402  14.839  0.00  0.00    +0.000 OA
BRANCH  16  21
ATOM     17  C   UNL     1      48.634   4.528  17.176  0.00  0.00    +0.000 A 
ATOM     18  C   UNL     1      49.981   4.591  17.518  0.00  0.00    +0.000 A 
ATOM     19  N   UNL     1      50.843   5.495  16.997  0.00  0.00    +0.000 NA
ATOM     20  C   UNL     1      50.327   6.386  16.114  0.00  0.00    +0.000 A 
ATOM     21  C   UNL     1      48.991   6.424  15.726  0.00  0.00    +0.000 A 
ATOM     22  C   UNL     1      48.134   5.473  16.276  0.00  0.00    +0.000 A 
BRANCH  17  24
ATOM     23  N   UNL     1      48.234   2.919  18.949  0.00  0.00    +0.000 N 
ATOM     24  C   UNL     1      47.777   3.501  17.797  0.00  0.00    +0.000 C 
ATOM     25  O   UNL     1      46.693   3.198  17.320  0.00  0.00    +0.000 OA
ATOM     26  H   UNL     1      47.593   2.288  19.414  0.00  0.00    +0.000 HD
ATOM     27  H   UNL     1      48.975   3.318  19.507  0.00  0.00    +0.000 HD
ENDBRANCH  17  24
ENDBRANCH  16  21
ENDBRANCH  15  16
ENDBRANCH   1  15
TORSDOF 5
ENDMDL
MODEL 3
REMARK VINA RESULT:    -6.622      4.245      6.492
REMARK INTER + INTRA:          -8.883
REMARK INTER:                  -8.468
REMARK INTRA:                  -0.415
REMARK UNBOUND:                -0.325
REMARK  Name = 
REMARK  5 active torsions:
REMARK  status: ('A' for Active; 'I' for Inactive)
REMARK    1  A    between atoms: C_2  and  C_4
REMARK    2  A    between atoms: C_8  and  O_9
REMARK    3  A    between atoms: O_9  and  C_10
REMARK    4  A    between atoms: C_10  and  C_11
REMARK    5  A    between atoms: C_16  and  C_17
REMARK                            x       y       z     vdW  Elec       q    Type
REMARK                         _______ _______ _______ _____ _____    ______ ____
ROOT
ATOM      1  C   UNL     1      49.369   7.010  15.135  0.00  0.00    +0.000 A 
ATOM      2  C   UNL     1      50.672   7.513  15.081  0.00  0.00    +0.000 A 
ATOM      3  C   UNL     1      51.630   7.038  15.967  0.00  0.00    +0.000 A 
ATOM      4  C   UNL     1      51.295   6.065  16.908  0.00  0.00    +0.000 A 
ATOM      5  F   UNL     1      52.272   5.682  17.739  0.00  0.00    +0.000 F 
ATOM      6  C   UNL     1      50.002   5.526  16.997  0.00  0.00    +0.000 A 
ATOM      7  C   UNL     1      49.040   6.045  16.104  0.00  0.00    +0.000 A 
ENDROOT
BRANCH   6   8
ATOM      8  C   UNL     1      49.565   4.495  18.040  0.00  0.00    +0.000 C 
ATOM      9  C   UNL     1      49.403   3.035  17.574  0.00  0.00    +0.000 C 
ATOM     10  C   UNL     1      48.112   2.818  16.778  0.00  0.00    +0.000 C 
ATOM     11  N   UNL     1      46.927   3.209  17.542  0.00  0.00    +0.000 NA
ATOM     12  C   UNL     1      47.011   4.602  17.977  0.00  0.00    +0.000 C 
ATOM     13  C   UNL     1      48.272   4.878  18.797  0.00  0.00    +0.000 C 
ATOM     14  H   UNL     1      46.840   2.601  18.356  0.00  0.00    +0.000 HD
ENDBRANCH   6   8
BRANCH   1  15
ATOM     15  C   UNL     1      48.333   7.503  14.158  0.00  0.00    +0.000 C 
BRANCH  15  16
ATOM     16  O   UNL     1      48.194   6.568  13.090  0.00  0.00    +0.000 OA
BRANCH  16  21
ATOM     17  C   UNL     1      44.672   5.649  12.403  0.00  0.00    +0.000 A 
ATOM     18  C   UNL     1      44.696   4.412  13.039  0.00  0.00    +0.000 A 
ATOM     19  N   UNL     1      45.800   3.896  13.629  0.00  0.00    +0.000 NA
ATOM     20  C   UNL     1      46.918   4.663  13.599  0.00  0.00    +0.000 A 
ATOM     21  C   UNL     1      46.991   5.923  13.013  0.00  0.00    +0.000 A 
ATOM     22  C   UNL     1      45.838   6.418  12.407  0.00  0.00    +0.000 A 
BRANCH  17  24
ATOM     23  N   UNL     1      43.458   7.329  11.142  0.00  0.00    +0.000 N 
ATOM     24  C   UNL     1      43.419   6.121  11.785  0.00  0.00    +0.000 C 
ATOM     25  O   UNL     1      42.396   5.454  11.822  0.00  0.00    +0.000 OA
ATOM     26  H   UNL     1      42.618   7.595  10.642  0.00  0.00    +0.000 HD
ATOM     27  H   UNL     1      44.320   7.775  10.864  0.00  0.00    +0.000 HD
ENDBRANCH  17  24
ENDBRANCH  16  21
ENDBRANCH  15  16
ENDBRANCH   1  15
TORSDOF 5
ENDMDL
MODEL 4
REMARK VINA RESULT:    -6.565      3.393      5.206
REMARK INTER + INTRA:          -8.809
REMARK INTER:                  -8.248
REMARK INTRA:                  -0.561
REMARK UNBOUND:                -0.325
REMARK  Name = 
REMARK  5 active torsions:
REMARK  status: ('A' for Active; 'I' for Inactive)
REMARK    1  A    between atoms: C_2  and  C_4
REMARK    2  A    between atoms: C_8  and  O_9
REMARK    3  A    between atoms: O_9  and  C_10
REMARK    4  A    between atoms: C_10  and  C_11
REMARK    5  A    between atoms: C_16  and  C_17
REMARK                            x       y       z     vdW  Elec       q    Type
REMARK                         _______ _______ _______ _____ _____    ______ ____
ROOT
ATOM      1  C   UNL     1      48.522   6.916  13.804  0.00  0.00    +0.000 A 
ATOM      2  C   UNL     1      49.712   7.648  13.802  0.00  0.00    +0.000 A 
ATOM      3  C   UNL     1      50.521   7.650  14.930  0.00  0.00    +0.000 A 
ATOM      4  C   UNL     1      50.149   6.926  16.062  0.00  0.00    +0.000 A 
ATOM      5  F   UNL     1      50.975   7.002  17.113  0.00  0.00    +0.000 F 
ATOM      6  C   UNL     1      48.968   6.170  16.110  0.00  0.00    +0.000 A 
ATOM      7  C   UNL     1      48.149   6.207  14.961  0.00  0.00    +0.000 A 
ENDROOT
BRANCH   6   8
ATOM      8  C   UNL     1      48.486   5.397  17.339  0.00  0.00    +0.000 C 
ATOM      9  C   UNL     1      49.554   4.724  18.222  0.00  0.00    +0.000 C 
ATOM     10  C   UNL     1      50.103   3.438  17.594  0.00  0.00    +0.000 C 
ATOM     11  N   UNL     1      49.040   2.472  17.311  0.00  0.00    +0.000 NA
ATOM     12  C   UNL     1      48.015   3.049  16.443  0.00  0.00    +0.000 C 
ATOM     13  C   UNL     1      47.413   4.327  17.027  0.00  0.00    +0.000 C 
ATOM     14  H   UNL     1      48.617   2.177  18.191  0.00  0.00    +0.000 HD
ENDBRANCH   6   8
BRANCH   1  15
ATOM     15  C   UNL     1      47.654   6.889  12.573  0.00  0.00    +0.000 C 
BRANCH  15  16
ATOM     16  O   UNL     1      46.282   6.793  12.954  0.00  0.00    +0.000 OA
BRANCH  16  21
ATOM     17  C   UNL     1      44.893   4.795  10.160  0.00  0.00    +0.000 A 
ATOM     18  C   UNL     1      43.704   4.439  10.786  0.00  0.00    +0.000 A 
ATOM     19  N   UNL     1      43.386   4.802  12.051  0.00  0.00    +0.000 NA
ATOM     20  C   UNL     1      44.290   5.573  12.705  0.00  0.00    +0.000 A 
ATOM     21  C   UNL     1      45.496   6.004  12.160  0.00  0.00    +0.000 A 
ATOM     22  C   UNL     1      45.793   5.604  10.859  0.00  0.00    +0.000 A 
BRANCH  17  24
ATOM     23  N   UNL     1      44.284   3.422   8.254  0.00  0.00    +0.000 N 
ATOM     24  C   UNL     1      45.148   4.345   8.779  0.00  0.00    +0.000 C 
ATOM     25  O   UNL     1      46.074   4.793   8.120  0.00  0.00    +0.000 OA
ATOM     26  H   UNL     1      44.414   3.194   7.276  0.00  0.00    +0.000 HD
ATOM     27  H   UNL     1      43.377   3.230   8.655  0.00  0.00    +0.000 HD
ENDBRANCH  17  24
ENDBRANCH  16  21
ENDBRANCH  15  16
ENDBRANCH   1  15
TORSDOF 5
ENDMDL
MODEL 5
REMARK VINA RESULT:    -6.531      2.815      4.099
REMARK INTER + INTRA:          -8.766
REMARK INTER:                  -8.233
REMARK INTRA:                  -0.533
REMARK UNBOUND:                -0.325
REMARK  Name = 
REMARK  5 active torsions:
REMARK  status: ('A' for Active; 'I' for Inactive)
REMARK    1  A    between atoms: C_2  and  C_4
REMARK    2  A    between atoms: C_8  and  O_9
REMARK    3  A    between atoms: O_9  and  C_10
REMARK    4  A    between atoms: C_10  and  C_11
REMARK    5  A    between atoms: C_16  and  C_17
REMARK                            x       y       z     vdW  Elec       q    Type
REMARK                         _______ _______ _______ _____ _____    ______ ____
ROOT
ATOM      1  C   UNL     1      46.294   7.518  12.332  0.00  0.00    +0.000 A 
ATOM      2  C   UNL     1      47.471   6.840  12.003  0.00  0.00    +0.000 A 
ATOM      3  C   UNL     1      48.621   7.561  11.706  0.00  0.00    +0.000 A 
ATOM      4  C   UNL     1      48.602   8.955  11.734  0.00  0.00    +0.000 A 
ATOM      5  F   UNL     1      49.746   9.570  11.411  0.00  0.00    +0.000 F 
ATOM      6  C   UNL     1      47.446   9.679  12.064  0.00  0.00    +0.000 A 
ATOM      7  C   UNL     1      46.285   8.925  12.335  0.00  0.00    +0.000 A 
ENDROOT
BRANCH   6   8
ATOM      8  C   UNL     1      47.354  11.207  12.063  0.00  0.00    +0.000 C 
ATOM      9  C   UNL     1      45.978  11.837  11.771  0.00  0.00    +0.000 C 
ATOM     10  C   UNL     1      45.618  11.785  10.283  0.00  0.00    +0.000 C 
ATOM     11  N   UNL     1      46.628  12.442   9.452  0.00  0.00    +0.000 NA
ATOM     12  C   UNL     1      47.950  11.855   9.662  0.00  0.00    +0.000 C 
ATOM     13  C   UNL     1      48.377  11.896  11.130  0.00  0.00    +0.000 C 
ATOM     14  H   UNL     1      46.654  13.435   9.683  0.00  0.00    +0.000 HD
ENDBRANCH   6   8
BRANCH   1  15
ATOM     15  C   UNL     1      45.053   6.740  12.681  0.00  0.00    +0.000 C 
BRANCH  15  16
ATOM     16  O   UNL     1      44.249   6.567  11.515  0.00  0.00    +0.000 OA
BRANCH  16  21
ATOM     17  C   UNL     1      44.984   3.661   9.338  0.00  0.00    +0.000 A 
ATOM     18  C   UNL     1      44.143   2.758   9.979  0.00  0.00    +0.000 A 
ATOM     19  N   UNL     1      43.405   3.067  11.070  0.00  0.00    +0.000 NA
ATOM     20  C   UNL     1      43.497   4.342  11.523  0.00  0.00    +0.000 A 
ATOM     21  C   UNL     1      44.288   5.328  10.939  0.00  0.00    +0.000 A 
ATOM     22  C   UNL     1      45.041   4.971   9.823  0.00  0.00    +0.000 A 
BRANCH  17  24
ATOM     23  N   UNL     1      46.135   1.911   8.113  0.00  0.00    +0.000 N 
ATOM     24  C   UNL     1      45.752   3.225   8.157  0.00  0.00    +0.000 C 
ATOM     25  O   UNL     1      46.014   3.993   7.244  0.00  0.00    +0.000 OA
ATOM     26  H   UNL     1      46.577   1.604   7.254  0.00  0.00    +0.000 HD
ATOM     27  H   UNL     1      45.723   1.200   8.698  0.00  0.00    +0.000 HD
ENDBRANCH  17  24
ENDBRANCH  16  21
ENDBRANCH  15  16
ENDBRANCH   1  15
TORSDOF 5
ENDMDL
MODEL 6
REMARK VINA RESULT:    -6.432      3.512      5.004
REMARK INTER + INTRA:          -8.637
REMARK INTER:                  -8.237
REMARK INTRA:                  -0.400
REMARK UNBOUND:                -0.325
REMARK  Name = 
REMARK  5 active torsions:
REMARK  status: ('A' for Active; 'I' for Inactive)
REMARK    1  A    between atoms: C_2  and  C_4
REMARK    2  A    between atoms: C_8  and  O_9
REMARK    3  A    between atoms: O_9  and  C_10
REMARK    4  A    between atoms: C_10  and  C_11
REMARK    5  A    between atoms: C_16  and  C_17
REMARK                            x       y       z     vdW  Elec       q    Type
REMARK                         _______ _______ _______ _____ _____    ______ ____
ROOT
ATOM      1  C   UNL     1      47.391   4.581  15.489  0.00  0.00    +0.000 A 
ATOM      2  C   UNL     1      47.008   3.476  16.255  0.00  0.00    +0.000 A 
ATOM      3  C   UNL     1      47.512   3.321  17.540  0.00  0.00    +0.000 A 
ATOM      4  C   UNL     1      48.398   4.261  18.065  0.00  0.00    +0.000 A 
ATOM      5  F   UNL     1      48.853   4.021  19.300  0.00  0.00    +0.000 F 
ATOM      6  C   UNL     1      48.807   5.389  17.337  0.00  0.00    +0.000 A 
ATOM      7  C   UNL     1      48.303   5.509  16.025  0.00  0.00    +0.000 A 
ENDROOT
BRANCH   6   8
ATOM      8  C   UNL     1      49.813   6.425  17.843  0.00  0.00    +0.000 C 
ATOM      9  C   UNL     1      50.156   7.600  16.908  0.00  0.00    +0.000 C 
ATOM     10  C   UNL     1      51.106   7.188  15.778  0.00  0.00    +0.000 C 
ATOM     11  N   UNL     1      52.348   6.610  16.293  0.00  0.00    +0.000 NA
ATOM     12  C   UNL     1      52.081   5.462  17.158  0.00  0.00    +0.000 C 
ATOM     13  C   UNL     1      51.153   5.817  18.320  0.00  0.00    +0.000 C 
ATOM     14  H   UNL     1      52.855   7.323  16.816  0.00  0.00    +0.000 HD
ENDBRANCH   6   8
BRANCH   1  15
ATOM     15  C   UNL     1      46.827   4.767  14.105  0.00  0.00    +0.000 C 
BRANCH  15  16
ATOM     16  O   UNL     1      45.491   4.270  14.059  0.00  0.00    +0.000 OA
BRANCH  16  21
ATOM     17  C   UNL     1      44.497   4.547  10.501  0.00  0.00    +0.000 A 
ATOM     18  C   UNL     1      43.223   5.057  10.723  0.00  0.00    +0.000 A 
ATOM     19  N   UNL     1      42.708   5.271  11.957  0.00  0.00    +0.000 NA
ATOM     20  C   UNL     1      43.514   4.981  13.009  0.00  0.00    +0.000 A 
ATOM     21  C   UNL     1      44.811   4.491  12.893  0.00  0.00    +0.000 A 
ATOM     22  C   UNL     1      45.305   4.275  11.608  0.00  0.00    +0.000 A 
BRANCH  17  24
ATOM     23  N   UNL     1      44.367   3.350   8.393  0.00  0.00    +0.000 N 
ATOM     24  C   UNL     1      44.966   4.346   9.117  0.00  0.00    +0.000 C 
ATOM     25  O   UNL     1      45.833   5.053   8.625  0.00  0.00    +0.000 OA
ATOM     26  H   UNL     1      44.631   3.287   7.417  0.00  0.00    +0.000 HD
ATOM     27  H   UNL     1      43.488   2.931   8.661  0.00  0.00    +0.000 HD
ENDBRANCH  17  24
ENDBRANCH  16  21
ENDBRANCH  15  16
ENDBRANCH   1  15
TORSDOF 5
ENDMDL
MODEL 7
REMARK VINA RESULT:    -6.416      4.574      8.020
REMARK INTER + INTRA:          -8.616
REMARK INTER:                  -8.227
REMARK INTRA:                  -0.389
REMARK UNBOUND:                -0.325
REMARK  Name = 
REMARK  5 active torsions:
REMARK  status: ('A' for Active; 'I' for Inactive)
REMARK    1  A    between atoms: C_2  and  C_4
REMARK    2  A    between atoms: C_8  and  O_9
REMARK    3  A    between atoms: O_9  and  C_10
REMARK    4  A    between atoms: C_10  and  C_11
REMARK    5  A    between atoms: C_16  and  C_17
REMARK                            x       y       z     vdW  Elec       q    Type
REMARK                         _______ _______ _______ _____ _____    ______ ____
ROOT
ATOM      1  C   UNL     1      47.031   7.095  13.466  0.00  0.00    +0.000 A 
ATOM      2  C   UNL     1      46.966   8.477  13.270  0.00  0.00    +0.000 A 
ATOM      3  C   UNL     1      45.978   9.012  12.454  0.00  0.00    +0.000 A 
ATOM      4  C   UNL     1      45.054   8.174  11.831  0.00  0.00    +0.000 A 
ATOM      5  F   UNL     1      44.150   8.770  11.043  0.00  0.00    +0.000 F 
ATOM      6  C   UNL     1      45.074   6.781  12.002  0.00  0.00    +0.000 A 
ATOM      7  C   UNL     1      46.105   6.261  12.814  0.00  0.00    +0.000 A 
ENDROOT
BRANCH   6   8
ATOM      8  C   UNL     1      44.118   5.811  11.305  0.00  0.00    +0.000 C 
ATOM      9  C   UNL     1      42.845   5.395  12.068  0.00  0.00    +0.000 C 
ATOM     10  C   UNL     1      43.134   4.366  13.166  0.00  0.00    +0.000 C 
ATOM     11  N   UNL     1      43.784   3.167  12.634  0.00  0.00    +0.000 NA
ATOM     12  C   UNL     1      45.022   3.502  11.932  0.00  0.00    +0.000 C 
ATOM     13  C   UNL     1      44.795   4.513  10.807  0.00  0.00    +0.000 C 
ATOM     14  H   UNL     1      43.144   2.698  11.994  0.00  0.00    +0.000 HD
ENDBRANCH   6   8
BRANCH   1  15
ATOM     15  C   UNL     1      48.085   6.514  14.371  0.00  0.00    +0.000 C 
BRANCH  15  16
ATOM     16  O   UNL     1      47.793   5.142  14.632  0.00  0.00    +0.000 OA
BRANCH  16  21
ATOM     17  C   UNL     1      48.904   4.802  18.150  0.00  0.00    +0.000 A 
ATOM     18  C   UNL     1      48.197   3.639  18.435  0.00  0.00    +0.000 A 
ATOM     19  N   UNL     1      47.385   3.021  17.547  0.00  0.00    +0.000 NA
ATOM     20  C   UNL     1      47.297   3.579  16.314  0.00  0.00    +0.000 A 
ATOM     21  C   UNL     1      47.982   4.725  15.920  0.00  0.00    +0.000 A 
ATOM     22  C   UNL     1      48.802   5.340  16.864  0.00  0.00    +0.000 A 
BRANCH  17  24
ATOM     23  N   UNL     1      50.102   4.609  20.251  0.00  0.00    +0.000 N 
ATOM     24  C   UNL     1      49.760   5.403  19.189  0.00  0.00    +0.000 C 
ATOM     25  O   UNL     1      50.169   6.551  19.097  0.00  0.00    +0.000 OA
ATOM     26  H   UNL     1      50.767   5.004  20.907  0.00  0.00    +0.000 HD
ATOM     27  H   UNL     1      50.012   3.604  20.235  0.00  0.00    +0.000 HD
ENDBRANCH  17  24
ENDBRANCH  16  21
ENDBRANCH  15  16
ENDBRANCH   1  15
TORSDOF 5
ENDMDL
MODEL 8
REMARK VINA RESULT:    -6.384      4.624      6.262
REMARK INTER + INTRA:          -8.575
REMARK INTER:                  -8.098
REMARK INTRA:                  -0.477
REMARK UNBOUND:                -0.325
REMARK  Name = 
REMARK  5 active torsions:
REMARK  status: ('A' for Active; 'I' for Inactive)
REMARK    1  A    between atoms: C_2  and  C_4
REMARK    2  A    between atoms: C_8  and  O_9
REMARK    3  A    between atoms: O_9  and  C_10
REMARK    4  A    between atoms: C_10  and  C_11
REMARK    5  A    between atoms: C_16  and  C_17
REMARK                            x       y       z     vdW  Elec       q    Type
REMARK                         _______ _______ _______ _____ _____    ______ ____
ROOT
ATOM      1  C   UNL     1      48.642   3.431  16.551  0.00  0.00    +0.000 A 
ATOM      2  C   UNL     1      49.243   2.170  16.567  0.00  0.00    +0.000 A 
ATOM      3  C   UNL     1      50.477   2.003  17.183  0.00  0.00    +0.000 A 
ATOM      4  C   UNL     1      51.115   3.088  17.781  0.00  0.00    +0.000 A 
ATOM      5  F   UNL     1      52.311   2.844  18.330  0.00  0.00    +0.000 F 
ATOM      6  C   UNL     1      50.549   4.372  17.796  0.00  0.00    +0.000 A 
ATOM      7  C   UNL     1      49.308   4.521  17.141  0.00  0.00    +0.000 A 
ENDROOT
BRANCH   6   8
ATOM      8  C   UNL     1      51.225   5.608  18.394  0.00  0.00    +0.000 C 
ATOM      9  C   UNL     1      51.879   5.461  19.781  0.00  0.00    +0.000 C 
ATOM     10  C   UNL     1      50.847   5.444  20.913  0.00  0.00    +0.000 C 
ATOM     11  N   UNL     1      50.009   6.644  20.906  0.00  0.00    +0.000 NA
ATOM     12  C   UNL     1      49.331   6.811  19.622  0.00  0.00    +0.000 C 
ATOM     13  C   UNL     1      50.314   6.856  18.450  0.00  0.00    +0.000 C 
ATOM     14  H   UNL     1      50.593   7.459  21.094  0.00  0.00    +0.000 HD
ENDBRANCH   6   8
BRANCH   1  15
ATOM     15  C   UNL     1      47.292   3.611  15.908  0.00  0.00    +0.000 C 
BRANCH  15  16
ATOM     16  O   UNL     1      47.348   3.193  14.545  0.00  0.00    +0.000 OA
BRANCH  16  21
ATOM     17  C   UNL     1      45.068   4.465  11.917  0.00  0.00    +0.000 A 
ATOM     18  C   UNL     1      45.517   5.781  11.931  0.00  0.00    +0.000 A 
ATOM     19  N   UNL     1      46.482   6.233  12.765  0.00  0.00    +0.000 NA
ATOM     20  C   UNL     1      47.035   5.322  13.603  0.00  0.00    +0.000 A 
ATOM     21  C   UNL     1      46.675   3.979  13.651  0.00  0.00    +0.000 A 
ATOM     22  C   UNL     1      45.672   3.550  12.784  0.00  0.00    +0.000 A 
BRANCH  17  24
ATOM     23  N   UNL     1      43.777   4.904   9.909  0.00  0.00    +0.000 N 
ATOM     24  C   UNL     1      44.007   4.072  10.972  0.00  0.00    +0.000 C 
ATOM     25  O   UNL     1      43.374   3.036  11.114  0.00  0.00    +0.000 OA
ATOM     26  H   UNL     1      43.113   4.574   9.219  0.00  0.00    +0.000 HD
ATOM     27  H   UNL     1      44.436   5.610   9.614  0.00  0.00    +0.000 HD
ENDBRANCH  17  24
ENDBRANCH  16  21
ENDBRANCH  15  16
ENDBRANCH   1  15
TORSDOF 5
ENDMDL
MODEL 9
REMARK VINA RESULT:    -6.307      1.735      2.336
REMARK INTER + INTRA:          -8.476
REMARK INTER:                  -7.968
REMARK INTRA:                  -0.508
REMARK UNBOUND:                -0.325
REMARK  Name = 
REMARK  5 active torsions:
REMARK  status: ('A' for Active; 'I' for Inactive)
REMARK    1  A    between atoms: C_2  and  C_4
REMARK    2  A    between atoms: C_8  and  O_9
REMARK    3  A    between atoms: O_9  and  C_10
REMARK    4  A    between atoms: C_10  and  C_11
REMARK    5  A    between atoms: C_16  and  C_17
REMARK                            x       y       z     vdW  Elec       q    Type
REMARK                         _______ _______ _______ _____ _____    ______ ____
ROOT
ATOM      1  C   UNL     1      46.434   6.393  11.965  0.00  0.00    +0.000 A 
ATOM      2  C   UNL     1      46.113   5.549  13.032  0.00  0.00    +0.000 A 
ATOM      3  C   UNL     1      46.960   5.474  14.130  0.00  0.00    +0.000 A 
ATOM      4  C   UNL     1      48.128   6.235  14.169  0.00  0.00    +0.000 A 
ATOM      5  F   UNL     1      48.898   6.084  15.252  0.00  0.00    +0.000 F 
ATOM      6  C   UNL     1      48.489   7.101  13.125  0.00  0.00    +0.000 A 
ATOM      7  C   UNL     1      47.626   7.139  12.010  0.00  0.00    +0.000 A 
ENDROOT
BRANCH   6   8
ATOM      8  C   UNL     1      49.781   7.922  13.092  0.00  0.00    +0.000 C 
ATOM      9  C   UNL     1      49.933   9.053  14.127  0.00  0.00    +0.000 C 
ATOM     10  C   UNL     1      49.104  10.290  13.764  0.00  0.00    +0.000 C 
ATOM     11  N   UNL     1      49.447  10.807  12.439  0.00  0.00    +0.000 NA
ATOM     12  C   UNL     1      49.283   9.782  11.410  0.00  0.00    +0.000 C 
ATOM     13  C   UNL     1      50.104   8.527  11.706  0.00  0.00    +0.000 C 
ATOM     14  H   UNL     1      50.414  11.131  12.448  0.00  0.00    +0.000 HD
ENDBRANCH   6   8
BRANCH   1  15
ATOM     15  C   UNL     1      45.505   6.498  10.785  0.00  0.00    +0.000 C 
BRANCH  15  16
ATOM     16  O   UNL     1      44.479   5.512  10.890  0.00  0.00    +0.000 OA
BRANCH  16  21
ATOM     17  C   UNL     1      45.617   3.005   8.411  0.00  0.00    +0.000 A 
ATOM     18  C   UNL     1      44.822   1.956   8.860  0.00  0.00    +0.000 A 
ATOM     19  N   UNL     1      43.989   2.050   9.922  0.00  0.00    +0.000 NA
ATOM     20  C   UNL     1      43.935   3.253  10.546  0.00  0.00    +0.000 A 
ATOM     21  C   UNL     1      44.668   4.371  10.161  0.00  0.00    +0.000 A 
ATOM     22  C   UNL     1      45.522   4.235   9.068  0.00  0.00    +0.000 A 
BRANCH  17  24
ATOM     23  N   UNL     1      46.870   3.915   6.543  0.00  0.00    +0.000 N 
ATOM     24  C   UNL     1      46.496   2.801   7.245  0.00  0.00    +0.000 C 
ATOM     25  O   UNL     1      46.896   1.690   6.931  0.00  0.00    +0.000 OA
ATOM     26  H   UNL     1      47.549   3.771   5.805  0.00  0.00    +0.000 HD
ATOM     27  H   UNL     1      46.784   4.851   6.913  0.00  0.00    +0.000 HD
ENDBRANCH  17  24
ENDBRANCH  16  21
ENDBRANCH  15  16
ENDBRANCH   1  15
TORSDOF 5
ENDMDL
