MODEL 1
REMARK VINA RESULT:    -7.408      0.000      0.000
REMARK INTER + INTRA:          -9.882
REMARK INTER:                  -9.140
REMARK INTRA:                  -0.742
REMARK UNBOUND:                -0.742
REMARK  Name = 
REMARK  4 active torsions:
REMARK  status: ('A' for Active; 'I' for Inactive)
REMARK    1  A    between atoms: C_3  and  C_4
REMARK    2  A    between atoms: C_4  and  N_5
REMARK    3  A    between atoms: N_5  and  C_6
REMARK    4  A    between atoms: C_13  and  C_14
REMARK                            x       y       z     vdW  Elec       q    Type
REMARK                         _______ _______ _______ _____ _____    ______ ____
ROOT
ATOM      1  C   UNL     1      43.288   2.760  11.522  0.00  0.00    +0.000 A 
ATOM      2  C   UNL     1      43.146   4.121  11.774  0.00  0.00    +0.000 A 
ATOM      3  C   UNL     1      43.739   5.029  10.901  0.00  0.00    +0.000 A 
ATOM      4  N   UNL     1      44.419   4.627   9.796  0.00  0.00    +0.000 NA
ATOM      5  C   UNL     1      44.536   3.298   9.548  0.00  0.00    +0.000 A 
ATOM      6  C   UNL     1      43.994   2.340  10.398  0.00  0.00    +0.000 A 
ENDROOT
BRANCH   5   7
ATOM      7  C   UNL     1      45.248   2.877   8.275  0.00  0.00    +0.000 C 
ATOM      8  C   UNL     1      46.073   1.597   8.484  0.00  0.00    +0.000 C 
ATOM      9  C   UNL     1      46.847   1.213   7.223  0.00  0.00    +0.000 C 
ATOM     10  C   UNL     1      47.723   2.361   6.731  0.00  0.00    +0.000 C 
ATOM     11  C   UNL     1      46.903   3.626   6.499  0.00  0.00    +0.000 C 
ATOM     12  C   UNL     1      46.125   4.027   7.750  0.00  0.00    +0.000 C 
ENDBRANCH   5   7
BRANCH   3  13
ATOM     13  C   UNL     1      43.658   6.523  11.170  0.00  0.00    +0.000 C 
BRANCH  13  14
ATOM     14  N   UNL     1      44.231   6.875  12.471  0.00  0.00    +0.000 N 
ATOM     15  H   UNL     1      43.609   6.673  13.246  0.00  0.00    +0.000 HD
BRANCH  14  16
ATOM     16  C   UNL     1      45.572   6.585  12.738  0.00  0.00    +0.000 A 
ATOM     17  C   UNL     1      45.987   5.526  13.548  0.00  0.00    +0.000 A 
ATOM     18  C   UNL     1      47.344   5.271  13.694  0.00  0.00    +0.000 A 
ATOM     19  N   UNL     1      48.315   5.977  13.083  0.00  0.00    +0.000 NA
ATOM     20  C   UNL     1      47.900   6.967  12.266  0.00  0.00    +0.000 A 
ATOM     21  C   UNL     1      46.568   7.290  12.058  0.00  0.00    +0.000 A 
ENDBRANCH  14  16
ENDBRANCH  13  14
ENDBRANCH   3  13
TORSDOF 4
ENDMDL
MODEL 2
REMARK VINA RESULT:    -7.075      1.725      5.858
REMARK INTER + INTRA:          -9.471
REMARK INTER:                  -8.838
REMARK INTRA:                  -0.633
REMARK UNBOUND:                -0.742
REMARK  Name = 
REMARK  4 active torsions:
REMARK  status: ('A' for Active; 'I' for Inactive)
REMARK    1  A    between atoms: C_3  and  C_4
REMARK    2  A    between atoms: C_4  and  N_5
REMARK    3  A    between atoms: N_5  and  C_6
REMARK    4  A    between atoms: C_13  and  C_14
REMARK                            x       y       z     vdW  Elec       q    Type
REMARK                         _______ _______ _______ _____ _____    ______ ____
ROOT
ATOM      1  C   UNL     1      43.191   4.719  13.059  0.00  0.00    +0.000 A 
ATOM      2  C   UNL     1      43.239   3.656  12.163  0.00  0.00    +0.000 A 
ATOM      3  C   UNL     1      44.120   3.725  11.087  0.00  0.00    +0.000 A 
ATOM      4  N   UNL     1      44.955   4.782  10.908  0.00  0.00    +0.000 NA
ATOM      5  C   UNL     1      44.915   5.805  11.798  0.00  0.00    +0.000 A 
ATOM      6  C   UNL     1      44.036   5.810  12.875  0.00  0.00    +0.000 A 
ENDROOT
BRANCH   5   7
ATOM      7  C   UNL     1      45.901   6.944  11.609  0.00  0.00    +0.000 C 
ATOM      8  C   UNL     1      47.319   6.546  12.052  0.00  0.00    +0.000 C 
ATOM      9  C   UNL     1      48.297   7.714  11.928  0.00  0.00    +0.000 C 
ATOM     10  C   UNL     1      47.803   8.941  12.689  0.00  0.00    +0.000 C 
ATOM     11  C   UNL     1      46.407   9.354  12.233  0.00  0.00    +0.000 C 
ATOM     12  C   UNL     1      45.415   8.200  12.354  0.00  0.00    +0.000 C 
ENDBRANCH   5   7
BRANCH   3  13
ATOM     13  C   UNL     1      44.163   2.613  10.052  0.00  0.00    +0.000 C 
BRANCH  13  14
ATOM     14  N   UNL     1      44.565   3.109   8.734  0.00  0.00    +0.000 N 
ATOM     15  H   UNL     1      44.447   4.112   8.636  0.00  0.00    +0.000 HD
BRANCH  14  16
ATOM     16  C   UNL     1      45.729   2.620   8.135  0.00  0.00    +0.000 A 
ATOM     17  C   UNL     1      46.076   1.268   8.112  0.00  0.00    +0.000 A 
ATOM     18  C   UNL     1      47.215   0.868   7.425  0.00  0.00    +0.000 A 
ATOM     19  N   UNL     1      48.021   1.708   6.747  0.00  0.00    +0.000 NA
ATOM     20  C   UNL     1      47.649   3.004   6.736  0.00  0.00    +0.000 A 
ATOM     21  C   UNL     1      46.527   3.491   7.391  0.00  0.00    +0.000 A 
ENDBRANCH  14  16
ENDBRANCH  13  14
ENDBRANCH   3  13
TORSDOF 4
ENDMDL
MODEL 3
REMARK VINA RESULT:    -6.964      1.868      6.127
REMARK INTER + INTRA:          -9.334
REMARK INTER:                  -8.620
REMARK INTRA:                  -0.714
REMARK UNBOUND:                -0.742
REMARK  Name = 
REMARK  4 active torsions:
REMARK  status: ('A' for Active; 'I' for Inactive)
REMARK    1  A    between atoms: C_3  and  C_4
REMARK    2  A    between atoms: C_4  and  N_5
REMARK    3  A    between atoms: N_5  and  C_6
REMARK    4  A    between atoms: C_13  and  C_14
REMARK                            x       y       z     vdW  Elec       q    Type
REMARK                         _______ _______ _______ _____ _____    ______ ____
ROOT
ATOM      1  C   UNL     1      46.197   4.206  13.358  0.00  0.00    +0.000 A 
ATOM      2  C   UNL     1      45.307   3.745  12.394  0.00  0.00    +0.000 A 
ATOM      3  C   UNL     1      45.047   4.545  11.284  0.00  0.00    +0.000 A 
ATOM      4  N   UNL     1      45.664   5.742  11.100  0.00  0.00    +0.000 NA
ATOM      5  C   UNL     1      46.546   6.174  12.036  0.00  0.00    +0.000 A 
ATOM      6  C   UNL     1      46.824   5.436  13.182  0.00  0.00    +0.000 A 
ENDROOT
BRANCH   5   7
ATOM      7  C   UNL     1      47.266   7.485  11.776  0.00  0.00    +0.000 C 
ATOM      8  C   UNL     1      48.779   7.360  12.021  0.00  0.00    +0.000 C 
ATOM      9  C   UNL     1      49.494   8.697  11.828  0.00  0.00    +0.000 C 
ATOM     10  C   UNL     1      48.881   9.791  12.698  0.00  0.00    +0.000 C 
ATOM     11  C   UNL     1      47.385   9.934  12.438  0.00  0.00    +0.000 C 
ATOM     12  C   UNL     1      46.653   8.608  12.631  0.00  0.00    +0.000 C 
ENDBRANCH   5   7
BRANCH   3  13
ATOM     13  C   UNL     1      44.037   4.107  10.236  0.00  0.00    +0.000 C 
BRANCH  13  14
ATOM     14  N   UNL     1      44.520   4.355   8.876  0.00  0.00    +0.000 N 
ATOM     15  H   UNL     1      44.749   5.329   8.709  0.00  0.00    +0.000 HD
BRANCH  14  16
ATOM     16  C   UNL     1      45.414   3.459   8.283  0.00  0.00    +0.000 A 
ATOM     17  C   UNL     1      46.459   3.851   7.445  0.00  0.00    +0.000 A 
ATOM     18  C   UNL     1      47.343   2.893   6.965  0.00  0.00    +0.000 A 
ATOM     19  N   UNL     1      47.274   1.583   7.268  0.00  0.00    +0.000 NA
ATOM     20  C   UNL     1      46.289   1.224   8.117  0.00  0.00    +0.000 A 
ATOM     21  C   UNL     1      45.365   2.111   8.648  0.00  0.00    +0.000 A 
ENDBRANCH  14  16
ENDBRANCH  13  14
ENDBRANCH   3  13
TORSDOF 4
ENDMDL
MODEL 4
REMARK VINA RESULT:    -6.866      1.942      6.184
REMARK INTER + INTRA:          -9.214
REMARK INTER:                  -8.512
REMARK INTRA:                  -0.701
REMARK UNBOUND:                -0.742
REMARK  Name = 
REMARK  4 active torsions:
REMARK  status: ('A' for Active; 'I' for Inactive)
REMARK    1  A    between atoms: C_3  and  C_4
REMARK    2  A    between atoms: C_4  and  N_5
REMARK    3  A    between atoms: N_5  and  C_6
REMARK    4  A    between atoms: C_13  and  C_14
REMARK                            x       y       z     vdW  Elec       q    Type
REMARK                         _______ _______ _______ _____ _____    ______ ____
ROOT
ATOM      1  C   UNL     1      46.211   4.228  13.261  0.00  0.00    +0.000 A 
ATOM      2  C   UNL     1      45.429   3.772  12.204  0.00  0.00    +0.000 A 
ATOM      3  C   UNL     1      44.804   4.705  11.382  0.00  0.00    +0.000 A 
ATOM      4  N   UNL     1      44.964   6.043  11.560  0.00  0.00    +0.000 NA
ATOM      5  C   UNL     1      45.745   6.477  12.582  0.00  0.00    +0.000 A 
ATOM      6  C   UNL     1      46.370   5.596  13.456  0.00  0.00    +0.000 A 
ENDROOT
BRANCH   5   7
ATOM      7  C   UNL     1      45.955   7.975  12.721  0.00  0.00    +0.000 C 
ATOM      8  C   UNL     1      45.016   8.767  11.797  0.00  0.00    +0.000 C 
ATOM      9  C   UNL     1      45.276  10.271  11.884  0.00  0.00    +0.000 C 
ATOM     10  C   UNL     1      46.738  10.604  11.604  0.00  0.00    +0.000 C 
ATOM     11  C   UNL     1      47.671   9.838  12.536  0.00  0.00    +0.000 C 
ATOM     12  C   UNL     1      47.428   8.332  12.459  0.00  0.00    +0.000 C 
ENDBRANCH   5   7
BRANCH   3  13
ATOM     13  C   UNL     1      43.893   4.252  10.253  0.00  0.00    +0.000 C 
BRANCH  13  14
ATOM     14  N   UNL     1      44.510   4.454   8.940  0.00  0.00    +0.000 N 
ATOM     15  H   UNL     1      44.793   5.415   8.779  0.00  0.00    +0.000 HD
BRANCH  14  16
ATOM     16  C   UNL     1      45.418   3.512   8.448  0.00  0.00    +0.000 A 
ATOM     17  C   UNL     1      45.330   2.143   8.710  0.00  0.00    +0.000 A 
ATOM     18  C   UNL     1      46.235   1.276   8.114  0.00  0.00    +0.000 A 
ATOM     19  N   UNL     1      47.207   1.664   7.266  0.00  0.00    +0.000 NA
ATOM     20  C   UNL     1      47.252   2.983   6.983  0.00  0.00    +0.000 A 
ATOM     21  C   UNL     1      46.388   3.920   7.529  0.00  0.00    +0.000 A 
ENDBRANCH  14  16
ENDBRANCH  13  14
ENDBRANCH   3  13
TORSDOF 4
ENDMDL
MODEL 5
REMARK VINA RESULT:    -6.556      1.554      2.404
REMARK INTER + INTRA:          -8.831
REMARK INTER:                  -8.194
REMARK INTRA:                  -0.637
REMARK UNBOUND:                -0.742
REMARK  Name = 
REMARK  4 active torsions:
REMARK  status: ('A' for Active; 'I' for Inactive)
REMARK    1  A    between atoms: C_3  and  C_4
REMARK    2  A    between atoms: C_4  and  N_5
REMARK    3  A    between atoms: N_5  and  C_6
REMARK    4  A    between atoms: C_13  and  C_14
REMARK                            x       y       z     vdW  Elec       q    Type
REMARK                         _______ _______ _______ _____ _____    ______ ____
ROOT
ATOM      1  C   UNL     1      42.922   5.369  12.100  0.00  0.00    +0.000 A 
ATOM      2  C   UNL     1      43.893   6.263  12.539  0.00  0.00    +0.000 A 
ATOM      3  C   UNL     1      45.131   6.274  11.903  0.00  0.00    +0.000 A 
ATOM      4  N   UNL     1      45.404   5.464  10.847  0.00  0.00    +0.000 NA
ATOM      5  C   UNL     1      44.443   4.609  10.413  0.00  0.00    +0.000 A 
ATOM      6  C   UNL     1      43.198   4.528  11.026  0.00  0.00    +0.000 A 
ENDROOT
BRANCH   5   7
ATOM      7  C   UNL     1      44.754   3.759   9.194  0.00  0.00    +0.000 C 
ATOM      8  C   UNL     1      45.160   2.329   9.588  0.00  0.00    +0.000 C 
ATOM      9  C   UNL     1      45.542   1.494   8.366  0.00  0.00    +0.000 C 
ATOM     10  C   UNL     1      46.632   2.172   7.542  0.00  0.00    +0.000 C 
ATOM     11  C   UNL     1      46.221   3.581   7.128  0.00  0.00    +0.000 C 
ATOM     12  C   UNL     1      45.840   4.432   8.337  0.00  0.00    +0.000 C 
ENDBRANCH   5   7
BRANCH   3  13
ATOM     13  C   UNL     1      46.240   7.193  12.388  0.00  0.00    +0.000 C 
BRANCH  13  14
ATOM     14  N   UNL     1      47.448   6.448  12.746  0.00  0.00    +0.000 N 
ATOM     15  H   UNL     1      48.295   6.864  12.373  0.00  0.00    +0.000 HD
BRANCH  14  16
ATOM     16  C   UNL     1      47.595   5.946  14.042  0.00  0.00    +0.000 A 
ATOM     17  C   UNL     1      47.040   4.739  14.471  0.00  0.00    +0.000 A 
ATOM     18  C   UNL     1      47.304   4.286  15.756  0.00  0.00    +0.000 A 
ATOM     19  N   UNL     1      48.090   4.932  16.638  0.00  0.00    +0.000 NA
ATOM     20  C   UNL     1      48.659   6.073  16.197  0.00  0.00    +0.000 A 
ATOM     21  C   UNL     1      48.454   6.598  14.930  0.00  0.00    +0.000 A 
ENDBRANCH  14  16
ENDBRANCH  13  14
ENDBRANCH   3  13
TORSDOF 4
ENDMDL
MODEL 6
REMARK VINA RESULT:    -6.480      2.076      6.295
REMARK INTER + INTRA:          -8.738
REMARK INTER:                  -8.053
REMARK INTRA:                  -0.685
REMARK UNBOUND:                -0.742
REMARK  Name = 
REMARK  4 active torsions:
REMARK  status: ('A' for Active; 'I' for Inactive)
REMARK    1  A    between atoms: C_3  and  C_4
REMARK    2  A    between atoms: C_4  and  N_5
REMARK    3  A    between atoms: N_5  and  C_6
REMARK    4  A    between atoms: C_13  and  C_14
REMARK                            x       y       z     vdW  Elec       q    Type
REMARK                         _______ _______ _______ _____ _____    ______ ____
ROOT
ATOM      1  C   UNL     1      45.980   4.713  13.341  0.00  0.00    +0.000 A 
ATOM      2  C   UNL     1      45.368   3.806  12.482  0.00  0.00    +0.000 A 
ATOM      3  C   UNL     1      44.757   4.284  11.327  0.00  0.00    +0.000 A 
ATOM      4  N   UNL     1      44.771   5.603  10.998  0.00  0.00    +0.000 NA
ATOM      5  C   UNL     1      45.388   6.478  11.833  0.00  0.00    +0.000 A 
ATOM      6  C   UNL     1      45.989   6.066  13.017  0.00  0.00    +0.000 A 
ENDROOT
BRANCH   5   7
ATOM      7  C   UNL     1      45.442   7.935  11.412  0.00  0.00    +0.000 C 
ATOM      8  C   UNL     1      46.107   8.811  12.487  0.00  0.00    +0.000 C 
ATOM      9  C   UNL     1      46.098  10.288  12.096  0.00  0.00    +0.000 C 
ATOM     10  C   UNL     1      44.687  10.776  11.780  0.00  0.00    +0.000 C 
ATOM     11  C   UNL     1      44.035   9.925  10.696  0.00  0.00    +0.000 C 
ATOM     12  C   UNL     1      44.031   8.445  11.072  0.00  0.00    +0.000 C 
ENDBRANCH   5   7
BRANCH   3  13
ATOM     13  C   UNL     1      44.026   3.336  10.390  0.00  0.00    +0.000 C 
BRANCH  13  14
ATOM     14  N   UNL     1      44.285   3.651   8.984  0.00  0.00    +0.000 N 
ATOM     15  H   UNL     1      44.212   4.642   8.780  0.00  0.00    +0.000 HD
BRANCH  14  16
ATOM     16  C   UNL     1      45.335   3.016   8.313  0.00  0.00    +0.000 A 
ATOM     17  C   UNL     1      46.255   3.689   7.506  0.00  0.00    +0.000 A 
ATOM     18  C   UNL     1      47.309   2.983   6.942  0.00  0.00    +0.000 A 
ATOM     19  N   UNL     1      47.526   1.668   7.133  0.00  0.00    +0.000 NA
ATOM     20  C   UNL     1      46.658   1.040   7.953  0.00  0.00    +0.000 A 
ATOM     21  C   UNL     1      45.579   1.664   8.561  0.00  0.00    +0.000 A 
ENDBRANCH  14  16
ENDBRANCH  13  14
ENDBRANCH   3  13
TORSDOF 4
ENDMDL
MODEL 7
REMARK VINA RESULT:    -6.420      2.216      6.649
REMARK INTER + INTRA:          -8.663
REMARK INTER:                  -8.053
REMARK INTRA:                  -0.610
REMARK UNBOUND:                -0.742
REMARK  Name = 
REMARK  4 active torsions:
REMARK  status: ('A' for Active; 'I' for Inactive)
REMARK    1  A    between atoms: C_3  and  C_4
REMARK    2  A    between atoms: C_4  and  N_5
REMARK    3  A    between atoms: N_5  and  C_6
REMARK    4  A    between atoms: C_13  and  C_14
REMARK                            x       y       z     vdW  Elec       q    Type
REMARK                         _______ _______ _______ _____ _____    ______ ____
ROOT
ATOM      1  C   UNL     1      47.511   6.694  12.166  0.00  0.00    +0.000 A 
ATOM      2  C   UNL     1      46.294   6.344  11.591  0.00  0.00    +0.000 A 
ATOM      3  C   UNL     1      45.465   5.452  12.266  0.00  0.00    +0.000 A 
ATOM      4  N   UNL     1      45.794   4.944  13.483  0.00  0.00    +0.000 NA
ATOM      5  C   UNL     1      46.975   5.307  14.045  0.00  0.00    +0.000 A 
ATOM      6  C   UNL     1      47.860   6.169  13.406  0.00  0.00    +0.000 A 
ENDROOT
BRANCH   5   7
ATOM      7  C   UNL     1      47.290   4.773  15.430  0.00  0.00    +0.000 C 
ATOM      8  C   UNL     1      48.355   5.626  16.139  0.00  0.00    +0.000 C 
ATOM      9  C   UNL     1      48.724   5.049  17.504  0.00  0.00    +0.000 C 
ATOM     10  C   UNL     1      49.166   3.592  17.396  0.00  0.00    +0.000 C 
ATOM     11  C   UNL     1      48.100   2.738  16.717  0.00  0.00    +0.000 C 
ATOM     12  C   UNL     1      47.721   3.298  15.348  0.00  0.00    +0.000 C 
ENDBRANCH   5   7
BRANCH   3  13
ATOM     13  C   UNL     1      44.153   4.997  11.647  0.00  0.00    +0.000 C 
BRANCH  13  14
ATOM     14  N   UNL     1      44.188   5.062  10.185  0.00  0.00    +0.000 N 
ATOM     15  H   UNL     1      44.341   6.002   9.834  0.00  0.00    +0.000 HD
BRANCH  14  16
ATOM     16  C   UNL     1      44.867   4.077   9.463  0.00  0.00    +0.000 A 
ATOM     17  C   UNL     1      44.699   2.708   9.678  0.00  0.00    +0.000 A 
ATOM     18  C   UNL     1      45.360   1.803   8.858  0.00  0.00    +0.000 A 
ATOM     19  N   UNL     1      46.161   2.156   7.834  0.00  0.00    +0.000 NA
ATOM     20  C   UNL     1      46.278   3.481   7.606  0.00  0.00    +0.000 A 
ATOM     21  C   UNL     1      45.652   4.455   8.371  0.00  0.00    +0.000 A 
ENDBRANCH  14  16
ENDBRANCH  13  14
ENDBRANCH   3  13
TORSDOF 4
ENDMDL
MODEL 8
REMARK VINA RESULT:    -6.226      2.695      4.431
REMARK INTER + INTRA:          -8.424
REMARK INTER:                  -7.952
REMARK INTRA:                  -0.472
REMARK UNBOUND:                -0.742
REMARK  Name = 
REMARK  4 active torsions:
REMARK  status: ('A' for Active; 'I' for Inactive)
REMARK    1  A    between atoms: C_3  and  C_4
REMARK    2  A    between atoms: C_4  and  N_5
REMARK    3  A    between atoms: N_5  and  C_6
REMARK    4  A    between atoms: C_13  and  C_14
REMARK                            x       y       z     vdW  Elec       q    Type
REMARK                         _______ _______ _______ _____ _____    ______ ____
ROOT
ATOM      1  C   UNL     1      45.254   8.101  12.147  0.00  0.00    +0.000 A 
ATOM      2  C   UNL     1      46.216   7.722  13.078  0.00  0.00    +0.000 A 
ATOM      3  C   UNL     1      46.664   6.404  13.080  0.00  0.00    +0.000 A 
ATOM      4  N   UNL     1      46.216   5.490  12.179  0.00  0.00    +0.000 NA
ATOM      5  C   UNL     1      45.292   5.875  11.263  0.00  0.00    +0.000 A 
ATOM      6  C   UNL     1      44.782   7.168  11.229  0.00  0.00    +0.000 A 
ENDROOT
BRANCH   5   7
ATOM      7  C   UNL     1      44.854   4.851  10.230  0.00  0.00    +0.000 C 
ATOM      8  C   UNL     1      44.814   3.432  10.821  0.00  0.00    +0.000 C 
ATOM      9  C   UNL     1      44.443   2.392   9.765  0.00  0.00    +0.000 C 
ATOM     10  C   UNL     1      45.372   2.463   8.557  0.00  0.00    +0.000 C 
ATOM     11  C   UNL     1      45.393   3.863   7.953  0.00  0.00    +0.000 C 
ATOM     12  C   UNL     1      45.767   4.916   8.994  0.00  0.00    +0.000 C 
ENDBRANCH   5   7
BRANCH   3  13
ATOM     13  C   UNL     1      47.670   5.933  14.117  0.00  0.00    +0.000 C 
BRANCH  13  14
ATOM     14  N   UNL     1      47.084   4.964  15.046  0.00  0.00    +0.000 N 
ATOM     15  H   UNL     1      46.685   4.158  14.577  0.00  0.00    +0.000 HD
BRANCH  14  16
ATOM     16  C   UNL     1      47.751   4.650  16.233  0.00  0.00    +0.000 A 
ATOM     17  C   UNL     1      48.550   5.557  16.933  0.00  0.00    +0.000 A 
ATOM     18  C   UNL     1      49.111   5.175  18.145  0.00  0.00    +0.000 A 
ATOM     19  N   UNL     1      48.924   3.971  18.717  0.00  0.00    +0.000 NA
ATOM     20  C   UNL     1      48.112   3.121  18.055  0.00  0.00    +0.000 A 
ATOM     21  C   UNL     1      47.507   3.418  16.843  0.00  0.00    +0.000 A 
ENDBRANCH  14  16
ENDBRANCH  13  14
ENDBRANCH   3  13
TORSDOF 4
ENDMDL
MODEL 9
REMARK VINA RESULT:    -6.022      1.745      6.130
REMARK INTER + INTRA:          -8.173
REMARK INTER:                  -7.502
REMARK INTRA:                  -0.671
REMARK UNBOUND:                -0.742
REMARK  Name = 
REMARK  4 active torsions:
REMARK  status: ('A' for Active; 'I' for Inactive)
REMARK    1  A    between atoms: C_3  and  C_4
REMARK    2  A    between atoms: C_4  and  N_5
REMARK    3  A    between atoms: N_5  and  C_6
REMARK    4  A    between atoms: C_13  and  C_14
REMARK                            x       y       z     vdW  Elec       q    Type
REMARK                         _______ _______ _______ _____ _____    ______ ____
ROOT
ATOM      1  C   UNL     1      43.861   7.087  11.404  0.00  0.00    +0.000 A 
ATOM      2  C   UNL     1      43.653   5.718  11.270  0.00  0.00    +0.000 A 
ATOM      3  C   UNL     1      44.685   4.847  11.608  0.00  0.00    +0.000 A 
ATOM      4  N   UNL     1      45.873   5.293  12.097  0.00  0.00    +0.000 NA
ATOM      5  C   UNL     1      46.058   6.629  12.242  0.00  0.00    +0.000 A 
ATOM      6  C   UNL     1      45.078   7.551  11.892  0.00  0.00    +0.000 A 
ENDROOT
BRANCH   5   7
ATOM      7  C   UNL     1      47.371   7.097  12.846  0.00  0.00    +0.000 C 
ATOM      8  C   UNL     1      47.190   8.386  13.664  0.00  0.00    +0.000 C 
ATOM      9  C   UNL     1      48.522   8.897  14.213  0.00  0.00    +0.000 C 
ATOM     10  C   UNL     1      49.550   9.086  13.103  0.00  0.00    +0.000 C 
ATOM     11  C   UNL     1      49.750   7.801  12.305  0.00  0.00    +0.000 C 
ATOM     12  C   UNL     1      48.430   7.278  11.745  0.00  0.00    +0.000 C 
ENDBRANCH   5   7
BRANCH   3  13
ATOM     13  C   UNL     1      44.522   3.347  11.423  0.00  0.00    +0.000 C 
BRANCH  13  14
ATOM     14  N   UNL     1      44.142   3.005  10.050  0.00  0.00    +0.000 N 
ATOM     15  H   UNL     1      43.312   3.496   9.736  0.00  0.00    +0.000 HD
BRANCH  14  16
ATOM     16  C   UNL     1      45.128   2.884   9.067  0.00  0.00    +0.000 A 
ATOM     17  C   UNL     1      45.714   1.669   8.707  0.00  0.00    +0.000 A 
ATOM     18  C   UNL     1      46.631   1.638   7.664  0.00  0.00    +0.000 A 
ATOM     19  N   UNL     1      46.995   2.718   6.947  0.00  0.00    +0.000 NA
ATOM     20  C   UNL     1      46.387   3.877   7.273  0.00  0.00    +0.000 A 
ATOM     21  C   UNL     1      45.458   4.000   8.296  0.00  0.00    +0.000 A 
ENDBRANCH  14  16
ENDBRANCH  13  14
ENDBRANCH   3  13
TORSDOF 4
ENDMDL
