MODEL 1
REMARK VINA RESULT:    -7.652      0.000      0.000
REMARK INTER + INTRA:         -11.021
REMARK INTER:                 -10.783
REMARK INTRA:                  -0.238
REMARK UNBOUND:                -0.238
REMARK  Name = 
REMARK  9 active torsions:
REMARK  status: ('A' for Active; 'I' for Inactive)
REMARK    1  A    between atoms: C_1  and  C_2
REMARK    2  A    between atoms: C_2  and  C_3
REMARK    3  A    between atoms: C_2  and  N_4
REMARK    4  A    between atoms: N_4  and  C_5
REMARK    5  A    between atoms: C_5  and  C_6
REMARK    6  A    between atoms: C_6  and  C_7
REMARK    7  A    between atoms: C_11  and  N_12
REMARK    8  A    between atoms: N_12  and  C_13
REMARK    9  A    between atoms: C_21  and  C_22
REMARK                            x       y       z     vdW  Elec       q    Type
REMARK                         _______ _______ _______ _____ _____    ______ ____
ROOT
ATOM      1  N   UNL     1      44.390   4.796  10.384  0.00  0.00    +0.000 N 
ATOM      2  C   UNL     1      45.034   4.005   9.420  0.00  0.00    +0.000 A 
ATOM      3  C   UNL     1      45.761   4.635   8.405  0.00  0.00    +0.000 A 
ATOM      4  C   UNL     1      46.511   3.884   7.501  0.00  0.00    +0.000 A 
ATOM      5  C   UNL     1      46.540   2.497   7.616  0.00  0.00    +0.000 A 
ATOM      6  C   UNL     1      45.786   1.943   8.639  0.00  0.00    +0.000 A 
ATOM      7  N   UNL     1      45.031   2.660   9.521  0.00  0.00    +0.000 NA
ENDROOT
BRANCH   5   8
ATOM      8  C   UNL     1      47.360   1.727   6.651  0.00  0.00    +0.000 C 
ATOM      9  N   UNL     1      48.450   2.320   6.067  0.00  0.00    +0.000 N 
ATOM     10  O   UNL     1      47.088   0.564   6.370  0.00  0.00    +0.000 OA
ATOM     11  H   UNL     1      48.772   3.263   6.236  0.00  0.00    +0.000 HD
ATOM     12  H   UNL     1      48.979   1.745   5.423  0.00  0.00    +0.000 HD
ENDBRANCH   5   8
BRANCH   1  14
ATOM     13  C   UNL     1      43.395   3.063  11.937  0.00  0.00    +0.000 C 
ATOM     14  C   UNL     1      43.164   4.241  10.995  0.00  0.00    +0.000 C 
ATOM     15  C   UNL     1      42.382   5.347  11.719  0.00  0.00    +0.000 C 
ENDBRANCH   1  14
BRANCH   1  16
ATOM     16  C   UNL     1      45.301   5.678  11.154  0.00  0.00    +0.000 C 
BRANCH  16  17
ATOM     17  C   UNL     1      46.076   4.928  12.256  0.00  0.00    +0.000 C 
BRANCH  17  18
ATOM     18  C   UNL     1      47.158   5.680  13.002  0.00  0.00    +0.000 A 
ATOM     19  C   UNL     1      47.840   6.700  12.325  0.00  0.00    +0.000 A 
ATOM     20  C   UNL     1      48.742   7.523  12.997  0.00  0.00    +0.000 A 
ATOM     21  C   UNL     1      48.984   7.334  14.357  0.00  0.00    +0.000 A 
ATOM     22  C   UNL     1      48.317   6.330  15.061  0.00  0.00    +0.000 A 
ATOM     23  C   UNL     1      47.399   5.514  14.375  0.00  0.00    +0.000 A 
BRANCH  22  24
ATOM     24  N   UNL     1      48.517   6.105  16.441  0.00  0.00    +0.000 N 
ATOM     25  H   UNL     1      49.447   6.425  16.715  0.00  0.00    +0.000 HD
BRANCH  24  26
ATOM     26  C   UNL     1      48.052   4.961  17.184  0.00  0.00    +0.000 C 
ATOM     27  C   UNL     1      47.590   5.318  18.606  0.00  0.00    +0.000 C 
ATOM     28  O   UNL     1      48.502   4.358  19.191  0.00  0.00    +0.000 OA
ATOM     29  C   UNL     1      49.119   4.127  17.900  0.00  0.00    +0.000 C 
ENDBRANCH  24  26
ENDBRANCH  22  24
ENDBRANCH  17  18
ENDBRANCH  16  17
ENDBRANCH   1  16
TORSDOF 7
ENDMDL
MODEL 2
REMARK VINA RESULT:    -7.448      3.792      4.701
REMARK INTER + INTRA:         -10.734
REMARK INTER:                 -10.011
REMARK INTRA:                  -0.723
REMARK UNBOUND:                -0.238
REMARK  Name = 
REMARK  9 active torsions:
REMARK  status: ('A' for Active; 'I' for Inactive)
REMARK    1  A    between atoms: C_1  and  C_2
REMARK    2  A    between atoms: C_2  and  C_3
REMARK    3  A    between atoms: C_2  and  N_4
REMARK    4  A    between atoms: N_4  and  C_5
REMARK    5  A    between atoms: C_5  and  C_6
REMARK    6  A    between atoms: C_6  and  C_7
REMARK    7  A    between atoms: C_11  and  N_12
REMARK    8  A    between atoms: N_12  and  C_13
REMARK    9  A    between atoms: C_21  and  C_22
REMARK                            x       y       z     vdW  Elec       q    Type
REMARK                         _______ _______ _______ _____ _____    ______ ____
ROOT
ATOM      1  N   UNL     1      44.588   4.741  10.799  0.00  0.00    +0.000 N 
ATOM      2  C   UNL     1      45.145   4.193   9.634  0.00  0.00    +0.000 A 
ATOM      3  C   UNL     1      45.899   5.017   8.792  0.00  0.00    +0.000 A 
ATOM      4  C   UNL     1      46.567   4.483   7.691  0.00  0.00    +0.000 A 
ATOM      5  C   UNL     1      46.486   3.118   7.433  0.00  0.00    +0.000 A 
ATOM      6  C   UNL     1      45.712   2.366   8.303  0.00  0.00    +0.000 A 
ATOM      7  N   UNL     1      45.036   2.873   9.375  0.00  0.00    +0.000 NA
ENDROOT
BRANCH   5   8
ATOM      8  C   UNL     1      47.221   2.577   6.265  0.00  0.00    +0.000 C 
ATOM      9  N   UNL     1      48.575   2.376   6.353  0.00  0.00    +0.000 N 
ATOM     10  O   UNL     1      46.640   2.297   5.221  0.00  0.00    +0.000 OA
ATOM     11  H   UNL     1      49.148   2.557   7.165  0.00  0.00    +0.000 HD
ATOM     12  H   UNL     1      49.023   1.996   5.528  0.00  0.00    +0.000 HD
ENDBRANCH   5   8
BRANCH   1  14
ATOM     13  C   UNL     1      43.518   3.093  12.394  0.00  0.00    +0.000 C 
ATOM     14  C   UNL     1      43.334   4.132  11.292  0.00  0.00    +0.000 C 
ATOM     15  C   UNL     1      42.359   5.224  11.757  0.00  0.00    +0.000 C 
ENDBRANCH   1  14
BRANCH   1  16
ATOM     16  C   UNL     1      45.584   5.317  11.736  0.00  0.00    +0.000 C 
BRANCH  16  17
ATOM     17  C   UNL     1      45.325   6.804  12.051  0.00  0.00    +0.000 C 
BRANCH  17  18
ATOM     18  C   UNL     1      46.519   7.730  12.140  0.00  0.00    +0.000 A 
ATOM     19  C   UNL     1      47.766   7.243  11.725  0.00  0.00    +0.000 A 
ATOM     20  C   UNL     1      48.872   8.087  11.646  0.00  0.00    +0.000 A 
ATOM     21  C   UNL     1      48.752   9.433  11.990  0.00  0.00    +0.000 A 
ATOM     22  C   UNL     1      47.522   9.951  12.402  0.00  0.00    +0.000 A 
ATOM     23  C   UNL     1      46.410   9.092  12.465  0.00  0.00    +0.000 A 
BRANCH  22  24
ATOM     24  N   UNL     1      47.345  11.309  12.749  0.00  0.00    +0.000 N 
ATOM     25  H   UNL     1      46.941  11.379  13.684  0.00  0.00    +0.000 HD
BRANCH  24  26
ATOM     26  C   UNL     1      46.931  12.359  11.854  0.00  0.00    +0.000 C 
ATOM     27  C   UNL     1      45.403  12.455  11.711  0.00  0.00    +0.000 C 
ATOM     28  O   UNL     1      45.486  12.318  10.272  0.00  0.00    +0.000 OA
ATOM     29  C   UNL     1      46.901  12.018  10.362  0.00  0.00    +0.000 C 
ENDBRANCH  24  26
ENDBRANCH  22  24
ENDBRANCH  17  18
ENDBRANCH  16  17
ENDBRANCH   1  16
TORSDOF 7
ENDMDL
MODEL 3
REMARK VINA RESULT:    -7.304      1.814      2.102
REMARK INTER + INTRA:         -10.532
REMARK INTER:                  -9.974
REMARK INTRA:                  -0.558
REMARK UNBOUND:                -0.238
REMARK  Name = 
REMARK  9 active torsions:
REMARK  status: ('A' for Active; 'I' for Inactive)
REMARK    1  A    between atoms: C_1  and  C_2
REMARK    2  A    between atoms: C_2  and  C_3
REMARK    3  A    between atoms: C_2  and  N_4
REMARK    4  A    between atoms: N_4  and  C_5
REMARK    5  A    between atoms: C_5  and  C_6
REMARK    6  A    between atoms: C_6  and  C_7
REMARK    7  A    between atoms: C_11  and  N_12
REMARK    8  A    between atoms: N_12  and  C_13
REMARK    9  A    between atoms: C_21  and  C_22
REMARK                            x       y       z     vdW  Elec       q    Type
REMARK                         _______ _______ _______ _____ _____    ______ ____
ROOT
ATOM      1  N   UNL     1      44.588   4.640  10.769  0.00  0.00    +0.000 N 
ATOM      2  C   UNL     1      45.102   3.998   9.632  0.00  0.00    +0.000 A 
ATOM      3  C   UNL     1      45.885   4.734   8.736  0.00  0.00    +0.000 A 
ATOM      4  C   UNL     1      46.510   4.104   7.661  0.00  0.00    +0.000 A 
ATOM      5  C   UNL     1      46.358   2.732   7.484  0.00  0.00    +0.000 A 
ATOM      6  C   UNL     1      45.560   2.072   8.404  0.00  0.00    +0.000 A 
ATOM      7  N   UNL     1      44.924   2.673   9.451  0.00  0.00    +0.000 NA
ENDROOT
BRANCH   5   8
ATOM      8  C   UNL     1      47.050   2.088   6.342  0.00  0.00    +0.000 C 
ATOM      9  N   UNL     1      47.510   2.862   5.307  0.00  0.00    +0.000 N 
ATOM     10  O   UNL     1      47.226   0.874   6.306  0.00  0.00    +0.000 OA
ATOM     11  H   UNL     1      47.432   3.868   5.241  0.00  0.00    +0.000 HD
ATOM     12  H   UNL     1      47.981   2.371   4.558  0.00  0.00    +0.000 HD
ENDBRANCH   5   8
BRANCH   1  14
ATOM     13  C   UNL     1      43.460   3.118  12.446  0.00  0.00    +0.000 C 
ATOM     14  C   UNL     1      43.313   4.125  11.309  0.00  0.00    +0.000 C 
ATOM     15  C   UNL     1      42.413   5.289  11.751  0.00  0.00    +0.000 C 
ENDBRANCH   1  14
BRANCH   1  16
ATOM     16  C   UNL     1      45.624   5.218  11.660  0.00  0.00    +0.000 C 
BRANCH  16  17
ATOM     17  C   UNL     1      45.906   6.706  11.370  0.00  0.00    +0.000 C 
BRANCH  17  18
ATOM     18  C   UNL     1      47.002   7.390  12.159  0.00  0.00    +0.000 A 
ATOM     19  C   UNL     1      48.223   7.637  11.517  0.00  0.00    +0.000 A 
ATOM     20  C   UNL     1      49.217   8.389  12.139  0.00  0.00    +0.000 A 
ATOM     21  C   UNL     1      49.011   8.900  13.421  0.00  0.00    +0.000 A 
ATOM     22  C   UNL     1      47.804   8.676  14.085  0.00  0.00    +0.000 A 
ATOM     23  C   UNL     1      46.803   7.926  13.441  0.00  0.00    +0.000 A 
BRANCH  22  24
ATOM     24  N   UNL     1      47.540   9.181  15.378  0.00  0.00    +0.000 N 
ATOM     25  H   UNL     1      46.987  10.036  15.311  0.00  0.00    +0.000 HD
BRANCH  24  26
ATOM     26  C   UNL     1      48.456   9.164  16.491  0.00  0.00    +0.000 C 
ATOM     27  C   UNL     1      48.791   7.741  16.968  0.00  0.00    +0.000 C 
ATOM     28  O   UNL     1      48.367   8.047  18.318  0.00  0.00    +0.000 OA
ATOM     29  C   UNL     1      47.844   9.328  17.886  0.00  0.00    +0.000 C 
ENDBRANCH  24  26
ENDBRANCH  22  24
ENDBRANCH  17  18
ENDBRANCH  16  17
ENDBRANCH   1  16
TORSDOF 7
ENDMDL
MODEL 4
REMARK VINA RESULT:    -7.265      3.119      5.012
REMARK INTER + INTRA:         -10.476
REMARK INTER:                  -9.103
REMARK INTRA:                  -1.373
REMARK UNBOUND:                -0.238
REMARK  Name = 
REMARK  9 active torsions:
REMARK  status: ('A' for Active; 'I' for Inactive)
REMARK    1  A    between atoms: C_1  and  C_2
REMARK    2  A    between atoms: C_2  and  C_3
REMARK    3  A    between atoms: C_2  and  N_4
REMARK    4  A    between atoms: N_4  and  C_5
REMARK    5  A    between atoms: C_5  and  C_6
REMARK    6  A    between atoms: C_6  and  C_7
REMARK    7  A    between atoms: C_11  and  N_12
REMARK    8  A    between atoms: N_12  and  C_13
REMARK    9  A    between atoms: C_21  and  C_22
REMARK                            x       y       z     vdW  Elec       q    Type
REMARK                         _______ _______ _______ _____ _____    ______ ____
ROOT
ATOM      1  N   UNL     1      47.874   7.444  12.802  0.00  0.00    +0.000 N 
ATOM      2  C   UNL     1      47.003   6.402  12.448  0.00  0.00    +0.000 A 
ATOM      3  C   UNL     1      46.698   5.422  13.399  0.00  0.00    +0.000 A 
ATOM      4  C   UNL     1      45.748   4.441  13.124  0.00  0.00    +0.000 A 
ATOM      5  C   UNL     1      45.093   4.441  11.895  0.00  0.00    +0.000 A 
ATOM      6  C   UNL     1      45.455   5.435  10.999  0.00  0.00    +0.000 A 
ATOM      7  N   UNL     1      46.397   6.393  11.243  0.00  0.00    +0.000 NA
ENDROOT
BRANCH   5   8
ATOM      8  C   UNL     1      44.075   3.396  11.638  0.00  0.00    +0.000 C 
ATOM      9  N   UNL     1      43.870   2.409  12.569  0.00  0.00    +0.000 N 
ATOM     10  O   UNL     1      43.404   3.398  10.611  0.00  0.00    +0.000 OA
ATOM     11  H   UNL     1      44.354   2.320  13.452  0.00  0.00    +0.000 HD
ATOM     12  H   UNL     1      43.157   1.727  12.346  0.00  0.00    +0.000 HD
ENDBRANCH   5   8
BRANCH   1  14
ATOM     13  C   UNL     1      48.647   9.564  11.657  0.00  0.00    +0.000 C 
ATOM     14  C   UNL     1      48.681   8.040  11.717  0.00  0.00    +0.000 C 
ATOM     15  C   UNL     1      50.135   7.550  11.804  0.00  0.00    +0.000 C 
ENDBRANCH   1  14
BRANCH   1  16
ATOM     16  C   UNL     1      47.409   8.259  13.952  0.00  0.00    +0.000 C 
BRANCH  16  17
ATOM     17  C   UNL     1      48.539   8.599  14.944  0.00  0.00    +0.000 C 
BRANCH  17  18
ATOM     18  C   UNL     1      49.272   7.453  15.609  0.00  0.00    +0.000 A 
ATOM     19  C   UNL     1      50.672   7.436  15.541  0.00  0.00    +0.000 A 
ATOM     20  C   UNL     1      51.409   6.492  16.253  0.00  0.00    +0.000 A 
ATOM     21  C   UNL     1      50.758   5.542  17.039  0.00  0.00    +0.000 A 
ATOM     22  C   UNL     1      49.365   5.535  17.132  0.00  0.00    +0.000 A 
ATOM     23  C   UNL     1      48.632   6.501  16.419  0.00  0.00    +0.000 A 
BRANCH  22  24
ATOM     24  N   UNL     1      48.658   4.602  17.923  0.00  0.00    +0.000 N 
ATOM     25  H   UNL     1      48.906   4.721  18.906  0.00  0.00    +0.000 HD
BRANCH  24  26
ATOM     26  C   UNL     1      48.365   3.239  17.556  0.00  0.00    +0.000 C 
ATOM     27  C   UNL     1      49.629   2.405  17.295  0.00  0.00    +0.000 C 
ATOM     28  O   UNL     1      49.169   2.045  15.969  0.00  0.00    +0.000 OA
ATOM     29  C   UNL     1      48.063   2.975  16.078  0.00  0.00    +0.000 C 
ENDBRANCH  24  26
ENDBRANCH  22  24
ENDBRANCH  17  18
ENDBRANCH  16  17
ENDBRANCH   1  16
TORSDOF 7
ENDMDL
MODEL 5
REMARK VINA RESULT:    -7.176      3.288      5.342
REMARK INTER + INTRA:         -10.352
REMARK INTER:                  -8.966
REMARK INTRA:                  -1.386
REMARK UNBOUND:                -0.238
REMARK  Name = 
REMARK  9 active torsions:
REMARK  status: ('A' for Active; 'I' for Inactive)
REMARK    1  A    between atoms: C_1  and  C_2
REMARK    2  A    between atoms: C_2  and  C_3
REMARK    3  A    between atoms: C_2  and  N_4
REMARK    4  A    between atoms: N_4  and  C_5
REMARK    5  A    between atoms: C_5  and  C_6
REMARK    6  A    between atoms: C_6  and  C_7
REMARK    7  A    between atoms: C_11  and  N_12
REMARK    8  A    between atoms: N_12  and  C_13
REMARK    9  A    between atoms: C_21  and  C_22
REMARK                            x       y       z     vdW  Elec       q    Type
REMARK                         _______ _______ _______ _____ _____    ______ ____
ROOT
ATOM      1  N   UNL     1      48.099   7.628  12.915  0.00  0.00    +0.000 N 
ATOM      2  C   UNL     1      47.260   6.531  12.669  0.00  0.00    +0.000 A 
ATOM      3  C   UNL     1      47.119   5.553  13.659  0.00  0.00    +0.000 A 
ATOM      4  C   UNL     1      46.204   4.513  13.501  0.00  0.00    +0.000 A 
ATOM      5  C   UNL     1      45.422   4.453  12.351  0.00  0.00    +0.000 A 
ATOM      6  C   UNL     1      45.624   5.451  11.410  0.00  0.00    +0.000 A 
ATOM      7  N   UNL     1      46.528   6.466  11.538  0.00  0.00    +0.000 NA
ENDROOT
BRANCH   5   8
ATOM      8  C   UNL     1      44.446   3.346  12.219  0.00  0.00    +0.000 C 
ATOM      9  N   UNL     1      44.374   2.646  11.041  0.00  0.00    +0.000 N 
ATOM     10  O   UNL     1      43.704   3.036  13.146  0.00  0.00    +0.000 OA
ATOM     11  H   UNL     1      44.945   2.806  10.222  0.00  0.00    +0.000 HD
ATOM     12  H   UNL     1      43.696   1.894  11.010  0.00  0.00    +0.000 HD
ENDBRANCH   5   8
BRANCH   1  14
ATOM     13  C   UNL     1      48.627   9.770  11.675  0.00  0.00    +0.000 C 
ATOM     14  C   UNL     1      48.748   8.251  11.741  0.00  0.00    +0.000 C 
ATOM     15  C   UNL     1      50.225   7.838  11.668  0.00  0.00    +0.000 C 
ENDBRANCH   1  14
BRANCH   1  16
ATOM     16  C   UNL     1      47.714   8.435  14.099  0.00  0.00    +0.000 C 
BRANCH  16  17
ATOM     17  C   UNL     1      48.890   8.686  15.065  0.00  0.00    +0.000 C 
BRANCH  17  18
ATOM     18  C   UNL     1      48.973   7.840  16.318  0.00  0.00    +0.000 A 
ATOM     19  C   UNL     1      48.287   8.280  17.458  0.00  0.00    +0.000 A 
ATOM     20  C   UNL     1      48.205   7.479  18.595  0.00  0.00    +0.000 A 
ATOM     21  C   UNL     1      48.816   6.225  18.614  0.00  0.00    +0.000 A 
ATOM     22  C   UNL     1      49.502   5.756  17.493  0.00  0.00    +0.000 A 
ATOM     23  C   UNL     1      49.568   6.569  16.347  0.00  0.00    +0.000 A 
BRANCH  22  24
ATOM     24  N   UNL     1      50.128   4.489  17.457  0.00  0.00    +0.000 N 
ATOM     25  H   UNL     1      50.895   4.499  16.784  0.00  0.00    +0.000 HD
BRANCH  24  26
ATOM     26  C   UNL     1      49.459   3.217  17.561  0.00  0.00    +0.000 C 
ATOM     27  C   UNL     1      50.295   2.055  17.002  0.00  0.00    +0.000 C 
ATOM     28  O   UNL     1      49.232   1.668  16.098  0.00  0.00    +0.000 OA
ATOM     29  C   UNL     1      48.482   2.861  16.436  0.00  0.00    +0.000 C 
ENDBRANCH  24  26
ENDBRANCH  22  24
ENDBRANCH  17  18
ENDBRANCH  16  17
ENDBRANCH   1  16
TORSDOF 7
ENDMDL
MODEL 6
REMARK VINA RESULT:    -7.096      3.173      7.784
REMARK INTER + INTRA:         -10.238
REMARK INTER:                  -8.693
REMARK INTRA:                  -1.545
REMARK UNBOUND:                -0.238
REMARK  Name = 
REMARK  9 active torsions:
REMARK  status: ('A' for Active; 'I' for Inactive)
REMARK    1  A    between atoms: C_1  and  C_2
REMARK    2  A    between atoms: C_2  and  C_3
REMARK    3  A    between atoms: C_2  and  N_4
REMARK    4  A    between atoms: N_4  and  C_5
REMARK    5  A    between atoms: C_5  and  C_6
REMARK    6  A    between atoms: C_6  and  C_7
REMARK    7  A    between atoms: C_11  and  N_12
REMARK    8  A    between atoms: N_12  and  C_13
REMARK    9  A    between atoms: C_21  and  C_22
REMARK                            x       y       z     vdW  Elec       q    Type
REMARK                         _______ _______ _______ _____ _____    ______ ____
ROOT
ATOM      1  N   UNL     1      49.187   7.653  14.290  0.00  0.00    +0.000 N 
ATOM      2  C   UNL     1      48.773   6.677  15.210  0.00  0.00    +0.000 A 
ATOM      3  C   UNL     1      47.695   5.850  14.879  0.00  0.00    +0.000 A 
ATOM      4  C   UNL     1      47.332   4.793  15.714  0.00  0.00    +0.000 A 
ATOM      5  C   UNL     1      48.053   4.559  16.881  0.00  0.00    +0.000 A 
ATOM      6  C   UNL     1      49.101   5.426  17.148  0.00  0.00    +0.000 A 
ATOM      7  N   UNL     1      49.459   6.477  16.354  0.00  0.00    +0.000 NA
ENDROOT
BRANCH   5   8
ATOM      8  C   UNL     1      47.655   3.418  17.739  0.00  0.00    +0.000 C 
ATOM      9  N   UNL     1      48.417   3.098  18.833  0.00  0.00    +0.000 N 
ATOM     10  O   UNL     1      46.650   2.758  17.494  0.00  0.00    +0.000 OA
ATOM     11  H   UNL     1      49.252   3.581  19.134  0.00  0.00    +0.000 HD
ATOM     12  H   UNL     1      48.093   2.315  19.388  0.00  0.00    +0.000 HD
ENDBRANCH   5   8
BRANCH   1  14
ATOM     13  C   UNL     1      51.145   9.254  14.221  0.00  0.00    +0.000 C 
ATOM     14  C   UNL     1      49.804   8.876  14.844  0.00  0.00    +0.000 C 
ATOM     15  C   UNL     1      48.828  10.057  14.745  0.00  0.00    +0.000 C 
ENDBRANCH   1  14
BRANCH   1  16
ATOM     16  C   UNL     1      49.603   7.109  12.974  0.00  0.00    +0.000 C 
BRANCH  16  17
ATOM     17  C   UNL     1      48.804   7.703  11.797  0.00  0.00    +0.000 C 
BRANCH  17  18
ATOM     18  C   UNL     1      47.296   7.576  11.824  0.00  0.00    +0.000 A 
ATOM     19  C   UNL     1      46.543   8.711  12.159  0.00  0.00    +0.000 A 
ATOM     20  C   UNL     1      45.153   8.700  12.062  0.00  0.00    +0.000 A 
ATOM     21  C   UNL     1      44.490   7.549  11.636  0.00  0.00    +0.000 A 
ATOM     22  C   UNL     1      45.210   6.404  11.290  0.00  0.00    +0.000 A 
ATOM     23  C   UNL     1      46.614   6.432  11.380  0.00  0.00    +0.000 A 
BRANCH  22  24
ATOM     24  N   UNL     1      44.588   5.218  10.842  0.00  0.00    +0.000 N 
ATOM     25  H   UNL     1      44.487   5.241   9.826  0.00  0.00    +0.000 HD
BRANCH  24  26
ATOM     26  C   UNL     1      43.525   4.518  11.518  0.00  0.00    +0.000 C 
ATOM     27  C   UNL     1      43.819   4.280  13.008  0.00  0.00    +0.000 C 
ATOM     28  O   UNL     1      43.623   2.853  12.863  0.00  0.00    +0.000 OA
ATOM     29  C   UNL     1      43.540   2.990  11.423  0.00  0.00    +0.000 C 
ENDBRANCH  24  26
ENDBRANCH  22  24
ENDBRANCH  17  18
ENDBRANCH  16  17
ENDBRANCH   1  16
TORSDOF 7
ENDMDL
MODEL 7
REMARK VINA RESULT:    -6.656      2.122      3.237
REMARK INTER + INTRA:          -9.618
REMARK INTER:                 -10.235
REMARK INTRA:                   0.617
REMARK UNBOUND:                -0.238
REMARK  Name = 
REMARK  9 active torsions:
REMARK  status: ('A' for Active; 'I' for Inactive)
REMARK    1  A    between atoms: C_1  and  C_2
REMARK    2  A    between atoms: C_2  and  C_3
REMARK    3  A    between atoms: C_2  and  N_4
REMARK    4  A    between atoms: N_4  and  C_5
REMARK    5  A    between atoms: C_5  and  C_6
REMARK    6  A    between atoms: C_6  and  C_7
REMARK    7  A    between atoms: C_11  and  N_12
REMARK    8  A    between atoms: N_12  and  C_13
REMARK    9  A    between atoms: C_21  and  C_22
REMARK                            x       y       z     vdW  Elec       q    Type
REMARK                         _______ _______ _______ _____ _____    ______ ____
ROOT
ATOM      1  N   UNL     1      44.522   4.715  10.537  0.00  0.00    +0.000 N 
ATOM      2  C   UNL     1      45.133   3.994   9.499  0.00  0.00    +0.000 A 
ATOM      3  C   UNL     1      45.960   4.673   8.599  0.00  0.00    +0.000 A 
ATOM      4  C   UNL     1      46.677   3.973   7.630  0.00  0.00    +0.000 A 
ATOM      5  C   UNL     1      46.571   2.587   7.563  0.00  0.00    +0.000 A 
ATOM      6  C   UNL     1      45.724   1.984   8.479  0.00  0.00    +0.000 A 
ATOM      7  N   UNL     1      45.000   2.654   9.423  0.00  0.00    +0.000 NA
ENDROOT
BRANCH   5   8
ATOM      8  C   UNL     1      47.358   1.869   6.533  0.00  0.00    +0.000 C 
ATOM      9  N   UNL     1      48.472   2.464   5.998  0.00  0.00    +0.000 N 
ATOM     10  O   UNL     1      47.038   0.747   6.154  0.00  0.00    +0.000 OA
ATOM     11  H   UNL     1      48.834   3.374   6.246  0.00  0.00    +0.000 HD
ATOM     12  H   UNL     1      48.977   1.924   5.305  0.00  0.00    +0.000 HD
ENDBRANCH   5   8
BRANCH   1  14
ATOM     13  C   UNL     1      43.310   2.952  11.889  0.00  0.00    +0.000 C 
ATOM     14  C   UNL     1      43.224   4.210  11.029  0.00  0.00    +0.000 C 
ATOM     15  C   UNL     1      42.476   5.315  11.790  0.00  0.00    +0.000 C 
ENDBRANCH   1  14
BRANCH   1  16
ATOM     16  C   UNL     1      45.477   5.398  11.445  0.00  0.00    +0.000 C 
BRANCH  16  17
ATOM     17  C   UNL     1      45.974   4.491  12.588  0.00  0.00    +0.000 C 
BRANCH  17  18
ATOM     18  C   UNL     1      46.797   5.122  13.691  0.00  0.00    +0.000 A 
ATOM     19  C   UNL     1      46.944   4.416  14.892  0.00  0.00    +0.000 A 
ATOM     20  C   UNL     1      47.804   4.874  15.889  0.00  0.00    +0.000 A 
ATOM     21  C   UNL     1      48.526   6.053  15.703  0.00  0.00    +0.000 A 
ATOM     22  C   UNL     1      48.406   6.777  14.516  0.00  0.00    +0.000 A 
ATOM     23  C   UNL     1      47.544   6.298  13.512  0.00  0.00    +0.000 A 
BRANCH  22  24
ATOM     24  N   UNL     1      49.124   7.969  14.274  0.00  0.00    +0.000 N 
ATOM     25  H   UNL     1      48.726   8.733  14.824  0.00  0.00    +0.000 HD
BRANCH  24  26
ATOM     26  C   UNL     1      49.663   8.385  13.004  0.00  0.00    +0.000 C 
ATOM     27  C   UNL     1      49.101   9.734  12.528  0.00  0.00    +0.000 C 
ATOM     28  O   UNL     1      48.656   9.157  11.277  0.00  0.00    +0.000 OA
ATOM     29  C   UNL     1      48.980   7.826  11.752  0.00  0.00    +0.000 C 
ENDBRANCH  24  26
ENDBRANCH  22  24
ENDBRANCH  17  18
ENDBRANCH  16  17
ENDBRANCH   1  16
TORSDOF 7
ENDMDL
MODEL 8
REMARK VINA RESULT:    -6.620      1.799      8.871
REMARK INTER + INTRA:          -9.568
REMARK INTER:                  -8.908
REMARK INTRA:                  -0.660
REMARK UNBOUND:                -0.238
REMARK  Name = 
REMARK  9 active torsions:
REMARK  status: ('A' for Active; 'I' for Inactive)
REMARK    1  A    between atoms: C_1  and  C_2
REMARK    2  A    between atoms: C_2  and  C_3
REMARK    3  A    between atoms: C_2  and  N_4
REMARK    4  A    between atoms: N_4  and  C_5
REMARK    5  A    between atoms: C_5  and  C_6
REMARK    6  A    between atoms: C_6  and  C_7
REMARK    7  A    between atoms: C_11  and  N_12
REMARK    8  A    between atoms: N_12  and  C_13
REMARK    9  A    between atoms: C_21  and  C_22
REMARK                            x       y       z     vdW  Elec       q    Type
REMARK                         _______ _______ _______ _____ _____    ______ ____
ROOT
ATOM      1  N   UNL     1      48.440   6.980  14.219  0.00  0.00    +0.000 N 
ATOM      2  C   UNL     1      48.883   6.486  15.455  0.00  0.00    +0.000 A 
ATOM      3  C   UNL     1      47.953   5.908  16.326  0.00  0.00    +0.000 A 
ATOM      4  C   UNL     1      48.373   5.300  17.507  0.00  0.00    +0.000 A 
ATOM      5  C   UNL     1      49.730   5.263  17.818  0.00  0.00    +0.000 A 
ATOM      6  C   UNL     1      50.591   5.865  16.914  0.00  0.00    +0.000 A 
ATOM      7  N   UNL     1      50.197   6.482  15.762  0.00  0.00    +0.000 NA
ENDROOT
BRANCH   5   8
ATOM      8  C   UNL     1      50.147   4.594  19.073  0.00  0.00    +0.000 C 
ATOM      9  N   UNL     1      49.211   3.941  19.834  0.00  0.00    +0.000 N 
ATOM     10  O   UNL     1      51.317   4.606  19.442  0.00  0.00    +0.000 OA
ATOM     11  H   UNL     1      48.228   3.857  19.618  0.00  0.00    +0.000 HD
ATOM     12  H   UNL     1      49.554   3.495  20.676  0.00  0.00    +0.000 HD
ENDBRANCH   5   8
BRANCH   1  14
ATOM     13  C   UNL     1      49.591   7.930  12.175  0.00  0.00    +0.000 C 
ATOM     14  C   UNL     1      49.197   8.109  13.638  0.00  0.00    +0.000 C 
ATOM     15  C   UNL     1      48.418   9.420  13.815  0.00  0.00    +0.000 C 
ENDBRANCH   1  14
BRANCH   1  16
ATOM     16  C   UNL     1      47.792   5.962  13.355  0.00  0.00    +0.000 C 
BRANCH  16  17
ATOM     17  C   UNL     1      46.517   6.483  12.662  0.00  0.00    +0.000 C 
BRANCH  17  18
ATOM     18  C   UNL     1      45.537   5.466  12.117  0.00  0.00    +0.000 A 
ATOM     19  C   UNL     1      44.742   4.760  13.030  0.00  0.00    +0.000 A 
ATOM     20  C   UNL     1      43.723   3.918  12.587  0.00  0.00    +0.000 A 
ATOM     21  C   UNL     1      43.488   3.762  11.221  0.00  0.00    +0.000 A 
ATOM     22  C   UNL     1      44.259   4.456  10.286  0.00  0.00    +0.000 A 
ATOM     23  C   UNL     1      45.276   5.312  10.746  0.00  0.00    +0.000 A 
BRANCH  22  24
ATOM     24  N   UNL     1      44.053   4.342   8.894  0.00  0.00    +0.000 N 
ATOM     25  H   UNL     1      43.103   4.632   8.657  0.00  0.00    +0.000 HD
BRANCH  24  26
ATOM     26  C   UNL     1      44.569   3.295   8.049  0.00  0.00    +0.000 C 
ATOM     27  C   UNL     1      45.252   2.169   8.842  0.00  0.00    +0.000 C 
ATOM     28  O   UNL     1      46.479   2.323   8.088  0.00  0.00    +0.000 OA
ATOM     29  C   UNL     1      45.962   3.518   7.452  0.00  0.00    +0.000 C 
ENDBRANCH  24  26
ENDBRANCH  22  24
ENDBRANCH  17  18
ENDBRANCH  16  17
ENDBRANCH   1  16
TORSDOF 7
ENDMDL
MODEL 9
REMARK VINA RESULT:    -6.416      3.850      8.208
REMARK INTER + INTRA:          -9.279
REMARK INTER:                  -8.047
REMARK INTRA:                  -1.233
REMARK UNBOUND:                -0.238
REMARK  Name = 
REMARK  9 active torsions:
REMARK  status: ('A' for Active; 'I' for Inactive)
REMARK    1  A    between atoms: C_1  and  C_2
REMARK    2  A    between atoms: C_2  and  C_3
REMARK    3  A    between atoms: C_2  and  N_4
REMARK    4  A    between atoms: N_4  and  C_5
REMARK    5  A    between atoms: C_5  and  C_6
REMARK    6  A    between atoms: C_6  and  C_7
REMARK    7  A    between atoms: C_11  and  N_12
REMARK    8  A    between atoms: N_12  and  C_13
REMARK    9  A    between atoms: C_21  and  C_22
REMARK                            x       y       z     vdW  Elec       q    Type
REMARK                         _______ _______ _______ _____ _____    ______ ____
ROOT
ATOM      1  N   UNL     1      48.573   7.303  18.562  0.00  0.00    +0.000 N 
ATOM      2  C   UNL     1      48.969   5.987  18.281  0.00  0.00    +0.000 A 
ATOM      3  C   UNL     1      48.167   5.203  17.444  0.00  0.00    +0.000 A 
ATOM      4  C   UNL     1      48.587   3.935  17.046  0.00  0.00    +0.000 A 
ATOM      5  C   UNL     1      49.816   3.448  17.482  0.00  0.00    +0.000 A 
ATOM      6  C   UNL     1      50.550   4.275  18.318  0.00  0.00    +0.000 A 
ATOM      7  N   UNL     1      50.148   5.512  18.734  0.00  0.00    +0.000 NA
ENDROOT
BRANCH   5   8
ATOM      8  C   UNL     1      50.243   2.103  17.029  0.00  0.00    +0.000 C 
ATOM      9  N   UNL     1      51.154   1.398  17.773  0.00  0.00    +0.000 N 
ATOM     10  O   UNL     1      49.791   1.603  16.004  0.00  0.00    +0.000 OA
ATOM     11  H   UNL     1      51.577   1.706  18.638  0.00  0.00    +0.000 HD
ATOM     12  H   UNL     1      51.403   0.481  17.422  0.00  0.00    +0.000 HD
ENDBRANCH   5   8
BRANCH   1  14
ATOM     13  C   UNL     1      49.815   9.141  19.780  0.00  0.00    +0.000 C 
ATOM     14  C   UNL     1      48.987   7.862  19.866  0.00  0.00    +0.000 C 
ATOM     15  C   UNL     1      47.760   8.091  20.761  0.00  0.00    +0.000 C 
ENDBRANCH   1  14
BRANCH   1  16
ATOM     16  C   UNL     1      48.439   8.166  17.363  0.00  0.00    +0.000 C 
BRANCH  16  17
ATOM     17  C   UNL     1      49.651   8.073  16.415  0.00  0.00    +0.000 C 
BRANCH  17  18
ATOM     18  C   UNL     1      49.386   7.864  14.939  0.00  0.00    +0.000 A 
ATOM     19  C   UNL     1      50.345   8.321  14.024  0.00  0.00    +0.000 A 
ATOM     20  C   UNL     1      50.231   8.032  12.666  0.00  0.00    +0.000 A 
ATOM     21  C   UNL     1      49.149   7.286  12.197  0.00  0.00    +0.000 A 
ATOM     22  C   UNL     1      48.180   6.811  13.083  0.00  0.00    +0.000 A 
ATOM     23  C   UNL     1      48.314   7.099  14.454  0.00  0.00    +0.000 A 
BRANCH  22  24
ATOM     24  N   UNL     1      47.074   6.041  12.661  0.00  0.00    +0.000 N 
ATOM     25  H   UNL     1      46.516   6.572  11.990  0.00  0.00    +0.000 HD
BRANCH  24  26
ATOM     26  C   UNL     1      46.298   5.155  13.492  0.00  0.00    +0.000 C 
ATOM     27  C   UNL     1      46.908   3.748  13.598  0.00  0.00    +0.000 C 
ATOM     28  O   UNL     1      45.681   3.134  13.134  0.00  0.00    +0.000 OA
ATOM     29  C   UNL     1      45.125   4.435  12.821  0.00  0.00    +0.000 C 
ENDBRANCH  24  26
ENDBRANCH  22  24
ENDBRANCH  17  18
ENDBRANCH  16  17
ENDBRANCH   1  16
TORSDOF 7
ENDMDL
