MODEL 1
REMARK VINA RESULT:    -6.646      0.000      0.000
REMARK INTER + INTRA:          -8.794
REMARK INTER:                  -8.394
REMARK INTRA:                  -0.399
REMARK UNBOUND:                -0.399
REMARK  Name = 
REMARK  5 active torsions:
REMARK  status: ('A' for Active; 'I' for Inactive)
REMARK    1  A    between atoms: N_1  and  C_2
REMARK    2  A    between atoms: C_2  and  C_3
REMARK    3  A    between atoms: C_7  and  C_8
REMARK    4  A    between atoms: C_9  and  C_10
REMARK    5  A    between atoms: C_10  and  C_11
REMARK                            x       y       z     vdW  Elec       q    Type
REMARK                         _______ _______ _______ _____ _____    ______ ____
ROOT
ATOM      1  C   UNL     1      46.120   8.133  12.384  0.00  0.00    +0.000 A 
ATOM      2  C   UNL     1      46.956   7.543  13.327  0.00  0.00    +0.000 A 
ATOM      3  N   UNL     1      47.160   6.212  13.433  0.00  0.00    +0.000 NA
ATOM      4  C   UNL     1      46.489   5.426  12.556  0.00  0.00    +0.000 A 
ATOM      5  C   UNL     1      45.619   5.895  11.574  0.00  0.00    +0.000 A 
ATOM      6  C   UNL     1      45.458   7.280  11.490  0.00  0.00    +0.000 A 
ENDROOT
BRANCH   5   7
ATOM      7  C   UNL     1      44.974   4.956  10.646  0.00  0.00    +0.000 C 
ATOM      8  C   UNL     1      45.380   4.740   9.382  0.00  0.00    +0.000 C 
BRANCH   8   9
ATOM      9  C   UNL     1      44.733   3.754   8.451  0.00  0.00    +0.000 C 
BRANCH   9  10
ATOM     10  C   UNL     1      45.738   2.896   7.721  0.00  0.00    +0.000 A 
ATOM     11  C   UNL     1      46.064   1.618   8.196  0.00  0.00    +0.000 A 
ATOM     12  C   UNL     1      46.992   0.825   7.517  0.00  0.00    +0.000 A 
ATOM     13  C   UNL     1      47.604   1.303   6.360  0.00  0.00    +0.000 A 
ATOM     14  C   UNL     1      47.297   2.577   5.887  0.00  0.00    +0.000 A 
ATOM     15  C   UNL     1      46.373   3.372   6.565  0.00  0.00    +0.000 A 
ENDBRANCH   9  10
ENDBRANCH   8   9
ENDBRANCH   5   7
BRANCH   1  16
ATOM     16  C   UNL     1      45.950   9.622  12.312  0.00  0.00    +0.000 C 
BRANCH  16  17
ATOM     17  N   UNL     1      44.569  10.017  12.567  0.00  0.00    +0.000 NA
ATOM     18  H   UNL     1      43.942   9.387  12.071  0.00  0.00    +0.000 HD
ATOM     19  H   UNL     1      44.410  10.946  12.179  0.00  0.00    +0.000 HD
ENDBRANCH  16  17
ENDBRANCH   1  16
TORSDOF 5
ENDMDL
MODEL 2
REMARK VINA RESULT:    -6.626      1.304      2.947
REMARK INTER + INTRA:          -8.768
REMARK INTER:                  -8.330
REMARK INTRA:                  -0.439
REMARK UNBOUND:                -0.399
REMARK  Name = 
REMARK  5 active torsions:
REMARK  status: ('A' for Active; 'I' for Inactive)
REMARK    1  A    between atoms: N_1  and  C_2
REMARK    2  A    between atoms: C_2  and  C_3
REMARK    3  A    between atoms: C_7  and  C_8
REMARK    4  A    between atoms: C_9  and  C_10
REMARK    5  A    between atoms: C_10  and  C_11
REMARK                            x       y       z     vdW  Elec       q    Type
REMARK                         _______ _______ _______ _____ _____    ______ ____
ROOT
ATOM      1  C   UNL     1      46.802   5.274  13.907  0.00  0.00    +0.000 A 
ATOM      2  C   UNL     1      46.919   6.655  13.788  0.00  0.00    +0.000 A 
ATOM      3  N   UNL     1      46.506   7.361  12.712  0.00  0.00    +0.000 NA
ATOM      4  C   UNL     1      45.954   6.650  11.698  0.00  0.00    +0.000 A 
ATOM      5  C   UNL     1      45.790   5.267  11.695  0.00  0.00    +0.000 A 
ATOM      6  C   UNL     1      46.212   4.584  12.838  0.00  0.00    +0.000 A 
ENDROOT
BRANCH   5   7
ATOM      7  C   UNL     1      45.139   4.601  10.559  0.00  0.00    +0.000 C 
ATOM      8  C   UNL     1      45.580   4.662   9.290  0.00  0.00    +0.000 C 
BRANCH   8   9
ATOM      9  C   UNL     1      44.925   3.952   8.139  0.00  0.00    +0.000 C 
BRANCH   9  10
ATOM     10  C   UNL     1      45.858   2.992   7.440  0.00  0.00    +0.000 A 
ATOM     11  C   UNL     1      46.417   3.318   6.196  0.00  0.00    +0.000 A 
ATOM     12  C   UNL     1      47.282   2.429   5.554  0.00  0.00    +0.000 A 
ATOM     13  C   UNL     1      47.592   1.206   6.145  0.00  0.00    +0.000 A 
ATOM     14  C   UNL     1      47.031   0.866   7.374  0.00  0.00    +0.000 A 
ATOM     15  C   UNL     1      46.165   1.752   8.017  0.00  0.00    +0.000 A 
ENDBRANCH   9  10
ENDBRANCH   8   9
ENDBRANCH   5   7
BRANCH   1  16
ATOM     16  C   UNL     1      47.268   4.553  15.138  0.00  0.00    +0.000 C 
BRANCH  16  17
ATOM     17  N   UNL     1      47.562   3.152  14.859  0.00  0.00    +0.000 NA
ATOM     18  H   UNL     1      46.952   2.822  14.113  0.00  0.00    +0.000 HD
ATOM     19  H   UNL     1      47.339   2.593  15.682  0.00  0.00    +0.000 HD
ENDBRANCH  16  17
ENDBRANCH   1  16
TORSDOF 5
ENDMDL
MODEL 3
REMARK VINA RESULT:    -6.524      2.383      3.922
REMARK INTER + INTRA:          -8.640
REMARK INTER:                  -8.153
REMARK INTRA:                  -0.487
REMARK UNBOUND:                -0.399
REMARK  Name = 
REMARK  5 active torsions:
REMARK  status: ('A' for Active; 'I' for Inactive)
REMARK    1  A    between atoms: N_1  and  C_2
REMARK    2  A    between atoms: C_2  and  C_3
REMARK    3  A    between atoms: C_7  and  C_8
REMARK    4  A    between atoms: C_9  and  C_10
REMARK    5  A    between atoms: C_10  and  C_11
REMARK                            x       y       z     vdW  Elec       q    Type
REMARK                         _______ _______ _______ _____ _____    ______ ____
ROOT
ATOM      1  C   UNL     1      47.546   4.792  15.895  0.00  0.00    +0.000 A 
ATOM      2  C   UNL     1      48.382   5.831  15.503  0.00  0.00    +0.000 A 
ATOM      3  N   UNL     1      48.403   6.360  14.260  0.00  0.00    +0.000 NA
ATOM      4  C   UNL     1      47.549   5.817  13.357  0.00  0.00    +0.000 A 
ATOM      5  C   UNL     1      46.671   4.770  13.626  0.00  0.00    +0.000 A 
ATOM      6  C   UNL     1      46.671   4.273  14.931  0.00  0.00    +0.000 A 
ENDROOT
BRANCH   5   7
ATOM      7  C   UNL     1      45.757   4.285  12.583  0.00  0.00    +0.000 C 
ATOM      8  C   UNL     1      45.226   5.059  11.620  0.00  0.00    +0.000 C 
BRANCH   8   9
ATOM      9  C   UNL     1      44.316   4.547  10.539  0.00  0.00    +0.000 C 
BRANCH   9  10
ATOM     10  C   UNL     1      45.056   3.778   9.470  0.00  0.00    +0.000 A 
ATOM     11  C   UNL     1      45.734   4.453   8.445  0.00  0.00    +0.000 A 
ATOM     12  C   UNL     1      46.419   3.740   7.460  0.00  0.00    +0.000 A 
ATOM     13  C   UNL     1      46.431   2.347   7.487  0.00  0.00    +0.000 A 
ATOM     14  C   UNL     1      45.749   1.665   8.494  0.00  0.00    +0.000 A 
ATOM     15  C   UNL     1      45.061   2.376   9.478  0.00  0.00    +0.000 A 
ENDBRANCH   9  10
ENDBRANCH   8   9
ENDBRANCH   5   7
BRANCH   1  16
ATOM     16  C   UNL     1      47.562   4.262  17.300  0.00  0.00    +0.000 C 
BRANCH  16  17
ATOM     17  N   UNL     1      46.647   3.138  17.458  0.00  0.00    +0.000 NA
ATOM     18  H   UNL     1      46.283   2.868  16.546  0.00  0.00    +0.000 HD
ATOM     19  H   UNL     1      45.844   3.435  18.012  0.00  0.00    +0.000 HD
ENDBRANCH  16  17
ENDBRANCH   1  16
TORSDOF 5
ENDMDL
MODEL 4
REMARK VINA RESULT:    -6.430      3.151      7.160
REMARK INTER + INTRA:          -8.521
REMARK INTER:                  -8.021
REMARK INTRA:                  -0.500
REMARK UNBOUND:                -0.399
REMARK  Name = 
REMARK  5 active torsions:
REMARK  status: ('A' for Active; 'I' for Inactive)
REMARK    1  A    between atoms: N_1  and  C_2
REMARK    2  A    between atoms: C_2  and  C_3
REMARK    3  A    between atoms: C_7  and  C_8
REMARK    4  A    between atoms: C_9  and  C_10
REMARK    5  A    between atoms: C_10  and  C_11
REMARK                            x       y       z     vdW  Elec       q    Type
REMARK                         _______ _______ _______ _____ _____    ______ ____
ROOT
ATOM      1  C   UNL     1      46.695   2.479   6.643  0.00  0.00    +0.000 A 
ATOM      2  C   UNL     1      46.599   1.233   7.254  0.00  0.00    +0.000 A 
ATOM      3  N   UNL     1      45.986   1.014   8.437  0.00  0.00    +0.000 NA
ATOM      4  C   UNL     1      45.446   2.097   9.048  0.00  0.00    +0.000 A 
ATOM      5  C   UNL     1      45.484   3.394   8.543  0.00  0.00    +0.000 A 
ATOM      6  C   UNL     1      46.110   3.566   7.306  0.00  0.00    +0.000 A 
ENDROOT
BRANCH   5   7
ATOM      7  C   UNL     1      44.829   4.491   9.269  0.00  0.00    +0.000 C 
ATOM      8  C   UNL     1      43.956   4.318  10.277  0.00  0.00    +0.000 C 
BRANCH   8   9
ATOM      9  C   UNL     1      43.314   5.447  11.033  0.00  0.00    +0.000 C 
BRANCH   9  10
ATOM     10  C   UNL     1      44.325   6.379  11.656  0.00  0.00    +0.000 A 
ATOM     11  C   UNL     1      45.278   5.895  12.563  0.00  0.00    +0.000 A 
ATOM     12  C   UNL     1      46.214   6.759  13.136  0.00  0.00    +0.000 A 
ATOM     13  C   UNL     1      46.203   8.114  12.812  0.00  0.00    +0.000 A 
ATOM     14  C   UNL     1      45.252   8.608  11.922  0.00  0.00    +0.000 A 
ATOM     15  C   UNL     1      44.314   7.747  11.350  0.00  0.00    +0.000 A 
ENDBRANCH   9  10
ENDBRANCH   8   9
ENDBRANCH   5   7
BRANCH   1  16
ATOM     16  C   UNL     1      47.378   2.649   5.317  0.00  0.00    +0.000 C 
BRANCH  16  17
ATOM     17  N   UNL     1      48.441   1.668   5.133  0.00  0.00    +0.000 NA
ATOM     18  H   UNL     1      48.531   1.106   5.977  0.00  0.00    +0.000 HD
ATOM     19  H   UNL     1      49.329   2.156   5.016  0.00  0.00    +0.000 HD
ENDBRANCH  16  17
ENDBRANCH   1  16
TORSDOF 5
ENDMDL
MODEL 5
REMARK VINA RESULT:    -6.092      2.336      3.167
REMARK INTER + INTRA:          -8.094
REMARK INTER:                  -7.603
REMARK INTRA:                  -0.491
REMARK UNBOUND:                -0.399
REMARK  Name = 
REMARK  5 active torsions:
REMARK  status: ('A' for Active; 'I' for Inactive)
REMARK    1  A    between atoms: N_1  and  C_2
REMARK    2  A    between atoms: C_2  and  C_3
REMARK    3  A    between atoms: C_7  and  C_8
REMARK    4  A    between atoms: C_9  and  C_10
REMARK    5  A    between atoms: C_10  and  C_11
REMARK                            x       y       z     vdW  Elec       q    Type
REMARK                         _______ _______ _______ _____ _____    ______ ____
ROOT
ATOM      1  C   UNL     1      45.209   4.845  12.926  0.00  0.00    +0.000 A 
ATOM      2  C   UNL     1      43.866   4.747  13.274  0.00  0.00    +0.000 A 
ATOM      3  N   UNL     1      42.861   4.608  12.382  0.00  0.00    +0.000 NA
ATOM      4  C   UNL     1      43.213   4.574  11.073  0.00  0.00    +0.000 A 
ATOM      5  C   UNL     1      44.519   4.672  10.600  0.00  0.00    +0.000 A 
ATOM      6  C   UNL     1      45.526   4.791  11.562  0.00  0.00    +0.000 A 
ENDROOT
BRANCH   5   7
ATOM      7  C   UNL     1      44.794   4.580   9.160  0.00  0.00    +0.000 C 
ATOM      8  C   UNL     1      46.022   4.453   8.629  0.00  0.00    +0.000 C 
BRANCH   8   9
ATOM      9  C   UNL     1      46.290   4.329   7.156  0.00  0.00    +0.000 C 
BRANCH   9  10
ATOM     10  C   UNL     1      46.637   2.919   6.743  0.00  0.00    +0.000 A 
ATOM     11  C   UNL     1      46.946   2.622   5.408  0.00  0.00    +0.000 A 
ATOM     12  C   UNL     1      47.269   1.317   5.029  0.00  0.00    +0.000 A 
ATOM     13  C   UNL     1      47.283   0.297   5.979  0.00  0.00    +0.000 A 
ATOM     14  C   UNL     1      46.964   0.579   7.306  0.00  0.00    +0.000 A 
ATOM     15  C   UNL     1      46.638   1.882   7.686  0.00  0.00    +0.000 A 
ENDBRANCH   9  10
ENDBRANCH   8   9
ENDBRANCH   5   7
BRANCH   1  16
ATOM     16  C   UNL     1      46.279   4.981  13.970  0.00  0.00    +0.000 C 
BRANCH  16  17
ATOM     17  N   UNL     1      47.606   5.057  13.369  0.00  0.00    +0.000 NA
ATOM     18  H   UNL     1      48.144   4.234  13.635  0.00  0.00    +0.000 HD
ATOM     19  H   UNL     1      48.102   5.861  13.754  0.00  0.00    +0.000 HD
ENDBRANCH  16  17
ENDBRANCH   1  16
TORSDOF 5
ENDMDL
MODEL 6
REMARK VINA RESULT:    -5.992      2.715      6.870
REMARK INTER + INTRA:          -7.967
REMARK INTER:                  -7.443
REMARK INTRA:                  -0.525
REMARK UNBOUND:                -0.399
REMARK  Name = 
REMARK  5 active torsions:
REMARK  status: ('A' for Active; 'I' for Inactive)
REMARK    1  A    between atoms: N_1  and  C_2
REMARK    2  A    between atoms: C_2  and  C_3
REMARK    3  A    between atoms: C_7  and  C_8
REMARK    4  A    between atoms: C_9  and  C_10
REMARK    5  A    between atoms: C_10  and  C_11
REMARK                            x       y       z     vdW  Elec       q    Type
REMARK                         _______ _______ _______ _____ _____    ______ ____
ROOT
ATOM      1  C   UNL     1      45.361   3.461   8.307  0.00  0.00    +0.000 A 
ATOM      2  C   UNL     1      44.545   2.539   8.954  0.00  0.00    +0.000 A 
ATOM      3  N   UNL     1      43.981   2.744  10.165  0.00  0.00    +0.000 NA
ATOM      4  C   UNL     1      44.251   3.929  10.765  0.00  0.00    +0.000 A 
ATOM      5  C   UNL     1      45.058   4.927  10.224  0.00  0.00    +0.000 A 
ATOM      6  C   UNL     1      45.601   4.677   8.961  0.00  0.00    +0.000 A 
ENDROOT
BRANCH   5   7
ATOM      7  C   UNL     1      45.251   6.194  10.943  0.00  0.00    +0.000 C 
ATOM      8  C   UNL     1      45.764   6.292  12.182  0.00  0.00    +0.000 C 
BRANCH   8   9
ATOM      9  C   UNL     1      45.987   7.595  12.896  0.00  0.00    +0.000 C 
BRANCH   9  10
ATOM     10  C   UNL     1      47.179   8.354  12.366  0.00  0.00    +0.000 A 
ATOM     11  C   UNL     1      48.386   7.691  12.098  0.00  0.00    +0.000 A 
ATOM     12  C   UNL     1      49.486   8.396  11.604  0.00  0.00    +0.000 A 
ATOM     13  C   UNL     1      49.393   9.767  11.378  0.00  0.00    +0.000 A 
ATOM     14  C   UNL     1      48.203  10.438  11.654  0.00  0.00    +0.000 A 
ATOM     15  C   UNL     1      47.103   9.737  12.150  0.00  0.00    +0.000 A 
ENDBRANCH   9  10
ENDBRANCH   8   9
ENDBRANCH   5   7
BRANCH   1  16
ATOM     16  C   UNL     1      45.943   3.175   6.953  0.00  0.00    +0.000 C 
BRANCH  16  17
ATOM     17  N   UNL     1      46.973   4.145   6.598  0.00  0.00    +0.000 NA
ATOM     18  H   UNL     1      46.933   4.931   7.245  0.00  0.00    +0.000 HD
ATOM     19  H   UNL     1      46.772   4.522   5.673  0.00  0.00    +0.000 HD
ENDBRANCH  16  17
ENDBRANCH   1  16
TORSDOF 5
ENDMDL
MODEL 7
REMARK VINA RESULT:    -5.618      4.580      7.650
REMARK INTER + INTRA:          -7.495
REMARK INTER:                  -7.059
REMARK INTRA:                  -0.436
REMARK UNBOUND:                -0.399
REMARK  Name = 
REMARK  5 active torsions:
REMARK  status: ('A' for Active; 'I' for Inactive)
REMARK    1  A    between atoms: N_1  and  C_2
REMARK    2  A    between atoms: C_2  and  C_3
REMARK    3  A    between atoms: C_7  and  C_8
REMARK    4  A    between atoms: C_9  and  C_10
REMARK    5  A    between atoms: C_10  and  C_11
REMARK                            x       y       z     vdW  Elec       q    Type
REMARK                         _______ _______ _______ _____ _____    ______ ____
ROOT
ATOM      1  C   UNL     1      45.428   5.104  11.399  0.00  0.00    +0.000 A 
ATOM      2  C   UNL     1      46.176   6.271  11.288  0.00  0.00    +0.000 A 
ATOM      3  N   UNL     1      47.125   6.650  12.172  0.00  0.00    +0.000 NA
ATOM      4  C   UNL     1      47.334   5.824  13.227  0.00  0.00    +0.000 A 
ATOM      5  C   UNL     1      46.645   4.635  13.452  0.00  0.00    +0.000 A 
ATOM      6  C   UNL     1      45.689   4.275  12.499  0.00  0.00    +0.000 A 
ENDROOT
BRANCH   5   7
ATOM      7  C   UNL     1      46.980   3.792  14.608  0.00  0.00    +0.000 C 
ATOM      8  C   UNL     1      47.213   4.261  15.846  0.00  0.00    +0.000 C 
BRANCH   8   9
ATOM      9  C   UNL     1      47.526   3.389  17.029  0.00  0.00    +0.000 C 
BRANCH   9  10
ATOM     10  C   UNL     1      49.009   3.237  17.265  0.00  0.00    +0.000 A 
ATOM     11  C   UNL     1      49.663   2.038  16.948  0.00  0.00    +0.000 A 
ATOM     12  C   UNL     1      51.037   1.901  17.165  0.00  0.00    +0.000 A 
ATOM     13  C   UNL     1      51.767   2.959  17.702  0.00  0.00    +0.000 A 
ATOM     14  C   UNL     1      51.125   4.150  18.033  0.00  0.00    +0.000 A 
ATOM     15  C   UNL     1      49.752   4.288  17.820  0.00  0.00    +0.000 A 
ENDBRANCH   9  10
ENDBRANCH   8   9
ENDBRANCH   5   7
BRANCH   1  16
ATOM     16  C   UNL     1      44.398   4.734  10.371  0.00  0.00    +0.000 C 
BRANCH  16  17
ATOM     17  N   UNL     1      43.208   5.571  10.481  0.00  0.00    +0.000 NA
ATOM     18  H   UNL     1      43.056   5.812  11.458  0.00  0.00    +0.000 HD
ATOM     19  H   UNL     1      42.394   5.033  10.186  0.00  0.00    +0.000 HD
ENDBRANCH  16  17
ENDBRANCH   1  16
TORSDOF 5
ENDMDL
MODEL 8
REMARK VINA RESULT:    -5.531      1.887      2.451
REMARK INTER + INTRA:          -7.385
REMARK INTER:                  -6.850
REMARK INTRA:                  -0.536
REMARK UNBOUND:                -0.399
REMARK  Name = 
REMARK  5 active torsions:
REMARK  status: ('A' for Active; 'I' for Inactive)
REMARK    1  A    between atoms: N_1  and  C_2
REMARK    2  A    between atoms: C_2  and  C_3
REMARK    3  A    between atoms: C_7  and  C_8
REMARK    4  A    between atoms: C_9  and  C_10
REMARK    5  A    between atoms: C_10  and  C_11
REMARK                            x       y       z     vdW  Elec       q    Type
REMARK                         _______ _______ _______ _____ _____    ______ ____
ROOT
ATOM      1  C   UNL     1      48.999   7.874  12.863  0.00  0.00    +0.000 A 
ATOM      2  C   UNL     1      49.249   7.440  14.161  0.00  0.00    +0.000 A 
ATOM      3  N   UNL     1      48.585   6.429  14.763  0.00  0.00    +0.000 NA
ATOM      4  C   UNL     1      47.615   5.823  14.035  0.00  0.00    +0.000 A 
ATOM      5  C   UNL     1      47.267   6.172  12.732  0.00  0.00    +0.000 A 
ATOM      6  C   UNL     1      47.996   7.208  12.145  0.00  0.00    +0.000 A 
ENDROOT
BRANCH   5   7
ATOM      7  C   UNL     1      46.226   5.420  12.018  0.00  0.00    +0.000 C 
ATOM      8  C   UNL     1      45.622   5.842  10.893  0.00  0.00    +0.000 C 
BRANCH   8   9
ATOM      9  C   UNL     1      44.581   5.052  10.153  0.00  0.00    +0.000 C 
BRANCH   9  10
ATOM     10  C   UNL     1      45.181   4.011   9.238  0.00  0.00    +0.000 A 
ATOM     11  C   UNL     1      45.001   2.645   9.498  0.00  0.00    +0.000 A 
ATOM     12  C   UNL     1      45.554   1.684   8.648  0.00  0.00    +0.000 A 
ATOM     13  C   UNL     1      46.294   2.079   7.535  0.00  0.00    +0.000 A 
ATOM     14  C   UNL     1      46.489   3.434   7.276  0.00  0.00    +0.000 A 
ATOM     15  C   UNL     1      45.940   4.396   8.124  0.00  0.00    +0.000 A 
ENDBRANCH   9  10
ENDBRANCH   8   9
ENDBRANCH   5   7
BRANCH   1  16
ATOM     16  C   UNL     1      49.786   8.995  12.249  0.00  0.00    +0.000 C 
BRANCH  16  17
ATOM     17  N   UNL     1      48.911  10.011  11.675  0.00  0.00    +0.000 NA
ATOM     18  H   UNL     1      48.167   9.557  11.149  0.00  0.00    +0.000 HD
ATOM     19  H   UNL     1      49.440  10.568  11.004  0.00  0.00    +0.000 HD
ENDBRANCH  16  17
ENDBRANCH   1  16
TORSDOF 5
ENDMDL
MODEL 9
REMARK VINA RESULT:    -5.502      2.514      7.313
REMARK INTER + INTRA:          -7.349
REMARK INTER:                  -6.839
REMARK INTRA:                  -0.509
REMARK UNBOUND:                -0.399
REMARK  Name = 
REMARK  5 active torsions:
REMARK  status: ('A' for Active; 'I' for Inactive)
REMARK    1  A    between atoms: N_1  and  C_2
REMARK    2  A    between atoms: C_2  and  C_3
REMARK    3  A    between atoms: C_7  and  C_8
REMARK    4  A    between atoms: C_9  and  C_10
REMARK    5  A    between atoms: C_10  and  C_11
REMARK                            x       y       z     vdW  Elec       q    Type
REMARK                         _______ _______ _______ _____ _____    ______ ____
ROOT
ATOM      1  C   UNL     1      45.284   3.922   8.704  0.00  0.00    +0.000 A 
ATOM      2  C   UNL     1      44.294   3.235   9.398  0.00  0.00    +0.000 A 
ATOM      3  N   UNL     1      43.802   3.620  10.596  0.00  0.00    +0.000 NA
ATOM      4  C   UNL     1      44.332   4.746  11.134  0.00  0.00    +0.000 A 
ATOM      5  C   UNL     1      45.331   5.514  10.542  0.00  0.00    +0.000 A 
ATOM      6  C   UNL     1      45.791   5.088   9.293  0.00  0.00    +0.000 A 
ENDROOT
BRANCH   5   7
ATOM      7  C   UNL     1      45.805   6.743  11.193  0.00  0.00    +0.000 C 
ATOM      8  C   UNL     1      45.599   7.043  12.487  0.00  0.00    +0.000 C 
BRANCH   8   9
ATOM      9  C   UNL     1      46.113   8.287  13.152  0.00  0.00    +0.000 C 
BRANCH   9  10
ATOM     10  C   UNL     1      45.938   9.520  12.297  0.00  0.00    +0.000 A 
ATOM     11  C   UNL     1      47.053  10.232  11.834  0.00  0.00    +0.000 A 
ATOM     12  C   UNL     1      46.888  11.370  11.041  0.00  0.00    +0.000 A 
ATOM     13  C   UNL     1      45.608  11.808  10.707  0.00  0.00    +0.000 A 
ATOM     14  C   UNL     1      44.493  11.116  11.173  0.00  0.00    +0.000 A 
ATOM     15  C   UNL     1      44.655   9.980  11.968  0.00  0.00    +0.000 A 
ENDBRANCH   9  10
ENDBRANCH   8   9
ENDBRANCH   5   7
BRANCH   1  16
ATOM     16  C   UNL     1      45.774   3.447   7.366  0.00  0.00    +0.000 C 
BRANCH  16  17
ATOM     17  N   UNL     1      46.887   4.259   6.885  0.00  0.00    +0.000 NA
ATOM     18  H   UNL     1      47.082   4.021   5.915  0.00  0.00    +0.000 HD
ATOM     19  H   UNL     1      47.725   4.022   7.414  0.00  0.00    +0.000 HD
ENDBRANCH  16  17
ENDBRANCH   1  16
TORSDOF 5
ENDMDL
