MODEL 1
REMARK VINA RESULT:    -7.777      0.000      0.000
REMARK INTER + INTRA:         -11.281
REMARK INTER:                 -10.505
REMARK INTRA:                  -0.776
REMARK UNBOUND:                -0.776
REMARK  Name = 
REMARK  6 active torsions:
REMARK  status: ('A' for Active; 'I' for Inactive)
REMARK    1  A    between atoms: C_2  and  C_4
REMARK    2  A    between atoms: C_7  and  O_8
REMARK    3  A    between atoms: O_8  and  C_9
REMARK    4  A    between atoms: C_9  and  C_10
REMARK    5  A    between atoms: C_10  and  C_11
REMARK    6  A    between atoms: C_16  and  N_17
REMARK                            x       y       z     vdW  Elec       q    Type
REMARK                         _______ _______ _______ _____ _____    ______ ____
ROOT
ATOM      1  C   UNL     1      43.798   4.453  12.584  0.00  0.00    +0.000 C 
ENDROOT
BRANCH   1   2
ATOM      2  C   UNL     1      45.194   4.997  12.787  0.00  0.00    +0.000 A 
ATOM      3  C   UNL     1      45.730   5.939  11.903  0.00  0.00    +0.000 A 
ATOM      4  C   UNL     1      47.005   6.456  12.123  0.00  0.00    +0.000 A 
ATOM      5  C   UNL     1      47.734   6.060  13.241  0.00  0.00    +0.000 A 
ATOM      6  F   UNL     1      48.965   6.579  13.392  0.00  0.00    +0.000 F 
ATOM      7  C   UNL     1      47.230   5.137  14.172  0.00  0.00    +0.000 A 
ATOM      8  C   UNL     1      45.954   4.605  13.905  0.00  0.00    +0.000 A 
BRANCH   7   9
ATOM      9  N   UNL     1      47.895   4.779  15.333  0.00  0.00    +0.000 N 
ATOM     10  C   UNL     1      47.736   3.448  15.938  0.00  0.00    +0.000 C 
ATOM     11  C   UNL     1      47.101   3.545  17.329  0.00  0.00    +0.000 C 
ATOM     12  O   UNL     1      47.812   4.470  18.171  0.00  0.00    +0.000 OA
ATOM     13  C   UNL     1      47.792   5.782  17.585  0.00  0.00    +0.000 C 
ATOM     14  C   UNL     1      48.482   5.802  16.209  0.00  0.00    +0.000 C 
ENDBRANCH   7   9
ENDBRANCH   1   2
BRANCH   1  15
ATOM     15  C   UNL     1      43.796   3.239  11.655  0.00  0.00    +0.000 C 
BRANCH  15  16
ATOM     16  O   UNL     1      43.551   3.650  10.301  0.00  0.00    +0.000 OA
BRANCH  16  20
ATOM     17  C   UNL     1      46.426   2.344   7.657  0.00  0.00    +0.000 A 
ATOM     18  C   UNL     1      46.126   3.702   7.638  0.00  0.00    +0.000 A 
ATOM     19  C   UNL     1      45.159   4.184   8.519  0.00  0.00    +0.000 A 
ATOM     20  C   UNL     1      44.520   3.309   9.395  0.00  0.00    +0.000 A 
ATOM     21  C   UNL     1      44.893   1.966   9.337  0.00  0.00    +0.000 A 
ATOM     22  N   UNL     1      45.828   1.455   8.493  0.00  0.00    +0.000 NA
BRANCH  17  24
ATOM     23  N   UNL     1      48.557   2.592   6.487  0.00  0.00    +0.000 N 
ATOM     24  C   UNL     1      47.455   1.812   6.709  0.00  0.00    +0.000 C 
ATOM     25  O   UNL     1      47.340   0.715   6.165  0.00  0.00    +0.000 OA
ATOM     26  H   UNL     1      49.296   2.217   5.910  0.00  0.00    +0.000 HD
ATOM     27  H   UNL     1      48.726   3.409   7.064  0.00  0.00    +0.000 HD
ENDBRANCH  17  24
ENDBRANCH  16  20
ENDBRANCH  15  16
ENDBRANCH   1  15
TORSDOF 6
ENDMDL
MODEL 2
REMARK VINA RESULT:    -7.539      1.896      2.404
REMARK INTER + INTRA:         -10.959
REMARK INTER:                 -10.178
REMARK INTRA:                  -0.781
REMARK UNBOUND:                -0.776
REMARK  Name = 
REMARK  6 active torsions:
REMARK  status: ('A' for Active; 'I' for Inactive)
REMARK    1  A    between atoms: C_2  and  C_4
REMARK    2  A    between atoms: C_7  and  O_8
REMARK    3  A    between atoms: O_8  and  C_9
REMARK    4  A    between atoms: C_9  and  C_10
REMARK    5  A    between atoms: C_10  and  C_11
REMARK    6  A    between atoms: C_16  and  N_17
REMARK                            x       y       z     vdW  Elec       q    Type
REMARK                         _______ _______ _______ _____ _____    ______ ____
ROOT
ATOM      1  C   UNL     1      43.533   4.282  12.523  0.00  0.00    +0.000 C 
ENDROOT
BRANCH   1   2
ATOM      2  C   UNL     1      44.475   5.448  12.324  0.00  0.00    +0.000 A 
ATOM      3  C   UNL     1      44.036   6.625  11.709  0.00  0.00    +0.000 A 
ATOM      4  C   UNL     1      44.905   7.703  11.562  0.00  0.00    +0.000 A 
ATOM      5  C   UNL     1      46.204   7.622  12.058  0.00  0.00    +0.000 A 
ATOM      6  F   UNL     1      47.004   8.686  11.873  0.00  0.00    +0.000 F 
ATOM      7  C   UNL     1      46.685   6.473  12.706  0.00  0.00    +0.000 A 
ATOM      8  C   UNL     1      45.795   5.386  12.808  0.00  0.00    +0.000 A 
BRANCH   7   9
ATOM      9  N   UNL     1      47.944   6.385  13.277  0.00  0.00    +0.000 N 
ATOM     10  C   UNL     1      48.129   6.257  14.730  0.00  0.00    +0.000 C 
ATOM     11  C   UNL     1      48.874   7.469  15.302  0.00  0.00    +0.000 C 
ATOM     12  O   UNL     1      50.101   7.717  14.594  0.00  0.00    +0.000 OA
ATOM     13  C   UNL     1      49.822   7.984  13.209  0.00  0.00    +0.000 C 
ATOM     14  C   UNL     1      49.141   6.786  12.524  0.00  0.00    +0.000 C 
ENDBRANCH   7   9
ENDBRANCH   1   2
BRANCH   1  15
ATOM     15  C   UNL     1      43.879   3.113  11.600  0.00  0.00    +0.000 C 
BRANCH  15  16
ATOM     16  O   UNL     1      43.577   3.450  10.237  0.00  0.00    +0.000 OA
BRANCH  16  20
ATOM     17  C   UNL     1      46.502   2.317   7.568  0.00  0.00    +0.000 A 
ATOM     18  C   UNL     1      46.163   3.667   7.594  0.00  0.00    +0.000 A 
ATOM     19  C   UNL     1      45.179   4.090   8.485  0.00  0.00    +0.000 A 
ATOM     20  C   UNL     1      44.560   3.168   9.327  0.00  0.00    +0.000 A 
ATOM     21  C   UNL     1      44.970   1.839   9.224  0.00  0.00    +0.000 A 
ATOM     22  N   UNL     1      45.925   1.383   8.369  0.00  0.00    +0.000 NA
BRANCH  17  24
ATOM     23  N   UNL     1      48.608   2.685   6.385  0.00  0.00    +0.000 N 
ATOM     24  C   UNL     1      47.550   1.847   6.609  0.00  0.00    +0.000 C 
ATOM     25  O   UNL     1      47.489   0.750   6.057  0.00  0.00    +0.000 OA
ATOM     26  H   UNL     1      49.362   2.354   5.800  0.00  0.00    +0.000 HD
ATOM     27  H   UNL     1      48.738   3.506   6.967  0.00  0.00    +0.000 HD
ENDBRANCH  17  24
ENDBRANCH  16  20
ENDBRANCH  15  16
ENDBRANCH   1  15
TORSDOF 6
ENDMDL
MODEL 3
REMARK VINA RESULT:    -7.403      2.344      3.356
REMARK INTER + INTRA:         -10.775
REMARK INTER:                  -9.927
REMARK INTRA:                  -0.849
REMARK UNBOUND:                -0.776
REMARK  Name = 
REMARK  6 active torsions:
REMARK  status: ('A' for Active; 'I' for Inactive)
REMARK    1  A    between atoms: C_2  and  C_4
REMARK    2  A    between atoms: C_7  and  O_8
REMARK    3  A    between atoms: O_8  and  C_9
REMARK    4  A    between atoms: C_9  and  C_10
REMARK    5  A    between atoms: C_10  and  C_11
REMARK    6  A    between atoms: C_16  and  N_17
REMARK                            x       y       z     vdW  Elec       q    Type
REMARK                         _______ _______ _______ _____ _____    ______ ____
ROOT
ATOM      1  C   UNL     1      43.891   4.934  12.083  0.00  0.00    +0.000 C 
ENDROOT
BRANCH   1   2
ATOM      2  C   UNL     1      45.203   5.364  12.700  0.00  0.00    +0.000 A 
ATOM      3  C   UNL     1      45.808   4.596  13.700  0.00  0.00    +0.000 A 
ATOM      4  C   UNL     1      47.033   4.987  14.235  0.00  0.00    +0.000 A 
ATOM      5  C   UNL     1      47.673   6.126  13.752  0.00  0.00    +0.000 A 
ATOM      6  F   UNL     1      48.844   6.465  14.317  0.00  0.00    +0.000 F 
ATOM      7  C   UNL     1      47.119   6.916  12.731  0.00  0.00    +0.000 A 
ATOM      8  C   UNL     1      45.863   6.517  12.235  0.00  0.00    +0.000 A 
BRANCH   7   9
ATOM      9  N   UNL     1      47.761   8.010  12.176  0.00  0.00    +0.000 N 
ATOM     10  C   UNL     1      49.038   7.877  11.458  0.00  0.00    +0.000 C 
ATOM     11  C   UNL     1      50.157   8.643  12.174  0.00  0.00    +0.000 C 
ATOM     12  O   UNL     1      49.785  10.010  12.423  0.00  0.00    +0.000 OA
ATOM     13  C   UNL     1      48.616  10.057  13.258  0.00  0.00    +0.000 C 
ATOM     14  C   UNL     1      47.410   9.377  12.586  0.00  0.00    +0.000 C 
ENDBRANCH   7   9
ENDBRANCH   1   2
BRANCH   1  15
ATOM     15  C   UNL     1      43.964   3.506  11.541  0.00  0.00    +0.000 C 
BRANCH  15  16
ATOM     16  O   UNL     1      43.561   3.477  10.163  0.00  0.00    +0.000 OA
BRANCH  16  20
ATOM     17  C   UNL     1      46.512   2.301   7.541  0.00  0.00    +0.000 A 
ATOM     18  C   UNL     1      46.147   3.644   7.515  0.00  0.00    +0.000 A 
ATOM     19  C   UNL     1      45.153   4.081   8.388  0.00  0.00    +0.000 A 
ATOM     20  C   UNL     1      44.551   3.180   9.264  0.00  0.00    +0.000 A 
ATOM     21  C   UNL     1      44.988   1.857   9.213  0.00  0.00    +0.000 A 
ATOM     22  N   UNL     1      45.953   1.388   8.377  0.00  0.00    +0.000 NA
BRANCH  17  24
ATOM     23  N   UNL     1      48.656   2.629   6.415  0.00  0.00    +0.000 N 
ATOM     24  C   UNL     1      47.571   1.816   6.601  0.00  0.00    +0.000 C 
ATOM     25  O   UNL     1      47.495   0.729   6.033  0.00  0.00    +0.000 OA
ATOM     26  H   UNL     1      49.415   2.285   5.844  0.00  0.00    +0.000 HD
ATOM     27  H   UNL     1      48.793   3.438   7.011  0.00  0.00    +0.000 HD
ENDBRANCH  17  24
ENDBRANCH  16  20
ENDBRANCH  15  16
ENDBRANCH   1  15
TORSDOF 6
ENDMDL
MODEL 4
REMARK VINA RESULT:    -6.873      3.121      7.823
REMARK INTER + INTRA:         -10.059
REMARK INTER:                  -9.389
REMARK INTRA:                  -0.671
REMARK UNBOUND:                -0.776
REMARK  Name = 
REMARK  6 active torsions:
REMARK  status: ('A' for Active; 'I' for Inactive)
REMARK    1  A    between atoms: C_2  and  C_4
REMARK    2  A    between atoms: C_7  and  O_8
REMARK    3  A    between atoms: O_8  and  C_9
REMARK    4  A    between atoms: C_9  and  C_10
REMARK    5  A    between atoms: C_10  and  C_11
REMARK    6  A    between atoms: C_16  and  N_17
REMARK                            x       y       z     vdW  Elec       q    Type
REMARK                         _______ _______ _______ _____ _____    ______ ____
ROOT
ATOM      1  C   UNL     1      47.783   5.916  14.442  0.00  0.00    +0.000 C 
ENDROOT
BRANCH   1   2
ATOM      2  C   UNL     1      46.731   6.466  13.506  0.00  0.00    +0.000 A 
ATOM      3  C   UNL     1      46.692   7.830  13.197  0.00  0.00    +0.000 A 
ATOM      4  C   UNL     1      45.737   8.317  12.308  0.00  0.00    +0.000 A 
ATOM      5  C   UNL     1      44.841   7.442  11.699  0.00  0.00    +0.000 A 
ATOM      6  F   UNL     1      43.931   7.971  10.863  0.00  0.00    +0.000 F 
ATOM      7  C   UNL     1      44.856   6.061  11.957  0.00  0.00    +0.000 A 
ATOM      8  C   UNL     1      45.808   5.603  12.887  0.00  0.00    +0.000 A 
BRANCH   7   9
ATOM      9  N   UNL     1      44.031   5.154  11.314  0.00  0.00    +0.000 N 
ATOM     10  C   UNL     1      43.055   4.336  12.051  0.00  0.00    +0.000 C 
ATOM     11  C   UNL     1      43.384   2.844  11.935  0.00  0.00    +0.000 C 
ATOM     12  O   UNL     1      43.539   2.442  10.563  0.00  0.00    +0.000 OA
ATOM     13  C   UNL     1      44.613   3.179   9.954  0.00  0.00    +0.000 C 
ATOM     14  C   UNL     1      44.336   4.692   9.953  0.00  0.00    +0.000 C 
ENDBRANCH   7   9
ENDBRANCH   1   2
BRANCH   1  15
ATOM     15  C   UNL     1      47.302   4.648  15.149  0.00  0.00    +0.000 C 
BRANCH  15  16
ATOM     16  O   UNL     1      47.679   4.679  16.534  0.00  0.00    +0.000 OA
BRANCH  16  20
ATOM     17  C   UNL     1      50.903   2.254  17.365  0.00  0.00    +0.000 A 
ATOM     18  C   UNL     1      50.974   3.570  17.812  0.00  0.00    +0.000 A 
ATOM     19  C   UNL     1      49.903   4.422  17.552  0.00  0.00    +0.000 A 
ATOM     20  C   UNL     1      48.789   3.948  16.861  0.00  0.00    +0.000 A 
ATOM     21  C   UNL     1      48.814   2.613  16.456  0.00  0.00    +0.000 A 
ATOM     22  N   UNL     1      49.839   1.749  16.688  0.00  0.00    +0.000 NA
BRANCH  17  24
ATOM     23  N   UNL     1      51.753   0.100  18.144  0.00  0.00    +0.000 N 
ATOM     24  C   UNL     1      52.051   1.332  17.630  0.00  0.00    +0.000 C 
ATOM     25  O   UNL     1      53.214   1.644  17.379  0.00  0.00    +0.000 OA
ATOM     26  H   UNL     1      52.507  -0.563  18.258  0.00  0.00    +0.000 HD
ATOM     27  H   UNL     1      50.789  -0.212  18.188  0.00  0.00    +0.000 HD
ENDBRANCH  17  24
ENDBRANCH  16  20
ENDBRANCH  15  16
ENDBRANCH   1  15
TORSDOF 6
ENDMDL
MODEL 5
REMARK VINA RESULT:    -6.846      2.351      8.031
REMARK INTER + INTRA:         -10.023
REMARK INTER:                  -9.210
REMARK INTRA:                  -0.813
REMARK UNBOUND:                -0.776
REMARK  Name = 
REMARK  6 active torsions:
REMARK  status: ('A' for Active; 'I' for Inactive)
REMARK    1  A    between atoms: C_2  and  C_4
REMARK    2  A    between atoms: C_7  and  O_8
REMARK    3  A    between atoms: O_8  and  C_9
REMARK    4  A    between atoms: C_9  and  C_10
REMARK    5  A    between atoms: C_10  and  C_11
REMARK    6  A    between atoms: C_16  and  N_17
REMARK                            x       y       z     vdW  Elec       q    Type
REMARK                         _______ _______ _______ _____ _____    ______ ____
ROOT
ATOM      1  C   UNL     1      45.601   7.178  11.869  0.00  0.00    +0.000 C 
ENDROOT
BRANCH   1   2
ATOM      2  C   UNL     1      44.943   5.822  11.752  0.00  0.00    +0.000 A 
ATOM      3  C   UNL     1      44.151   5.319  12.789  0.00  0.00    +0.000 A 
ATOM      4  C   UNL     1      43.525   4.083  12.653  0.00  0.00    +0.000 A 
ATOM      5  C   UNL     1      43.659   3.360  11.470  0.00  0.00    +0.000 A 
ATOM      6  F   UNL     1      43.045   2.166  11.401  0.00  0.00    +0.000 F 
ATOM      7  C   UNL     1      44.422   3.833  10.390  0.00  0.00    +0.000 A 
ATOM      8  C   UNL     1      45.073   5.068  10.570  0.00  0.00    +0.000 A 
BRANCH   7   9
ATOM      9  N   UNL     1      44.516   3.178   9.174  0.00  0.00    +0.000 N 
ATOM     10  C   UNL     1      44.822   1.742   9.088  0.00  0.00    +0.000 C 
ATOM     11  C   UNL     1      46.154   1.503   8.368  0.00  0.00    +0.000 C 
ATOM     12  O   UNL     1      46.192   2.168   7.093  0.00  0.00    +0.000 OA
ATOM     13  C   UNL     1      46.038   3.586   7.274  0.00  0.00    +0.000 C 
ATOM     14  C   UNL     1      44.687   3.932   7.924  0.00  0.00    +0.000 C 
ENDBRANCH   7   9
ENDBRANCH   1   2
BRANCH   1  15
ATOM     15  C   UNL     1      46.411   7.302  13.160  0.00  0.00    +0.000 C 
BRANCH  15  16
ATOM     16  O   UNL     1      47.484   6.348  13.168  0.00  0.00    +0.000 OA
BRANCH  16  20
ATOM     17  C   UNL     1      48.340   4.673  16.832  0.00  0.00    +0.000 A 
ATOM     18  C   UNL     1      47.369   4.038  16.062  0.00  0.00    +0.000 A 
ATOM     19  C   UNL     1      47.053   4.574  14.816  0.00  0.00    +0.000 A 
ATOM     20  C   UNL     1      47.707   5.718  14.363  0.00  0.00    +0.000 A 
ATOM     21  C   UNL     1      48.664   6.278  15.209  0.00  0.00    +0.000 A 
ATOM     22  N   UNL     1      49.003   5.790  16.432  0.00  0.00    +0.000 NA
BRANCH  17  24
ATOM     23  N   UNL     1      49.476   3.000  18.203  0.00  0.00    +0.000 N 
ATOM     24  C   UNL     1      48.683   4.114  18.177  0.00  0.00    +0.000 C 
ATOM     25  O   UNL     1      48.296   4.635  19.221  0.00  0.00    +0.000 OA
ATOM     26  H   UNL     1      49.780   2.653  19.102  0.00  0.00    +0.000 HD
ATOM     27  H   UNL     1      49.928   2.678  17.354  0.00  0.00    +0.000 HD
ENDBRANCH  17  24
ENDBRANCH  16  20
ENDBRANCH  15  16
ENDBRANCH   1  15
TORSDOF 6
ENDMDL
MODEL 6
REMARK VINA RESULT:    -6.689      2.821      7.694
REMARK INTER + INTRA:          -9.811
REMARK INTER:                  -8.846
REMARK INTRA:                  -0.965
REMARK UNBOUND:                -0.776
REMARK  Name = 
REMARK  6 active torsions:
REMARK  status: ('A' for Active; 'I' for Inactive)
REMARK    1  A    between atoms: C_2  and  C_4
REMARK    2  A    between atoms: C_7  and  O_8
REMARK    3  A    between atoms: O_8  and  C_9
REMARK    4  A    between atoms: C_9  and  C_10
REMARK    5  A    between atoms: C_10  and  C_11
REMARK    6  A    between atoms: C_16  and  N_17
REMARK                            x       y       z     vdW  Elec       q    Type
REMARK                         _______ _______ _______ _____ _____    ______ ____
ROOT
ATOM      1  C   UNL     1      48.598   8.644  12.449  0.00  0.00    +0.000 C 
ENDROOT
BRANCH   1   2
ATOM      2  C   UNL     1      47.191   8.178  12.151  0.00  0.00    +0.000 A 
ATOM      3  C   UNL     1      46.130   9.088  12.108  0.00  0.00    +0.000 A 
ATOM      4  C   UNL     1      44.845   8.649  11.800  0.00  0.00    +0.000 A 
ATOM      5  C   UNL     1      44.620   7.307  11.501  0.00  0.00    +0.000 A 
ATOM      6  F   UNL     1      43.357   6.938  11.228  0.00  0.00    +0.000 F 
ATOM      7  C   UNL     1      45.656   6.359  11.505  0.00  0.00    +0.000 A 
ATOM      8  C   UNL     1      46.937   6.825  11.856  0.00  0.00    +0.000 A 
BRANCH   7   9
ATOM      9  N   UNL     1      45.483   5.034  11.141  0.00  0.00    +0.000 N 
ATOM     10  C   UNL     1      45.364   4.627   9.733  0.00  0.00    +0.000 C 
ATOM     11  C   UNL     1      43.989   4.010   9.449  0.00  0.00    +0.000 C 
ATOM     12  O   UNL     1      43.685   2.951  10.373  0.00  0.00    +0.000 OA
ATOM     13  C   UNL     1      43.670   3.462  11.717  0.00  0.00    +0.000 C 
ATOM     14  C   UNL     1      45.039   4.035  12.123  0.00  0.00    +0.000 C 
ENDBRANCH   7   9
ENDBRANCH   1   2
BRANCH   1  15
ATOM     15  C   UNL     1      49.339   7.658  13.352  0.00  0.00    +0.000 C 
BRANCH  15  16
ATOM     16  O   UNL     1      49.137   8.001  14.732  0.00  0.00    +0.000 OA
BRANCH  16  20
ATOM     17  C   UNL     1      48.023   4.728  16.972  0.00  0.00    +0.000 A 
ATOM     18  C   UNL     1      48.676   5.757  17.644  0.00  0.00    +0.000 A 
ATOM     19  C   UNL     1      49.068   6.882  16.921  0.00  0.00    +0.000 A 
ATOM     20  C   UNL     1      48.800   6.960  15.556  0.00  0.00    +0.000 A 
ATOM     21  C   UNL     1      48.140   5.877  14.976  0.00  0.00    +0.000 A 
ATOM     22  N   UNL     1      47.741   4.761  15.643  0.00  0.00    +0.000 NA
BRANCH  17  24
ATOM     23  N   UNL     1      48.362   3.168  18.821  0.00  0.00    +0.000 N 
ATOM     24  C   UNL     1      47.605   3.510  17.734  0.00  0.00    +0.000 C 
ATOM     25  O   UNL     1      46.616   2.850  17.423  0.00  0.00    +0.000 OA
ATOM     26  H   UNL     1      48.052   2.394  19.391  0.00  0.00    +0.000 HD
ATOM     27  H   UNL     1      49.068   3.807  19.170  0.00  0.00    +0.000 HD
ENDBRANCH  17  24
ENDBRANCH  16  20
ENDBRANCH  15  16
ENDBRANCH   1  15
TORSDOF 6
ENDMDL
MODEL 7
REMARK VINA RESULT:    -6.262      3.579      5.413
REMARK INTER + INTRA:          -9.234
REMARK INTER:                  -8.394
REMARK INTRA:                  -0.840
REMARK UNBOUND:                -0.776
REMARK  Name = 
REMARK  6 active torsions:
REMARK  status: ('A' for Active; 'I' for Inactive)
REMARK    1  A    between atoms: C_2  and  C_4
REMARK    2  A    between atoms: C_7  and  O_8
REMARK    3  A    between atoms: O_8  and  C_9
REMARK    4  A    between atoms: C_9  and  C_10
REMARK    5  A    between atoms: C_10  and  C_11
REMARK    6  A    between atoms: C_16  and  N_17
REMARK                            x       y       z     vdW  Elec       q    Type
REMARK                         _______ _______ _______ _____ _____    ______ ____
ROOT
ATOM      1  C   UNL     1      49.385   8.037  14.822  0.00  0.00    +0.000 C 
ENDROOT
BRANCH   1   2
ATOM      2  C   UNL     1      49.030   7.509  16.193  0.00  0.00    +0.000 A 
ATOM      3  C   UNL     1      48.462   8.348  17.157  0.00  0.00    +0.000 A 
ATOM      4  C   UNL     1      48.108   7.840  18.404  0.00  0.00    +0.000 A 
ATOM      5  C   UNL     1      48.290   6.487  18.683  0.00  0.00    +0.000 A 
ATOM      6  F   UNL     1      47.946   6.056  19.908  0.00  0.00    +0.000 F 
ATOM      7  C   UNL     1      48.832   5.599  17.739  0.00  0.00    +0.000 A 
ATOM      8  C   UNL     1      49.213   6.148  16.500  0.00  0.00    +0.000 A 
BRANCH   7   9
ATOM      9  N   UNL     1      48.957   4.236  17.954  0.00  0.00    +0.000 N 
ATOM     10  C   UNL     1      50.238   3.626  18.338  0.00  0.00    +0.000 C 
ATOM     11  C   UNL     1      50.731   2.651  17.262  0.00  0.00    +0.000 C 
ATOM     12  O   UNL     1      49.721   1.684  16.923  0.00  0.00    +0.000 OA
ATOM     13  C   UNL     1      48.555   2.352  16.413  0.00  0.00    +0.000 C 
ATOM     14  C   UNL     1      47.939   3.300  17.456  0.00  0.00    +0.000 C 
ENDBRANCH   7   9
ENDBRANCH   1   2
BRANCH   1  15
ATOM     15  C   UNL     1      48.324   7.671  13.783  0.00  0.00    +0.000 C 
BRANCH  15  16
ATOM     16  O   UNL     1      48.474   6.301  13.381  0.00  0.00    +0.000 OA
BRANCH  16  20
ATOM     17  C   UNL     1      45.072   4.260  12.276  0.00  0.00    +0.000 A 
ATOM     18  C   UNL     1      45.376   5.410  11.555  0.00  0.00    +0.000 A 
ATOM     19  C   UNL     1      46.520   6.128  11.898  0.00  0.00    +0.000 A 
ATOM     20  C   UNL     1      47.332   5.686  12.940  0.00  0.00    +0.000 A 
ATOM     21  C   UNL     1      46.941   4.522  13.600  0.00  0.00    +0.000 A 
ATOM     22  N   UNL     1      45.833   3.792  13.300  0.00  0.00    +0.000 NA
BRANCH  17  24
ATOM     23  N   UNL     1      43.676   2.271  12.533  0.00  0.00    +0.000 N 
ATOM     24  C   UNL     1      43.840   3.484  11.925  0.00  0.00    +0.000 C 
ATOM     25  O   UNL     1      42.995   3.917  11.144  0.00  0.00    +0.000 OA
ATOM     26  H   UNL     1      42.816   1.768  12.367  0.00  0.00    +0.000 HD
ATOM     27  H   UNL     1      44.285   1.999  13.298  0.00  0.00    +0.000 HD
ENDBRANCH  17  24
ENDBRANCH  16  20
ENDBRANCH  15  16
ENDBRANCH   1  15
TORSDOF 6
ENDMDL
MODEL 8
REMARK VINA RESULT:    -6.255      3.086      8.499
REMARK INTER + INTRA:          -9.224
REMARK INTER:                  -8.566
REMARK INTRA:                  -0.658
REMARK UNBOUND:                -0.776
REMARK  Name = 
REMARK  6 active torsions:
REMARK  status: ('A' for Active; 'I' for Inactive)
REMARK    1  A    between atoms: C_2  and  C_4
REMARK    2  A    between atoms: C_7  and  O_8
REMARK    3  A    between atoms: O_8  and  C_9
REMARK    4  A    between atoms: C_9  and  C_10
REMARK    5  A    between atoms: C_10  and  C_11
REMARK    6  A    between atoms: C_16  and  N_17
REMARK                            x       y       z     vdW  Elec       q    Type
REMARK                         _______ _______ _______ _____ _____    ______ ____
ROOT
ATOM      1  C   UNL     1      48.666   6.861  12.637  0.00  0.00    +0.000 C 
ENDROOT
BRANCH   1   2
ATOM      2  C   UNL     1      47.246   7.204  12.248  0.00  0.00    +0.000 A 
ATOM      3  C   UNL     1      46.788   8.525  12.304  0.00  0.00    +0.000 A 
ATOM      4  C   UNL     1      45.487   8.830  11.911  0.00  0.00    +0.000 A 
ATOM      5  C   UNL     1      44.651   7.826  11.430  0.00  0.00    +0.000 A 
ATOM      6  F   UNL     1      43.401   8.176  11.081  0.00  0.00    +0.000 F 
ATOM      7  C   UNL     1      45.072   6.490  11.329  0.00  0.00    +0.000 A 
ATOM      8  C   UNL     1      46.379   6.205  11.767  0.00  0.00    +0.000 A 
BRANCH   7   9
ATOM      9  N   UNL     1      44.294   5.481  10.785  0.00  0.00    +0.000 N 
ATOM     10  C   UNL     1      43.035   5.050  11.411  0.00  0.00    +0.000 C 
ATOM     11  C   UNL     1      43.117   3.591  11.872  0.00  0.00    +0.000 C 
ATOM     12  O   UNL     1      43.547   2.724  10.807  0.00  0.00    +0.000 OA
ATOM     13  C   UNL     1      44.853   3.117  10.352  0.00  0.00    +0.000 C 
ATOM     14  C   UNL     1      44.854   4.551   9.794  0.00  0.00    +0.000 C 
ENDBRANCH   7   9
ENDBRANCH   1   2
BRANCH   1  15
ATOM     15  C   UNL     1      48.863   6.908  14.152  0.00  0.00    +0.000 C 
BRANCH  15  16
ATOM     16  O   UNL     1      48.353   5.710  14.757  0.00  0.00    +0.000 OA
BRANCH  16  20
ATOM     17  C   UNL     1      48.181   5.413  18.861  0.00  0.00    +0.000 A 
ATOM     18  C   UNL     1      48.834   6.525  18.339  0.00  0.00    +0.000 A 
ATOM     19  C   UNL     1      48.912   6.662  16.954  0.00  0.00    +0.000 A 
ATOM     20  C   UNL     1      48.340   5.699  16.126  0.00  0.00    +0.000 A 
ATOM     21  C   UNL     1      47.707   4.623  16.748  0.00  0.00    +0.000 A 
ATOM     22  N   UNL     1      47.609   4.449  18.093  0.00  0.00    +0.000 NA
BRANCH  17  24
ATOM     23  N   UNL     1      46.971   5.718  20.962  0.00  0.00    +0.000 N 
ATOM     24  C   UNL     1      48.098   5.248  20.347  0.00  0.00    +0.000 C 
ATOM     25  O   UNL     1      48.986   4.697  20.995  0.00  0.00    +0.000 OA
ATOM     26  H   UNL     1      46.863   5.549  21.952  0.00  0.00    +0.000 HD
ATOM     27  H   UNL     1      46.175   6.015  20.407  0.00  0.00    +0.000 HD
ENDBRANCH  17  24
ENDBRANCH  16  20
ENDBRANCH  15  16
ENDBRANCH   1  15
TORSDOF 6
ENDMDL
MODEL 9
REMARK VINA RESULT:    -5.986      3.543      7.767
REMARK INTER + INTRA:          -8.861
REMARK INTER:                  -7.946
REMARK INTRA:                  -0.915
REMARK UNBOUND:                -0.776
REMARK  Name = 
REMARK  6 active torsions:
REMARK  status: ('A' for Active; 'I' for Inactive)
REMARK    1  A    between atoms: C_2  and  C_4
REMARK    2  A    between atoms: C_7  and  O_8
REMARK    3  A    between atoms: O_8  and  C_9
REMARK    4  A    between atoms: C_9  and  C_10
REMARK    5  A    between atoms: C_10  and  C_11
REMARK    6  A    between atoms: C_16  and  N_17
REMARK                            x       y       z     vdW  Elec       q    Type
REMARK                         _______ _______ _______ _____ _____    ______ ____
ROOT
ATOM      1  C   UNL     1      49.427   7.701  14.806  0.00  0.00    +0.000 C 
ENDROOT
BRANCH   1   2
ATOM      2  C   UNL     1      48.526   7.326  13.652  0.00  0.00    +0.000 A 
ATOM      3  C   UNL     1      48.804   7.767  12.354  0.00  0.00    +0.000 A 
ATOM      4  C   UNL     1      47.983   7.386  11.296  0.00  0.00    +0.000 A 
ATOM      5  C   UNL     1      46.902   6.537  11.523  0.00  0.00    +0.000 A 
ATOM      6  F   UNL     1      46.135   6.216  10.468  0.00  0.00    +0.000 F 
ATOM      7  C   UNL     1      46.596   6.046  12.803  0.00  0.00    +0.000 A 
ATOM      8  C   UNL     1      47.422   6.477  13.859  0.00  0.00    +0.000 A 
BRANCH   7   9
ATOM      9  N   UNL     1      45.577   5.142  13.053  0.00  0.00    +0.000 N 
ATOM     10  C   UNL     1      45.772   3.692  12.901  0.00  0.00    +0.000 C 
ATOM     11  C   UNL     1      44.868   3.125  11.800  0.00  0.00    +0.000 C 
ATOM     12  O   UNL     1      43.493   3.494  12.003  0.00  0.00    +0.000 OA
ATOM     13  C   UNL     1      43.362   4.926  11.987  0.00  0.00    +0.000 C 
ATOM     14  C   UNL     1      44.177   5.585  13.114  0.00  0.00    +0.000 C 
ENDBRANCH   7   9
ENDBRANCH   1   2
BRANCH   1  15
ATOM     15  C   UNL     1      48.640   7.870  16.105  0.00  0.00    +0.000 C 
BRANCH  15  16
ATOM     16  O   UNL     1      49.472   7.561  17.234  0.00  0.00    +0.000 OA
BRANCH  16  20
ATOM     17  C   UNL     1      50.620   3.607  17.334  0.00  0.00    +0.000 A 
ATOM     18  C   UNL     1      51.627   4.557  17.467  0.00  0.00    +0.000 A 
ATOM     19  C   UNL     1      51.279   5.906  17.440  0.00  0.00    +0.000 A 
ATOM     20  C   UNL     1      49.945   6.277  17.286  0.00  0.00    +0.000 A 
ATOM     21  C   UNL     1      49.010   5.249  17.162  0.00  0.00    +0.000 A 
ATOM     22  N   UNL     1      49.307   3.922  17.182  0.00  0.00    +0.000 NA
BRANCH  17  24
ATOM     23  N   UNL     1      51.985   1.774  18.200  0.00  0.00    +0.000 N 
ATOM     24  C   UNL     1      50.981   2.154  17.352  0.00  0.00    +0.000 C 
ATOM     25  O   UNL     1      50.395   1.325  16.658  0.00  0.00    +0.000 OA
ATOM     26  H   UNL     1      52.192   0.789  18.281  0.00  0.00    +0.000 HD
ATOM     27  H   UNL     1      52.344   2.428  18.887  0.00  0.00    +0.000 HD
ENDBRANCH  17  24
ENDBRANCH  16  20
ENDBRANCH  15  16
ENDBRANCH   1  15
TORSDOF 6
ENDMDL
