MODEL 1
REMARK VINA RESULT:    -8.074      0.000      0.000
REMARK INTER + INTRA:         -11.979
REMARK INTER:                 -10.906
REMARK INTRA:                  -1.073
REMARK UNBOUND:                -1.073
REMARK  Name = 
REMARK  6 active torsions:
REMARK  status: ('A' for Active; 'I' for Inactive)
REMARK    1  A    between atoms: C_2  and  C_20
REMARK    2  A    between atoms: N_3  and  C_4
REMARK    3  A    between atoms: C_4  and  C_5
REMARK    4  A    between atoms: C_8  and  C_9
REMARK    5  A    between atoms: C_9  and  C_10
REMARK    6  A    between atoms: C_10  and  N_11
REMARK                            x       y       z     vdW  Elec       q    Type
REMARK                         _______ _______ _______ _____ _____    ______ ____
ROOT
ATOM      1  C   UNL     1      46.887   7.803  13.158  0.00  0.00    +0.000 C 
ENDROOT
BRANCH   1   2
ATOM      2  C   UNL     1      46.126   6.640  12.579  0.00  0.00    +0.000 A 
ATOM      3  C   UNL     1      46.141   6.422  11.200  0.00  0.00    +0.000 A 
ATOM      4  C   UNL     1      45.450   5.346  10.644  0.00  0.00    +0.000 A 
ATOM      5  C   UNL     1      44.717   4.458  11.448  0.00  0.00    +0.000 A 
ATOM      6  C   UNL     1      44.702   4.684  12.832  0.00  0.00    +0.000 A 
ATOM      7  C   UNL     1      45.391   5.769  13.391  0.00  0.00    +0.000 A 
BRANCH   5   8
ATOM      8  C   UNL     1      43.949   3.274  10.882  0.00  0.00    +0.000 C 
BRANCH   8   9
ATOM      9  C   UNL     1      44.232   2.986   9.404  0.00  0.00    +0.000 C 
BRANCH   9  10
ATOM     10  N   UNL     1      45.118   1.822   9.211  0.00  0.00    +0.000 N 
ATOM     11  C   UNL     1      45.932   2.007   8.071  0.00  0.00    +0.000 A 
ATOM     12  C   UNL     1      46.853   1.021   7.701  0.00  0.00    +0.000 A 
ATOM     13  C   UNL     1      47.663   1.238   6.586  0.00  0.00    +0.000 A 
ATOM     14  C   UNL     1      47.506   2.401   5.851  0.00  0.00    +0.000 A 
ATOM     15  C   UNL     1      46.565   3.315   6.279  0.00  0.00    +0.000 A 
ATOM     16  N   UNL     1      45.792   3.142   7.353  0.00  0.00    +0.000 NA
ATOM     17  H   UNL     1      44.594   0.970   9.041  0.00  0.00    +0.000 HD
ENDBRANCH   9  10
ENDBRANCH   8   9
ENDBRANCH   5   8
ENDBRANCH   1   2
BRANCH   1  20
ATOM     18  O   UNL     1      49.455   6.785  13.547  0.00  0.00    +0.000 OA
ATOM     19  C   UNL     1      48.757   7.033  14.522  0.00  0.00    +0.000 C 
ATOM     20  N   UNL     1      47.470   7.502  14.433  0.00  0.00    +0.000 N 
ATOM     21  H   UNL     1      47.036   7.928  15.246  0.00  0.00    +0.000 HD
BRANCH  19  22
ATOM     22  C   UNL     1      49.236   6.811  15.888  0.00  0.00    +0.000 A 
ATOM     23  C   UNL     1      50.087   7.701  16.532  0.00  0.00    +0.000 A 
ATOM     24  S   UNL     1      50.456   7.221  18.134  0.00  0.00    +0.000 S 
ATOM     25  C   UNL     1      49.488   5.827  18.004  0.00  0.00    +0.000 A 
ATOM     26  N   UNL     1      49.353   4.955  19.036  0.00  0.00    +0.000 NA
ATOM     27  C   UNL     1      48.572   3.955  18.790  0.00  0.00    +0.000 A 
ATOM     28  N   UNL     1      47.915   3.747  17.604  0.00  0.00    +0.000 N 
ATOM     29  C   UNL     1      48.058   4.555  16.503  0.00  0.00    +0.000 A 
ATOM     30  O   UNL     1      47.578   4.246  15.431  0.00  0.00    +0.000 OA
ATOM     31  C   UNL     1      48.907   5.717  16.755  0.00  0.00    +0.000 A 
ATOM     32  H   UNL     1      47.352   2.922  17.466  0.00  0.00    +0.000 HD
ENDBRANCH  19  22
ENDBRANCH   1  20
TORSDOF 6
ENDMDL
MODEL 2
REMARK VINA RESULT:    -8.036      1.339      1.501
REMARK INTER + INTRA:         -11.928
REMARK INTER:                 -11.125
REMARK INTRA:                  -0.802
REMARK UNBOUND:                -1.073
REMARK  Name = 
REMARK  6 active torsions:
REMARK  status: ('A' for Active; 'I' for Inactive)
REMARK    1  A    between atoms: C_2  and  C_20
REMARK    2  A    between atoms: N_3  and  C_4
REMARK    3  A    between atoms: C_4  and  C_5
REMARK    4  A    between atoms: C_8  and  C_9
REMARK    5  A    between atoms: C_9  and  C_10
REMARK    6  A    between atoms: C_10  and  N_11
REMARK                            x       y       z     vdW  Elec       q    Type
REMARK                         _______ _______ _______ _____ _____    ______ ____
ROOT
ATOM      1  C   UNL     1      48.252   6.732  13.654  0.00  0.00    +0.000 C 
ENDROOT
BRANCH   1   2
ATOM      2  C   UNL     1      47.176   5.888  13.024  0.00  0.00    +0.000 A 
ATOM      3  C   UNL     1      46.547   6.327  11.858  0.00  0.00    +0.000 A 
ATOM      4  C   UNL     1      45.554   5.557  11.253  0.00  0.00    +0.000 A 
ATOM      5  C   UNL     1      45.154   4.327  11.800  0.00  0.00    +0.000 A 
ATOM      6  C   UNL     1      45.785   3.893  12.975  0.00  0.00    +0.000 A 
ATOM      7  C   UNL     1      46.778   4.669  13.585  0.00  0.00    +0.000 A 
BRANCH   5   8
ATOM      8  C   UNL     1      44.074   3.458  11.174  0.00  0.00    +0.000 C 
BRANCH   8   9
ATOM      9  C   UNL     1      44.266   3.192   9.677  0.00  0.00    +0.000 C 
BRANCH   9  10
ATOM     10  N   UNL     1      45.029   1.958   9.412  0.00  0.00    +0.000 N 
ATOM     11  C   UNL     1      45.855   2.124   8.278  0.00  0.00    +0.000 A 
ATOM     12  C   UNL     1      46.670   1.072   7.846  0.00  0.00    +0.000 A 
ATOM     13  C   UNL     1      47.497   1.269   6.740  0.00  0.00    +0.000 A 
ATOM     14  C   UNL     1      47.457   2.482   6.072  0.00  0.00    +0.000 A 
ATOM     15  C   UNL     1      46.615   3.461   6.559  0.00  0.00    +0.000 A 
ATOM     16  N   UNL     1      45.830   3.307   7.627  0.00  0.00    +0.000 NA
ATOM     17  H   UNL     1      44.420   1.174   9.198  0.00  0.00    +0.000 HD
ENDBRANCH   9  10
ENDBRANCH   8   9
ENDBRANCH   5   8
ENDBRANCH   1   2
BRANCH   1  20
ATOM     18  O   UNL     1      50.353   6.590  15.482  0.00  0.00    +0.000 OA
ATOM     19  C   UNL     1      49.217   6.781  15.894  0.00  0.00    +0.000 C 
ATOM     20  N   UNL     1      48.114   6.830  15.078  0.00  0.00    +0.000 N 
ATOM     21  H   UNL     1      47.252   7.239  15.427  0.00  0.00    +0.000 HD
BRANCH  19  22
ATOM     22  C   UNL     1      48.931   6.937  17.322  0.00  0.00    +0.000 A 
ATOM     23  C   UNL     1      48.549   8.154  17.875  0.00  0.00    +0.000 A 
ATOM     24  S   UNL     1      48.235   8.047  19.555  0.00  0.00    +0.000 S 
ATOM     25  C   UNL     1      48.595   6.383  19.577  0.00  0.00    +0.000 A 
ATOM     26  N   UNL     1      48.521   5.654  20.721  0.00  0.00    +0.000 NA
ATOM     27  C   UNL     1      48.806   4.403  20.574  0.00  0.00    +0.000 A 
ATOM     28  N   UNL     1      49.161   3.813  19.387  0.00  0.00    +0.000 N 
ATOM     29  C   UNL     1      49.314   4.504  18.211  0.00  0.00    +0.000 A 
ATOM     30  O   UNL     1      49.776   3.969  17.223  0.00  0.00    +0.000 OA
ATOM     31  C   UNL     1      48.965   5.918  18.330  0.00  0.00    +0.000 A 
ATOM     32  H   UNL     1      49.410   2.837  19.352  0.00  0.00    +0.000 HD
ENDBRANCH  19  22
ENDBRANCH   1  20
TORSDOF 6
ENDMDL
MODEL 3
REMARK VINA RESULT:    -7.826      1.967      2.532
REMARK INTER + INTRA:         -11.645
REMARK INTER:                 -10.739
REMARK INTRA:                  -0.905
REMARK UNBOUND:                -1.073
REMARK  Name = 
REMARK  6 active torsions:
REMARK  status: ('A' for Active; 'I' for Inactive)
REMARK    1  A    between atoms: C_2  and  C_20
REMARK    2  A    between atoms: N_3  and  C_4
REMARK    3  A    between atoms: C_4  and  C_5
REMARK    4  A    between atoms: C_8  and  C_9
REMARK    5  A    between atoms: C_9  and  C_10
REMARK    6  A    between atoms: C_10  and  N_11
REMARK                            x       y       z     vdW  Elec       q    Type
REMARK                         _______ _______ _______ _____ _____    ______ ____
ROOT
ATOM      1  C   UNL     1      48.063   6.816  13.784  0.00  0.00    +0.000 C 
ENDROOT
BRANCH   1   2
ATOM      2  C   UNL     1      46.976   6.173  12.966  0.00  0.00    +0.000 A 
ATOM      3  C   UNL     1      46.604   6.739  11.744  0.00  0.00    +0.000 A 
ATOM      4  C   UNL     1      45.606   6.155  10.965  0.00  0.00    +0.000 A 
ATOM      5  C   UNL     1      44.941   4.992  11.387  0.00  0.00    +0.000 A 
ATOM      6  C   UNL     1      45.313   4.431  12.618  0.00  0.00    +0.000 A 
ATOM      7  C   UNL     1      46.313   5.020  13.402  0.00  0.00    +0.000 A 
BRANCH   5   8
ATOM      8  C   UNL     1      43.845   4.325  10.571  0.00  0.00    +0.000 C 
BRANCH   8   9
ATOM      9  C   UNL     1      44.351   3.296   9.554  0.00  0.00    +0.000 C 
BRANCH   9  10
ATOM     10  N   UNL     1      44.955   3.923   8.363  0.00  0.00    +0.000 N 
ATOM     11  C   UNL     1      45.837   3.021   7.726  0.00  0.00    +0.000 A 
ATOM     12  C   UNL     1      46.521   3.411   6.569  0.00  0.00    +0.000 A 
ATOM     13  C   UNL     1      47.366   2.494   5.944  0.00  0.00    +0.000 A 
ATOM     14  C   UNL     1      47.541   1.241   6.506  0.00  0.00    +0.000 A 
ATOM     15  C   UNL     1      46.837   0.943   7.656  0.00  0.00    +0.000 A 
ATOM     16  N   UNL     1      46.006   1.794   8.262  0.00  0.00    +0.000 NA
ATOM     17  H   UNL     1      45.516   4.734   8.604  0.00  0.00    +0.000 HD
ENDBRANCH   9  10
ENDBRANCH   8   9
ENDBRANCH   5   8
ENDBRANCH   1   2
BRANCH   1  20
ATOM     18  O   UNL     1      50.238   6.548  15.510  0.00  0.00    +0.000 OA
ATOM     19  C   UNL     1      49.105   6.407  15.951  0.00  0.00    +0.000 C 
ATOM     20  N   UNL     1      47.974   6.484  15.177  0.00  0.00    +0.000 N 
ATOM     21  H   UNL     1      47.072   6.616  15.622  0.00  0.00    +0.000 HD
BRANCH  19  22
ATOM     22  C   UNL     1      48.861   6.103  17.364  0.00  0.00    +0.000 A 
ATOM     23  C   UNL     1      49.110   4.849  17.908  0.00  0.00    +0.000 A 
ATOM     24  S   UNL     1      48.779   4.778  19.586  0.00  0.00    +0.000 S 
ATOM     25  C   UNL     1      48.306   6.413  19.622  0.00  0.00    +0.000 A 
ATOM     26  N   UNL     1      47.898   7.011  20.772  0.00  0.00    +0.000 NA
ATOM     27  C   UNL     1      47.588   8.259  20.642  0.00  0.00    +0.000 A 
ATOM     28  N   UNL     1      47.646   8.963  19.466  0.00  0.00    +0.000 N 
ATOM     29  C   UNL     1      47.988   8.403  18.260  0.00  0.00    +0.000 A 
ATOM     30  O   UNL     1      47.877   9.027  17.224  0.00  0.00    +0.000 OA
ATOM     31  C   UNL     1      48.380   7.000  18.373  0.00  0.00    +0.000 A 
ATOM     32  H   UNL     1      47.350   9.926  19.428  0.00  0.00    +0.000 HD
ENDBRANCH  19  22
ENDBRANCH   1  20
TORSDOF 6
ENDMDL
MODEL 4
REMARK VINA RESULT:    -7.274      1.704      2.081
REMARK INTER + INTRA:         -10.898
REMARK INTER:                  -9.881
REMARK INTRA:                  -1.018
REMARK UNBOUND:                -1.073
REMARK  Name = 
REMARK  6 active torsions:
REMARK  status: ('A' for Active; 'I' for Inactive)
REMARK    1  A    between atoms: C_2  and  C_20
REMARK    2  A    between atoms: N_3  and  C_4
REMARK    3  A    between atoms: C_4  and  C_5
REMARK    4  A    between atoms: C_8  and  C_9
REMARK    5  A    between atoms: C_9  and  C_10
REMARK    6  A    between atoms: C_10  and  N_11
REMARK                            x       y       z     vdW  Elec       q    Type
REMARK                         _______ _______ _______ _____ _____    ______ ____
ROOT
ATOM      1  C   UNL     1      48.521   7.513  12.774  0.00  0.00    +0.000 C 
ENDROOT
BRANCH   1   2
ATOM      2  C   UNL     1      47.335   6.589  12.723  0.00  0.00    +0.000 A 
ATOM      3  C   UNL     1      47.351   5.402  13.458  0.00  0.00    +0.000 A 
ATOM      4  C   UNL     1      46.259   4.536  13.433  0.00  0.00    +0.000 A 
ATOM      5  C   UNL     1      45.118   4.825  12.666  0.00  0.00    +0.000 A 
ATOM      6  C   UNL     1      45.109   6.016  11.925  0.00  0.00    +0.000 A 
ATOM      7  C   UNL     1      46.208   6.884  11.946  0.00  0.00    +0.000 A 
BRANCH   5   8
ATOM      8  C   UNL     1      43.908   3.908  12.609  0.00  0.00    +0.000 C 
BRANCH   8   9
ATOM      9  C   UNL     1      43.414   3.600  11.191  0.00  0.00    +0.000 C 
BRANCH   9  10
ATOM     10  N   UNL     1      44.027   2.382  10.628  0.00  0.00    +0.000 N 
ATOM     11  C   UNL     1      44.841   2.708   9.520  0.00  0.00    +0.000 A 
ATOM     12  C   UNL     1      45.523   1.699   8.831  0.00  0.00    +0.000 A 
ATOM     13  C   UNL     1      46.341   2.048   7.757  0.00  0.00    +0.000 A 
ATOM     14  C   UNL     1      46.423   3.377   7.373  0.00  0.00    +0.000 A 
ATOM     15  C   UNL     1      45.708   4.306   8.100  0.00  0.00    +0.000 A 
ATOM     16  N   UNL     1      44.935   4.001   9.144  0.00  0.00    +0.000 NA
ATOM     17  H   UNL     1      43.329   1.733  10.276  0.00  0.00    +0.000 HD
ENDBRANCH   9  10
ENDBRANCH   8   9
ENDBRANCH   5   8
ENDBRANCH   1   2
BRANCH   1  20
ATOM     18  O   UNL     1      48.901   8.415  15.386  0.00  0.00    +0.000 OA
ATOM     19  C   UNL     1      49.629   7.535  14.947  0.00  0.00    +0.000 C 
ATOM     20  N   UNL     1      49.545   7.050  13.666  0.00  0.00    +0.000 N 
ATOM     21  H   UNL     1      49.984   6.164  13.436  0.00  0.00    +0.000 HD
BRANCH  19  22
ATOM     22  C   UNL     1      50.695   6.941  15.759  0.00  0.00    +0.000 A 
ATOM     23  C   UNL     1      52.028   7.307  15.618  0.00  0.00    +0.000 A 
ATOM     24  S   UNL     1      53.057   6.491  16.718  0.00  0.00    +0.000 S 
ATOM     25  C   UNL     1      51.750   5.642  17.403  0.00  0.00    +0.000 A 
ATOM     26  N   UNL     1      51.930   4.759  18.419  0.00  0.00    +0.000 NA
ATOM     27  C   UNL     1      50.842   4.207  18.844  0.00  0.00    +0.000 A 
ATOM     28  N   UNL     1      49.589   4.457  18.344  0.00  0.00    +0.000 N 
ATOM     29  C   UNL     1      49.347   5.290  17.280  0.00  0.00    +0.000 A 
ATOM     30  O   UNL     1      48.244   5.361  16.776  0.00  0.00    +0.000 OA
ATOM     31  C   UNL     1      50.551   5.960  16.794  0.00  0.00    +0.000 A 
ATOM     32  H   UNL     1      48.786   3.960  18.697  0.00  0.00    +0.000 HD
ENDBRANCH  19  22
ENDBRANCH   1  20
TORSDOF 6
ENDMDL
MODEL 5
REMARK VINA RESULT:    -7.184      2.903      8.531
REMARK INTER + INTRA:         -10.777
REMARK INTER:                  -9.440
REMARK INTRA:                  -1.337
REMARK UNBOUND:                -1.073
REMARK  Name = 
REMARK  6 active torsions:
REMARK  status: ('A' for Active; 'I' for Inactive)
REMARK    1  A    between atoms: C_2  and  C_20
REMARK    2  A    between atoms: N_3  and  C_4
REMARK    3  A    between atoms: C_4  and  C_5
REMARK    4  A    between atoms: C_8  and  C_9
REMARK    5  A    between atoms: C_9  and  C_10
REMARK    6  A    between atoms: C_10  and  N_11
REMARK                            x       y       z     vdW  Elec       q    Type
REMARK                         _______ _______ _______ _____ _____    ______ ____
ROOT
ATOM      1  C   UNL     1      47.680   7.693  11.898  0.00  0.00    +0.000 C 
ENDROOT
BRANCH   1   2
ATOM      2  C   UNL     1      48.184   7.918  13.298  0.00  0.00    +0.000 A 
ATOM      3  C   UNL     1      49.295   7.207  13.756  0.00  0.00    +0.000 A 
ATOM      4  C   UNL     1      49.784   7.407  15.046  0.00  0.00    +0.000 A 
ATOM      5  C   UNL     1      49.173   8.319  15.923  0.00  0.00    +0.000 A 
ATOM      6  C   UNL     1      48.054   9.027  15.460  0.00  0.00    +0.000 A 
ATOM      7  C   UNL     1      47.560   8.822  14.165  0.00  0.00    +0.000 A 
BRANCH   5   8
ATOM      8  C   UNL     1      49.672   8.565  17.337  0.00  0.00    +0.000 C 
BRANCH   8   9
ATOM      9  C   UNL     1      49.465   7.387  18.295  0.00  0.00    +0.000 C 
BRANCH   9  10
ATOM     10  N   UNL     1      48.152   6.737  18.122  0.00  0.00    +0.000 N 
ATOM     11  C   UNL     1      48.316   5.368  17.818  0.00  0.00    +0.000 A 
ATOM     12  C   UNL     1      47.194   4.557  17.613  0.00  0.00    +0.000 A 
ATOM     13  C   UNL     1      47.381   3.202  17.339  0.00  0.00    +0.000 A 
ATOM     14  C   UNL     1      48.669   2.704  17.233  0.00  0.00    +0.000 A 
ATOM     15  C   UNL     1      49.719   3.576  17.438  0.00  0.00    +0.000 A 
ATOM     16  N   UNL     1      49.568   4.871  17.721  0.00  0.00    +0.000 NA
ATOM     17  H   UNL     1      47.632   7.133  17.345  0.00  0.00    +0.000 HD
ENDBRANCH   9  10
ENDBRANCH   8   9
ENDBRANCH   5   8
ENDBRANCH   1   2
BRANCH   1  20
ATOM     18  O   UNL     1      44.900   7.501  11.788  0.00  0.00    +0.000 OA
ATOM     19  C   UNL     1      45.572   6.484  11.689  0.00  0.00    +0.000 C 
ATOM     20  N   UNL     1      46.942   6.470  11.767  0.00  0.00    +0.000 N 
ATOM     21  H   UNL     1      47.454   5.661  11.428  0.00  0.00    +0.000 HD
BRANCH  19  22
ATOM     22  C   UNL     1      44.954   5.167  11.513  0.00  0.00    +0.000 A 
ATOM     23  C   UNL     1      44.244   4.537  12.529  0.00  0.00    +0.000 A 
ATOM     24  S   UNL     1      43.593   3.029  12.043  0.00  0.00    +0.000 S 
ATOM     25  C   UNL     1      44.237   3.189  10.475  0.00  0.00    +0.000 A 
ATOM     26  N   UNL     1      44.047   2.234   9.527  0.00  0.00    +0.000 NA
ATOM     27  C   UNL     1      44.582   2.507   8.383  0.00  0.00    +0.000 A 
ATOM     28  N   UNL     1      45.291   3.646   8.100  0.00  0.00    +0.000 N 
ATOM     29  C   UNL     1      45.570   4.618   9.028  0.00  0.00    +0.000 A 
ATOM     30  O   UNL     1      46.329   5.532   8.772  0.00  0.00    +0.000 OA
ATOM     31  C   UNL     1      44.952   4.362  10.327  0.00  0.00    +0.000 A 
ATOM     32  H   UNL     1      45.716   3.776   7.195  0.00  0.00    +0.000 HD
ENDBRANCH  19  22
ENDBRANCH   1  20
TORSDOF 6
ENDMDL
MODEL 6
REMARK VINA RESULT:    -7.157      4.740      9.262
REMARK INTER + INTRA:         -10.740
REMARK INTER:                  -9.955
REMARK INTRA:                  -0.786
REMARK UNBOUND:                -1.073
REMARK  Name = 
REMARK  6 active torsions:
REMARK  status: ('A' for Active; 'I' for Inactive)
REMARK    1  A    between atoms: C_2  and  C_20
REMARK    2  A    between atoms: N_3  and  C_4
REMARK    3  A    between atoms: C_4  and  C_5
REMARK    4  A    between atoms: C_8  and  C_9
REMARK    5  A    between atoms: C_9  and  C_10
REMARK    6  A    between atoms: C_10  and  N_11
REMARK                            x       y       z     vdW  Elec       q    Type
REMARK                         _______ _______ _______ _____ _____    ______ ____
ROOT
ATOM      1  C   UNL     1      47.296   3.462  16.798  0.00  0.00    +0.000 C 
ENDROOT
BRANCH   1   2
ATOM      2  C   UNL     1      48.765   3.451  17.123  0.00  0.00    +0.000 A 
ATOM      3  C   UNL     1      49.398   4.636  17.503  0.00  0.00    +0.000 A 
ATOM      4  C   UNL     1      50.757   4.646  17.817  0.00  0.00    +0.000 A 
ATOM      5  C   UNL     1      51.527   3.473  17.753  0.00  0.00    +0.000 A 
ATOM      6  C   UNL     1      50.888   2.287  17.366  0.00  0.00    +0.000 A 
ATOM      7  C   UNL     1      49.524   2.277  17.045  0.00  0.00    +0.000 A 
BRANCH   5   8
ATOM      8  C   UNL     1      53.010   3.441  18.085  0.00  0.00    +0.000 C 
BRANCH   8   9
ATOM      9  C   UNL     1      53.552   2.050  18.427  0.00  0.00    +0.000 C 
BRANCH   9  10
ATOM     10  N   UNL     1      54.228   1.405  17.285  0.00  0.00    +0.000 N 
ATOM     11  C   UNL     1      54.382   0.021  17.520  0.00  0.00    +0.000 A 
ATOM     12  C   UNL     1      55.001  -0.788  16.561  0.00  0.00    +0.000 A 
ATOM     13  C   UNL     1      55.118  -2.156  16.805  0.00  0.00    +0.000 A 
ATOM     14  C   UNL     1      54.660  -2.671  18.007  0.00  0.00    +0.000 A 
ATOM     15  C   UNL     1      54.074  -1.800  18.903  0.00  0.00    +0.000 A 
ATOM     16  N   UNL     1      53.930  -0.491  18.685  0.00  0.00    +0.000 NA
ATOM     17  H   UNL     1      55.166   1.768  17.145  0.00  0.00    +0.000 HD
ENDBRANCH   9  10
ENDBRANCH   8   9
ENDBRANCH   5   8
ENDBRANCH   1   2
BRANCH   1  20
ATOM     18  O   UNL     1      47.314   3.146  14.026  0.00  0.00    +0.000 OA
ATOM     19  C   UNL     1      46.957   4.215  14.502  0.00  0.00    +0.000 C 
ATOM     20  N   UNL     1      46.948   4.480  15.849  0.00  0.00    +0.000 N 
ATOM     21  H   UNL     1      46.412   5.268  16.200  0.00  0.00    +0.000 HD
BRANCH  19  22
ATOM     22  C   UNL     1      46.538   5.334  13.654  0.00  0.00    +0.000 A 
ATOM     23  C   UNL     1      47.357   6.431  13.412  0.00  0.00    +0.000 A 
ATOM     24  S   UNL     1      46.639   7.571  12.355  0.00  0.00    +0.000 S 
ATOM     25  C   UNL     1      45.232   6.626  12.194  0.00  0.00    +0.000 A 
ATOM     26  N   UNL     1      44.194   7.022  11.414  0.00  0.00    +0.000 NA
ATOM     27  C   UNL     1      43.206   6.191  11.380  0.00  0.00    +0.000 A 
ATOM     28  N   UNL     1      43.159   5.000  12.058  0.00  0.00    +0.000 N 
ATOM     29  C   UNL     1      44.147   4.571  12.911  0.00  0.00    +0.000 A 
ATOM     30  O   UNL     1      43.994   3.585  13.605  0.00  0.00    +0.000 OA
ATOM     31  C   UNL     1      45.298   5.469  12.948  0.00  0.00    +0.000 A 
ATOM     32  H   UNL     1      42.338   4.416  12.018  0.00  0.00    +0.000 HD
ENDBRANCH  19  22
ENDBRANCH   1  20
TORSDOF 6
ENDMDL
MODEL 7
REMARK VINA RESULT:    -7.115      2.567      4.475
REMARK INTER + INTRA:         -10.684
REMARK INTER:                 -10.133
REMARK INTRA:                  -0.550
REMARK UNBOUND:                -1.073
REMARK  Name = 
REMARK  6 active torsions:
REMARK  status: ('A' for Active; 'I' for Inactive)
REMARK    1  A    between atoms: C_2  and  C_20
REMARK    2  A    between atoms: N_3  and  C_4
REMARK    3  A    between atoms: C_4  and  C_5
REMARK    4  A    between atoms: C_8  and  C_9
REMARK    5  A    between atoms: C_9  and  C_10
REMARK    6  A    between atoms: C_10  and  N_11
REMARK                            x       y       z     vdW  Elec       q    Type
REMARK                         _______ _______ _______ _____ _____    ______ ____
ROOT
ATOM      1  C   UNL     1      47.539   5.777  14.821  0.00  0.00    +0.000 C 
ENDROOT
BRANCH   1   2
ATOM      2  C   UNL     1      46.582   5.095  13.882  0.00  0.00    +0.000 A 
ATOM      3  C   UNL     1      46.766   3.748  13.566  0.00  0.00    +0.000 A 
ATOM      4  C   UNL     1      45.886   3.094  12.705  0.00  0.00    +0.000 A 
ATOM      5  C   UNL     1      44.799   3.768  12.125  0.00  0.00    +0.000 A 
ATOM      6  C   UNL     1      44.622   5.124  12.440  0.00  0.00    +0.000 A 
ATOM      7  C   UNL     1      45.509   5.782  13.302  0.00  0.00    +0.000 A 
BRANCH   5   8
ATOM      8  C   UNL     1      43.819   3.094  11.179  0.00  0.00    +0.000 C 
BRANCH   8   9
ATOM      9  C   UNL     1      44.273   3.060   9.716  0.00  0.00    +0.000 C 
BRANCH   9  10
ATOM     10  N   UNL     1      45.027   1.837   9.383  0.00  0.00    +0.000 N 
ATOM     11  C   UNL     1      45.867   2.064   8.269  0.00  0.00    +0.000 A 
ATOM     12  C   UNL     1      46.676   1.032   7.781  0.00  0.00    +0.000 A 
ATOM     13  C   UNL     1      47.515   1.288   6.697  0.00  0.00    +0.000 A 
ATOM     14  C   UNL     1      47.493   2.540   6.104  0.00  0.00    +0.000 A 
ATOM     15  C   UNL     1      46.655   3.496   6.641  0.00  0.00    +0.000 A 
ATOM     16  N   UNL     1      45.859   3.284   7.691  0.00  0.00    +0.000 NA
ATOM     17  H   UNL     1      44.414   1.073   9.115  0.00  0.00    +0.000 HD
ENDBRANCH   9  10
ENDBRANCH   8   9
ENDBRANCH   5   8
ENDBRANCH   1   2
BRANCH   1  20
ATOM     18  O   UNL     1      49.214   6.483  12.705  0.00  0.00    +0.000 OA
ATOM     19  C   UNL     1      48.655   7.365  13.343  0.00  0.00    +0.000 C 
ATOM     20  N   UNL     1      47.842   7.122  14.422  0.00  0.00    +0.000 N 
ATOM     21  H   UNL     1      47.212   7.848  14.748  0.00  0.00    +0.000 HD
BRANCH  19  22
ATOM     22  C   UNL     1      48.842   8.783  13.024  0.00  0.00    +0.000 A 
ATOM     23  C   UNL     1      50.093   9.389  13.034  0.00  0.00    +0.000 A 
ATOM     24  S   UNL     1      50.031  11.040  12.583  0.00  0.00    +0.000 S 
ATOM     25  C   UNL     1      48.345  10.978  12.360  0.00  0.00    +0.000 A 
ATOM     26  N   UNL     1      47.639  12.068  11.964  0.00  0.00    +0.000 NA
ATOM     27  C   UNL     1      46.372  11.859  11.822  0.00  0.00    +0.000 A 
ATOM     28  N   UNL     1      45.745  10.660  12.043  0.00  0.00    +0.000 N 
ATOM     29  C   UNL     1      46.390   9.538  12.503  0.00  0.00    +0.000 A 
ATOM     30  O   UNL     1      45.769   8.546  12.829  0.00  0.00    +0.000 OA
ATOM     31  C   UNL     1      47.832   9.726  12.642  0.00  0.00    +0.000 A 
ATOM     32  H   UNL     1      44.744  10.578  11.951  0.00  0.00    +0.000 HD
ENDBRANCH  19  22
ENDBRANCH   1  20
TORSDOF 6
ENDMDL
MODEL 8
REMARK VINA RESULT:    -6.999      3.676      4.447
REMARK INTER + INTRA:         -10.527
REMARK INTER:                  -9.381
REMARK INTRA:                  -1.145
REMARK UNBOUND:                -1.073
REMARK  Name = 
REMARK  6 active torsions:
REMARK  status: ('A' for Active; 'I' for Inactive)
REMARK    1  A    between atoms: C_2  and  C_20
REMARK    2  A    between atoms: N_3  and  C_4
REMARK    3  A    between atoms: C_4  and  C_5
REMARK    4  A    between atoms: C_8  and  C_9
REMARK    5  A    between atoms: C_9  and  C_10
REMARK    6  A    between atoms: C_10  and  N_11
REMARK                            x       y       z     vdW  Elec       q    Type
REMARK                         _______ _______ _______ _____ _____    ______ ____
ROOT
ATOM      1  C   UNL     1      45.937   8.989  12.859  0.00  0.00    +0.000 C 
ENDROOT
BRANCH   1   2
ATOM      2  C   UNL     1      45.609   7.561  12.518  0.00  0.00    +0.000 A 
ATOM      3  C   UNL     1      44.667   7.286  11.525  0.00  0.00    +0.000 A 
ATOM      4  C   UNL     1      44.355   5.969  11.187  0.00  0.00    +0.000 A 
ATOM      5  C   UNL     1      44.968   4.886  11.837  0.00  0.00    +0.000 A 
ATOM      6  C   UNL     1      45.909   5.168  12.839  0.00  0.00    +0.000 A 
ATOM      7  C   UNL     1      46.219   6.490  13.182  0.00  0.00    +0.000 A 
BRANCH   5   8
ATOM      8  C   UNL     1      44.655   3.437  11.501  0.00  0.00    +0.000 C 
BRANCH   8   9
ATOM      9  C   UNL     1      44.432   3.168  10.009  0.00  0.00    +0.000 C 
BRANCH   9  10
ATOM     10  N   UNL     1      45.027   1.892   9.567  0.00  0.00    +0.000 N 
ATOM     11  C   UNL     1      45.852   2.099   8.438  0.00  0.00    +0.000 A 
ATOM     12  C   UNL     1      46.520   1.018   7.852  0.00  0.00    +0.000 A 
ATOM     13  C   UNL     1      47.349   1.252   6.755  0.00  0.00    +0.000 A 
ATOM     14  C   UNL     1      47.456   2.536   6.248  0.00  0.00    +0.000 A 
ATOM     15  C   UNL     1      46.753   3.542   6.879  0.00  0.00    +0.000 A 
ATOM     16  N   UNL     1      45.970   3.350   7.943  0.00  0.00    +0.000 NA
ATOM     17  H   UNL     1      44.321   1.225   9.273  0.00  0.00    +0.000 HD
ENDBRANCH   9  10
ENDBRANCH   8   9
ENDBRANCH   5   8
ENDBRANCH   1   2
BRANCH   1  20
ATOM     18  O   UNL     1      48.128   9.592  14.476  0.00  0.00    +0.000 OA
ATOM     19  C   UNL     1      48.255   9.633  13.260  0.00  0.00    +0.000 C 
ATOM     20  N   UNL     1      47.229   9.388  12.382  0.00  0.00    +0.000 N 
ATOM     21  H   UNL     1      47.440   9.184  11.410  0.00  0.00    +0.000 HD
BRANCH  19  22
ATOM     22  C   UNL     1      49.529   9.989  12.630  0.00  0.00    +0.000 A 
ATOM     23  C   UNL     1      50.058  11.273  12.696  0.00  0.00    +0.000 A 
ATOM     24  S   UNL     1      51.575  11.404  11.913  0.00  0.00    +0.000 S 
ATOM     25  C   UNL     1      51.560   9.758  11.478  0.00  0.00    +0.000 A 
ATOM     26  N   UNL     1      52.582   9.197  10.780  0.00  0.00    +0.000 NA
ATOM     27  C   UNL     1      52.433   7.936  10.541  0.00  0.00    +0.000 A 
ATOM     28  N   UNL     1      51.356   7.185  10.934  0.00  0.00    +0.000 N 
ATOM     29  C   UNL     1      50.264   7.703  11.586  0.00  0.00    +0.000 A 
ATOM     30  O   UNL     1      49.269   7.033  11.777  0.00  0.00    +0.000 OA
ATOM     31  C   UNL     1      50.411   9.122  11.905  0.00  0.00    +0.000 A 
ATOM     32  H   UNL     1      51.286   6.212  10.677  0.00  0.00    +0.000 HD
ENDBRANCH  19  22
ENDBRANCH   1  20
TORSDOF 6
ENDMDL
MODEL 9
REMARK VINA RESULT:    -6.864      3.964      8.742
REMARK INTER + INTRA:         -10.344
REMARK INTER:                  -9.318
REMARK INTRA:                  -1.027
REMARK UNBOUND:                -1.073
REMARK  Name = 
REMARK  6 active torsions:
REMARK  status: ('A' for Active; 'I' for Inactive)
REMARK    1  A    between atoms: C_2  and  C_20
REMARK    2  A    between atoms: N_3  and  C_4
REMARK    3  A    between atoms: C_4  and  C_5
REMARK    4  A    between atoms: C_8  and  C_9
REMARK    5  A    between atoms: C_9  and  C_10
REMARK    6  A    between atoms: C_10  and  N_11
REMARK                            x       y       z     vdW  Elec       q    Type
REMARK                         _______ _______ _______ _____ _____    ______ ____
ROOT
ATOM      1  C   UNL     1      47.271   3.423  16.759  0.00  0.00    +0.000 C 
ENDROOT
BRANCH   1   2
ATOM      2  C   UNL     1      48.733   3.460  17.115  0.00  0.00    +0.000 A 
ATOM      3  C   UNL     1      49.315   4.662  17.519  0.00  0.00    +0.000 A 
ATOM      4  C   UNL     1      50.666   4.717  17.862  0.00  0.00    +0.000 A 
ATOM      5  C   UNL     1      51.479   3.574  17.803  0.00  0.00    +0.000 A 
ATOM      6  C   UNL     1      50.890   2.369  17.391  0.00  0.00    +0.000 A 
ATOM      7  C   UNL     1      49.535   2.315  17.041  0.00  0.00    +0.000 A 
BRANCH   5   8
ATOM      8  C   UNL     1      52.955   3.591  18.166  0.00  0.00    +0.000 C 
BRANCH   8   9
ATOM      9  C   UNL     1      53.622   4.964  18.036  0.00  0.00    +0.000 C 
BRANCH   9  10
ATOM     10  N   UNL     1      54.517   5.054  16.866  0.00  0.00    +0.000 N 
ATOM     11  C   UNL     1      54.136   6.132  16.036  0.00  0.00    +0.000 A 
ATOM     12  C   UNL     1      54.852   6.401  14.865  0.00  0.00    +0.000 A 
ATOM     13  C   UNL     1      54.473   7.487  14.076  0.00  0.00    +0.000 A 
ATOM     14  C   UNL     1      53.372   8.242  14.447  0.00  0.00    +0.000 A 
ATOM     15  C   UNL     1      52.715   7.899  15.611  0.00  0.00    +0.000 A 
ATOM     16  N   UNL     1      53.070   6.879  16.395  0.00  0.00    +0.000 NA
ATOM     17  H   UNL     1      54.463   4.224  16.283  0.00  0.00    +0.000 HD
ENDBRANCH   9  10
ENDBRANCH   8   9
ENDBRANCH   5   8
ENDBRANCH   1   2
BRANCH   1  20
ATOM     18  O   UNL     1      47.218   3.122  13.986  0.00  0.00    +0.000 OA
ATOM     19  C   UNL     1      46.878   4.190  14.477  0.00  0.00    +0.000 C 
ATOM     20  N   UNL     1      46.904   4.448  15.825  0.00  0.00    +0.000 N 
ATOM     21  H   UNL     1      46.380   5.235  16.194  0.00  0.00    +0.000 HD
BRANCH  19  22
ATOM     22  C   UNL     1      46.442   5.316  13.646  0.00  0.00    +0.000 A 
ATOM     23  C   UNL     1      47.218   6.456  13.473  0.00  0.00    +0.000 A 
ATOM     24  S   UNL     1      46.492   7.596  12.421  0.00  0.00    +0.000 S 
ATOM     25  C   UNL     1      45.139   6.593  12.171  0.00  0.00    +0.000 A 
ATOM     26  N   UNL     1      44.116   6.966  11.359  0.00  0.00    +0.000 NA
ATOM     27  C   UNL     1      43.170   6.092  11.257  0.00  0.00    +0.000 A 
ATOM     28  N   UNL     1      43.152   4.879  11.896  0.00  0.00    +0.000 N 
ATOM     29  C   UNL     1      44.122   4.468  12.777  0.00  0.00    +0.000 A 
ATOM     30  O   UNL     1      43.987   3.455  13.433  0.00  0.00    +0.000 OA
ATOM     31  C   UNL     1      45.228   5.417  12.891  0.00  0.00    +0.000 A 
ATOM     32  H   UNL     1      42.361   4.260  11.803  0.00  0.00    +0.000 HD
ENDBRANCH  19  22
ENDBRANCH   1  20
TORSDOF 6
ENDMDL
