MODEL 1
REMARK VINA RESULT:    -7.996      0.000      0.000
REMARK INTER + INTRA:         -11.436
REMARK INTER:                 -10.567
REMARK INTRA:                  -0.869
REMARK UNBOUND:                -0.869
REMARK  Name = 
REMARK  6 active torsions:
REMARK  status: ('A' for Active; 'I' for Inactive)
REMARK    1  A    between atoms: C_2  and  O_3
REMARK    2  A    between atoms: C_2  and  C_4
REMARK    3  A    between atoms: C_7  and  N_8
REMARK    4  A    between atoms: N_8  and  C_9
REMARK    5  A    between atoms: C_9  and  C_10
REMARK    6  A    between atoms: C_14  and  N_15
REMARK                            x       y       z     vdW  Elec       q    Type
REMARK                         _______ _______ _______ _____ _____    ______ ____
ROOT
ATOM      1  N   UNL     1      43.765   4.505   9.762  0.00  0.00    +0.000 N 
ATOM      2  H   UNL     1      43.740   5.502   9.557  0.00  0.00    +0.000 HD
ENDROOT
BRANCH   1   6
ATOM      3  C   UNL     1      46.749   2.566   7.482  0.00  0.00    +0.000 A 
ATOM      4  C   UNL     1      46.635   3.960   7.495  0.00  0.00    +0.000 A 
ATOM      5  C   UNL     1      45.653   4.578   8.281  0.00  0.00    +0.000 A 
ATOM      6  C   UNL     1      44.782   3.825   9.082  0.00  0.00    +0.000 A 
ATOM      7  C   UNL     1      44.921   2.427   9.038  0.00  0.00    +0.000 A 
ATOM      8  F   UNL     1      44.119   1.629   9.763  0.00  0.00    +0.000 F 
ATOM      9  C   UNL     1      45.898   1.798   8.276  0.00  0.00    +0.000 A 
BRANCH   3  11
ATOM     10  O   UNL     1      47.704   0.794   6.231  0.00  0.00    +0.000 OA
ATOM     11  C   UNL     1      47.793   1.939   6.646  0.00  0.00    +0.000 C 
BRANCH  11  12
ATOM     12  O   UNL     1      48.863   2.728   6.415  0.00  0.00    +0.000 OA
ATOM     13  H   UNL     1      48.666   3.673   6.280  0.00  0.00    +0.000 HD
ENDBRANCH  11  12
ENDBRANCH   3  11
ENDBRANCH   1   6
BRANCH   1  14
ATOM     14  C   UNL     1      43.522   4.206  11.170  0.00  0.00    +0.000 C 
BRANCH  14  15
ATOM     15  C   UNL     1      44.728   4.583  11.993  0.00  0.00    +0.000 A 
ATOM     16  C   UNL     1      45.504   3.598  12.612  0.00  0.00    +0.000 A 
ATOM     17  C   UNL     1      46.612   3.963  13.365  0.00  0.00    +0.000 A 
ATOM     18  C   UNL     1      46.945   5.312  13.505  0.00  0.00    +0.000 A 
ATOM     19  C   UNL     1      46.184   6.333  12.916  0.00  0.00    +0.000 A 
ATOM     20  C   UNL     1      45.070   5.937  12.166  0.00  0.00    +0.000 A 
BRANCH  19  21
ATOM     21  N   UNL     1      46.557   7.652  13.036  0.00  0.00    +0.000 N 
ATOM     22  C   UNL     1      45.617   8.770  12.878  0.00  0.00    +0.000 C 
ATOM     23  C   UNL     1      46.313   9.888  12.078  0.00  0.00    +0.000 C 
ATOM     24  O   UNL     1      47.563  10.285  12.671  0.00  0.00    +0.000 OA
ATOM     25  C   UNL     1      48.454   9.158  12.768  0.00  0.00    +0.000 C 
ATOM     26  C   UNL     1      47.844   8.043  13.628  0.00  0.00    +0.000 C 
ENDBRANCH  19  21
ENDBRANCH  14  15
ENDBRANCH   1  14
TORSDOF 6
ENDMDL
MODEL 2
REMARK VINA RESULT:    -7.874      1.950      2.923
REMARK INTER + INTRA:         -11.274
REMARK INTER:                 -10.481
REMARK INTRA:                  -0.794
REMARK UNBOUND:                -0.869
REMARK  Name = 
REMARK  6 active torsions:
REMARK  status: ('A' for Active; 'I' for Inactive)
REMARK    1  A    between atoms: C_2  and  O_3
REMARK    2  A    between atoms: C_2  and  C_4
REMARK    3  A    between atoms: C_7  and  N_8
REMARK    4  A    between atoms: N_8  and  C_9
REMARK    5  A    between atoms: C_9  and  C_10
REMARK    6  A    between atoms: C_14  and  N_15
REMARK                            x       y       z     vdW  Elec       q    Type
REMARK                         _______ _______ _______ _____ _____    ______ ____
ROOT
ATOM      1  N   UNL     1      43.783   4.631   9.658  0.00  0.00    +0.000 N 
ATOM      2  H   UNL     1      43.703   5.584   9.310  0.00  0.00    +0.000 HD
ENDROOT
BRANCH   1   6
ATOM      3  C   UNL     1      46.673   2.478   7.448  0.00  0.00    +0.000 A 
ATOM      4  C   UNL     1      46.588   3.872   7.370  0.00  0.00    +0.000 A 
ATOM      5  C   UNL     1      45.638   4.563   8.134  0.00  0.00    +0.000 A 
ATOM      6  C   UNL     1      44.770   3.885   9.002  0.00  0.00    +0.000 A 
ATOM      7  C   UNL     1      44.879   2.484   9.050  0.00  0.00    +0.000 A 
ATOM      8  F   UNL     1      44.078   1.754   9.843  0.00  0.00    +0.000 F 
ATOM      9  C   UNL     1      45.825   1.784   8.310  0.00  0.00    +0.000 A 
BRANCH   3  11
ATOM     10  O   UNL     1      47.493   0.663   6.165  0.00  0.00    +0.000 OA
ATOM     11  C   UNL     1      47.684   1.774   6.634  0.00  0.00    +0.000 C 
BRANCH  11  12
ATOM     12  O   UNL     1      48.842   2.450   6.486  0.00  0.00    +0.000 OA
ATOM     13  H   UNL     1      49.170   2.527   5.571  0.00  0.00    +0.000 HD
ENDBRANCH  11  12
ENDBRANCH   3  11
ENDBRANCH   1   6
BRANCH   1  14
ATOM     14  C   UNL     1      43.663   4.539  11.109  0.00  0.00    +0.000 C 
BRANCH  14  15
ATOM     15  C   UNL     1      44.641   5.479  11.768  0.00  0.00    +0.000 A 
ATOM     16  C   UNL     1      44.653   6.838  11.439  0.00  0.00    +0.000 A 
ATOM     17  C   UNL     1      45.560   7.690  12.057  0.00  0.00    +0.000 A 
ATOM     18  C   UNL     1      46.458   7.186  12.999  0.00  0.00    +0.000 A 
ATOM     19  C   UNL     1      46.492   5.827  13.345  0.00  0.00    +0.000 A 
ATOM     20  C   UNL     1      45.570   4.990  12.704  0.00  0.00    +0.000 A 
BRANCH  19  21
ATOM     21  N   UNL     1      47.360   5.363  14.307  0.00  0.00    +0.000 N 
ATOM     22  C   UNL     1      47.405   3.960  14.738  0.00  0.00    +0.000 C 
ATOM     23  C   UNL     1      47.576   3.921  16.269  0.00  0.00    +0.000 C 
ATOM     24  O   UNL     1      48.717   4.682  16.709  0.00  0.00    +0.000 OA
ATOM     25  C   UNL     1      48.601   6.053  16.288  0.00  0.00    +0.000 C 
ATOM     26  C   UNL     1      48.512   6.157  14.759  0.00  0.00    +0.000 C 
ENDBRANCH  19  21
ENDBRANCH  14  15
ENDBRANCH   1  14
TORSDOF 6
ENDMDL
MODEL 3
REMARK VINA RESULT:    -7.452      2.689      3.719
REMARK INTER + INTRA:         -10.717
REMARK INTER:                 -10.069
REMARK INTRA:                  -0.647
REMARK UNBOUND:                -0.869
REMARK  Name = 
REMARK  6 active torsions:
REMARK  status: ('A' for Active; 'I' for Inactive)
REMARK    1  A    between atoms: C_2  and  O_3
REMARK    2  A    between atoms: C_2  and  C_4
REMARK    3  A    between atoms: C_7  and  N_8
REMARK    4  A    between atoms: N_8  and  C_9
REMARK    5  A    between atoms: C_9  and  C_10
REMARK    6  A    between atoms: C_14  and  N_15
REMARK                            x       y       z     vdW  Elec       q    Type
REMARK                         _______ _______ _______ _____ _____    ______ ____
ROOT
ATOM      1  N   UNL     1      44.348   4.050  10.536  0.00  0.00    +0.000 N 
ATOM      2  H   UNL     1      44.177   5.052  10.475  0.00  0.00    +0.000 HD
ENDROOT
BRANCH   1   6
ATOM      3  C   UNL     1      46.676   2.384   7.426  0.00  0.00    +0.000 A 
ATOM      4  C   UNL     1      45.935   1.574   8.294  0.00  0.00    +0.000 A 
ATOM      5  C   UNL     1      45.151   2.154   9.299  0.00  0.00    +0.000 A 
ATOM      6  C   UNL     1      45.072   3.547   9.448  0.00  0.00    +0.000 A 
ATOM      7  C   UNL     1      45.835   4.328   8.563  0.00  0.00    +0.000 A 
ATOM      8  F   UNL     1      45.829   5.669   8.643  0.00  0.00    +0.000 F 
ATOM      9  C   UNL     1      46.607   3.770   7.551  0.00  0.00    +0.000 A 
BRANCH   3  11
ATOM     10  O   UNL     1      47.202   0.670   5.876  0.00  0.00    +0.000 OA
ATOM     11  C   UNL     1      47.493   1.747   6.373  0.00  0.00    +0.000 C 
BRANCH  11  12
ATOM     12  O   UNL     1      48.600   2.441   6.037  0.00  0.00    +0.000 OA
ATOM     13  H   UNL     1      49.043   2.905   6.771  0.00  0.00    +0.000 HD
ENDBRANCH  11  12
ENDBRANCH   3  11
ENDBRANCH   1   6
BRANCH   1  14
ATOM     14  C   UNL     1      44.684   3.608  11.885  0.00  0.00    +0.000 C 
BRANCH  14  15
ATOM     15  C   UNL     1      45.656   4.572  12.517  0.00  0.00    +0.000 A 
ATOM     16  C   UNL     1      46.021   5.749  11.857  0.00  0.00    +0.000 A 
ATOM     17  C   UNL     1      46.916   6.627  12.454  0.00  0.00    +0.000 A 
ATOM     18  C   UNL     1      47.452   6.329  13.708  0.00  0.00    +0.000 A 
ATOM     19  C   UNL     1      47.128   5.151  14.397  0.00  0.00    +0.000 A 
ATOM     20  C   UNL     1      46.226   4.282  13.770  0.00  0.00    +0.000 A 
BRANCH  19  21
ATOM     21  N   UNL     1      47.639   4.899  15.649  0.00  0.00    +0.000 N 
ATOM     22  C   UNL     1      48.524   5.832  16.358  0.00  0.00    +0.000 C 
ATOM     23  C   UNL     1      49.640   5.025  17.048  0.00  0.00    +0.000 C 
ATOM     24  O   UNL     1      49.115   3.991  17.902  0.00  0.00    +0.000 OA
ATOM     25  C   UNL     1      48.285   3.089  17.147  0.00  0.00    +0.000 C 
ATOM     26  C   UNL     1      47.105   3.829  16.504  0.00  0.00    +0.000 C 
ENDBRANCH  19  21
ENDBRANCH  14  15
ENDBRANCH   1  14
TORSDOF 6
ENDMDL
MODEL 4
REMARK VINA RESULT:    -6.790      5.199      7.920
REMARK INTER + INTRA:          -9.841
REMARK INTER:                  -9.071
REMARK INTRA:                  -0.771
REMARK UNBOUND:                -0.869
REMARK  Name = 
REMARK  6 active torsions:
REMARK  status: ('A' for Active; 'I' for Inactive)
REMARK    1  A    between atoms: C_2  and  O_3
REMARK    2  A    between atoms: C_2  and  C_4
REMARK    3  A    between atoms: C_7  and  N_8
REMARK    4  A    between atoms: N_8  and  C_9
REMARK    5  A    between atoms: C_9  and  C_10
REMARK    6  A    between atoms: C_14  and  N_15
REMARK                            x       y       z     vdW  Elec       q    Type
REMARK                         _______ _______ _______ _____ _____    ______ ____
ROOT
ATOM      1  N   UNL     1      48.133   5.510  16.464  0.00  0.00    +0.000 N 
ATOM      2  H   UNL     1      47.211   5.184  16.183  0.00  0.00    +0.000 HD
ENDROOT
BRANCH   1   6
ATOM      3  C   UNL     1      50.924   2.473  17.389  0.00  0.00    +0.000 A 
ATOM      4  C   UNL     1      51.239   3.825  17.557  0.00  0.00    +0.000 A 
ATOM      5  C   UNL     1      50.286   4.811  17.268  0.00  0.00    +0.000 A 
ATOM      6  C   UNL     1      48.998   4.470  16.827  0.00  0.00    +0.000 A 
ATOM      7  C   UNL     1      48.719   3.102  16.664  0.00  0.00    +0.000 A 
ATOM      8  F   UNL     1      47.517   2.688  16.232  0.00  0.00    +0.000 F 
ATOM      9  C   UNL     1      49.648   2.111  16.959  0.00  0.00    +0.000 A 
BRANCH   3  11
ATOM     10  O   UNL     1      53.140   1.648  17.537  0.00  0.00    +0.000 OA
ATOM     11  C   UNL     1      51.946   1.453  17.703  0.00  0.00    +0.000 C 
BRANCH  11  12
ATOM     12  O   UNL     1      51.443   0.286  18.153  0.00  0.00    +0.000 OA
ATOM     13  H   UNL     1      51.540  -0.474  17.550  0.00  0.00    +0.000 HD
ENDBRANCH  11  12
ENDBRANCH   3  11
ENDBRANCH   1   6
BRANCH   1  14
ATOM     14  C   UNL     1      48.634   6.599  15.632  0.00  0.00    +0.000 C 
BRANCH  14  15
ATOM     15  C   UNL     1      48.006   6.532  14.262  0.00  0.00    +0.000 A 
ATOM     16  C   UNL     1      48.541   7.265  13.199  0.00  0.00    +0.000 A 
ATOM     17  C   UNL     1      47.952   7.191  11.944  0.00  0.00    +0.000 A 
ATOM     18  C   UNL     1      46.825   6.390  11.749  0.00  0.00    +0.000 A 
ATOM     19  C   UNL     1      46.245   5.653  12.792  0.00  0.00    +0.000 A 
ATOM     20  C   UNL     1      46.858   5.749  14.048  0.00  0.00    +0.000 A 
BRANCH  19  21
ATOM     21  N   UNL     1      45.159   4.839  12.566  0.00  0.00    +0.000 N 
ATOM     22  C   UNL     1      45.278   3.408  12.259  0.00  0.00    +0.000 C 
ATOM     23  C   UNL     1      44.264   3.055  11.153  0.00  0.00    +0.000 C 
ATOM     24  O   UNL     1      42.922   3.447  11.500  0.00  0.00    +0.000 OA
ATOM     25  C   UNL     1      42.861   4.862  11.755  0.00  0.00    +0.000 C 
ATOM     26  C   UNL     1      43.793   5.257  12.909  0.00  0.00    +0.000 C 
ENDBRANCH  19  21
ENDBRANCH  14  15
ENDBRANCH   1  14
TORSDOF 6
ENDMDL
MODEL 5
REMARK VINA RESULT:    -6.707      2.217      6.582
REMARK INTER + INTRA:          -9.733
REMARK INTER:                  -8.642
REMARK INTRA:                  -1.091
REMARK UNBOUND:                -0.869
REMARK  Name = 
REMARK  6 active torsions:
REMARK  status: ('A' for Active; 'I' for Inactive)
REMARK    1  A    between atoms: C_2  and  O_3
REMARK    2  A    between atoms: C_2  and  C_4
REMARK    3  A    between atoms: C_7  and  N_8
REMARK    4  A    between atoms: N_8  and  C_9
REMARK    5  A    between atoms: C_9  and  C_10
REMARK    6  A    between atoms: C_14  and  N_15
REMARK                            x       y       z     vdW  Elec       q    Type
REMARK                         _______ _______ _______ _____ _____    ______ ____
ROOT
ATOM      1  N   UNL     1      45.086   7.538  12.838  0.00  0.00    +0.000 N 
ATOM      2  H   UNL     1      44.835   7.022  13.679  0.00  0.00    +0.000 HD
ENDROOT
BRANCH   1   6
ATOM      3  C   UNL     1      49.213   7.991  12.042  0.00  0.00    +0.000 A 
ATOM      4  C   UNL     1      48.329   9.070  11.935  0.00  0.00    +0.000 A 
ATOM      5  C   UNL     1      46.970   8.898  12.231  0.00  0.00    +0.000 A 
ATOM      6  C   UNL     1      46.469   7.659  12.656  0.00  0.00    +0.000 A 
ATOM      7  C   UNL     1      47.385   6.596  12.746  0.00  0.00    +0.000 A 
ATOM      8  F   UNL     1      46.989   5.372  13.131  0.00  0.00    +0.000 F 
ATOM      9  C   UNL     1      48.739   6.752  12.470  0.00  0.00    +0.000 A 
BRANCH   3  11
ATOM     10  O   UNL     1      51.188   9.285  11.842  0.00  0.00    +0.000 OA
ATOM     11  C   UNL     1      50.641   8.200  11.727  0.00  0.00    +0.000 C 
BRANCH  11  12
ATOM     12  O   UNL     1      51.272   7.099  11.270  0.00  0.00    +0.000 OA
ATOM     13  H   UNL     1      52.168   7.246  10.913  0.00  0.00    +0.000 HD
ENDBRANCH  11  12
ENDBRANCH   3  11
ENDBRANCH   1   6
BRANCH   1  14
ATOM     14  C   UNL     1      44.241   7.212  11.694  0.00  0.00    +0.000 C 
BRANCH  14  15
ATOM     15  C   UNL     1      44.154   5.716  11.525  0.00  0.00    +0.000 A 
ATOM     16  C   UNL     1      43.548   4.924  12.505  0.00  0.00    +0.000 A 
ATOM     17  C   UNL     1      43.476   3.548  12.333  0.00  0.00    +0.000 A 
ATOM     18  C   UNL     1      44.011   2.960  11.186  0.00  0.00    +0.000 A 
ATOM     19  C   UNL     1      44.643   3.715  10.187  0.00  0.00    +0.000 A 
ATOM     20  C   UNL     1      44.706   5.100  10.388  0.00  0.00    +0.000 A 
BRANCH  19  21
ATOM     21  N   UNL     1      45.128   3.116   9.047  0.00  0.00    +0.000 N 
ATOM     22  C   UNL     1      45.049   1.670   8.804  0.00  0.00    +0.000 C 
ATOM     23  C   UNL     1      46.377   1.203   8.176  0.00  0.00    +0.000 C 
ATOM     24  O   UNL     1      46.713   1.954   6.994  0.00  0.00    +0.000 OA
ATOM     25  C   UNL     1      46.810   3.357   7.300  0.00  0.00    +0.000 C 
ATOM     26  C   UNL     1      45.483   3.896   7.853  0.00  0.00    +0.000 C 
ENDBRANCH  19  21
ENDBRANCH  14  15
ENDBRANCH   1  14
TORSDOF 6
ENDMDL
MODEL 6
REMARK VINA RESULT:    -6.522      3.387      7.618
REMARK INTER + INTRA:          -9.488
REMARK INTER:                  -8.595
REMARK INTRA:                  -0.893
REMARK UNBOUND:                -0.869
REMARK  Name = 
REMARK  6 active torsions:
REMARK  status: ('A' for Active; 'I' for Inactive)
REMARK    1  A    between atoms: C_2  and  O_3
REMARK    2  A    between atoms: C_2  and  C_4
REMARK    3  A    between atoms: C_7  and  N_8
REMARK    4  A    between atoms: N_8  and  C_9
REMARK    5  A    between atoms: C_9  and  C_10
REMARK    6  A    between atoms: C_14  and  N_15
REMARK                            x       y       z     vdW  Elec       q    Type
REMARK                         _______ _______ _______ _____ _____    ______ ____
ROOT
ATOM      1  N   UNL     1      47.500   6.316  13.084  0.00  0.00    +0.000 N 
ATOM      2  H   UNL     1      48.324   6.809  12.744  0.00  0.00    +0.000 HD
ENDROOT
BRANCH   1   6
ATOM      3  C   UNL     1      48.238   4.800  16.960  0.00  0.00    +0.000 A 
ATOM      4  C   UNL     1      48.709   6.058  16.570  0.00  0.00    +0.000 A 
ATOM      5  C   UNL     1      48.427   6.548  15.287  0.00  0.00    +0.000 A 
ATOM      6  C   UNL     1      47.657   5.807  14.378  0.00  0.00    +0.000 A 
ATOM      7  C   UNL     1      47.208   4.544  14.802  0.00  0.00    +0.000 A 
ATOM      8  F   UNL     1      46.477   3.762  13.991  0.00  0.00    +0.000 F 
ATOM      9  C   UNL     1      47.466   4.049  16.075  0.00  0.00    +0.000 A 
BRANCH   3  11
ATOM     10  O   UNL     1      49.475   3.546  18.545  0.00  0.00    +0.000 OA
ATOM     11  C   UNL     1      48.548   4.308  18.318  0.00  0.00    +0.000 C 
BRANCH  11  12
ATOM     12  O   UNL     1      47.699   4.745  19.271  0.00  0.00    +0.000 OA
ATOM     13  H   UNL     1      46.765   4.815  19.001  0.00  0.00    +0.000 HD
ENDBRANCH  11  12
ENDBRANCH   3  11
ENDBRANCH   1   6
BRANCH   1  14
ATOM     14  C   UNL     1      46.250   6.975  12.721  0.00  0.00    +0.000 C 
BRANCH  14  15
ATOM     15  C   UNL     1      45.277   5.966  12.164  0.00  0.00    +0.000 A 
ATOM     16  C   UNL     1      44.050   5.738  12.794  0.00  0.00    +0.000 A 
ATOM     17  C   UNL     1      43.166   4.807  12.266  0.00  0.00    +0.000 A 
ATOM     18  C   UNL     1      43.507   4.098  11.113  0.00  0.00    +0.000 A 
ATOM     19  C   UNL     1      44.734   4.282  10.460  0.00  0.00    +0.000 A 
ATOM     20  C   UNL     1      45.609   5.224  11.016  0.00  0.00    +0.000 A 
BRANCH  19  21
ATOM     21  N   UNL     1      45.030   3.599   9.303  0.00  0.00    +0.000 N 
ATOM     22  C   UNL     1      44.745   2.171   9.117  0.00  0.00    +0.000 C 
ATOM     23  C   UNL     1      45.938   1.521   8.389  0.00  0.00    +0.000 C 
ATOM     24  O   UNL     1      46.256   2.196   7.157  0.00  0.00    +0.000 OA
ATOM     25  C   UNL     1      46.559   3.581   7.405  0.00  0.00    +0.000 C 
ATOM     26  C   UNL     1      45.369   4.299   8.056  0.00  0.00    +0.000 C 
ENDBRANCH  19  21
ENDBRANCH  14  15
ENDBRANCH   1  14
TORSDOF 6
ENDMDL
MODEL 7
REMARK VINA RESULT:    -6.140      3.501      5.338
REMARK INTER + INTRA:          -8.984
REMARK INTER:                  -8.055
REMARK INTRA:                  -0.929
REMARK UNBOUND:                -0.869
REMARK  Name = 
REMARK  6 active torsions:
REMARK  status: ('A' for Active; 'I' for Inactive)
REMARK    1  A    between atoms: C_2  and  O_3
REMARK    2  A    between atoms: C_2  and  C_4
REMARK    3  A    between atoms: C_7  and  N_8
REMARK    4  A    between atoms: N_8  and  C_9
REMARK    5  A    between atoms: C_9  and  C_10
REMARK    6  A    between atoms: C_14  and  N_15
REMARK                            x       y       z     vdW  Elec       q    Type
REMARK                         _______ _______ _______ _____ _____    ______ ____
ROOT
ATOM      1  N   UNL     1      45.169   7.638  13.252  0.00  0.00    +0.000 N 
ATOM      2  H   UNL     1      44.323   8.044  13.647  0.00  0.00    +0.000 HD
ENDROOT
BRANCH   1   6
ATOM      3  C   UNL     1      44.253   3.929  11.443  0.00  0.00    +0.000 A 
ATOM      4  C   UNL     1      43.816   5.136  10.887  0.00  0.00    +0.000 A 
ATOM      5  C   UNL     1      44.157   6.353  11.493  0.00  0.00    +0.000 A 
ATOM      6  C   UNL     1      44.952   6.393  12.648  0.00  0.00    +0.000 A 
ATOM      7  C   UNL     1      45.367   5.161  13.181  0.00  0.00    +0.000 A 
ATOM      8  F   UNL     1      46.120   5.106  14.293  0.00  0.00    +0.000 F 
ATOM      9  C   UNL     1      45.051   3.945  12.586  0.00  0.00    +0.000 A 
BRANCH   3  11
ATOM     10  O   UNL     1      44.256   2.370   9.657  0.00  0.00    +0.000 OA
ATOM     11  C   UNL     1      43.882   2.660  10.783  0.00  0.00    +0.000 C 
BRANCH  11  12
ATOM     12  O   UNL     1      43.071   1.872  11.518  0.00  0.00    +0.000 OA
ATOM     13  H   UNL     1      43.485   1.450  12.294  0.00  0.00    +0.000 HD
ENDBRANCH  11  12
ENDBRANCH   3  11
ENDBRANCH   1   6
BRANCH   1  14
ATOM     14  C   UNL     1      46.016   8.619  12.583  0.00  0.00    +0.000 C 
BRANCH  14  15
ATOM     15  C   UNL     1      47.468   8.248  12.753  0.00  0.00    +0.000 A 
ATOM     16  C   UNL     1      48.352   8.325  11.673  0.00  0.00    +0.000 A 
ATOM     17  C   UNL     1      49.687   7.982  11.847  0.00  0.00    +0.000 A 
ATOM     18  C   UNL     1      50.139   7.557  13.098  0.00  0.00    +0.000 A 
ATOM     19  C   UNL     1      49.282   7.448  14.203  0.00  0.00    +0.000 A 
ATOM     20  C   UNL     1      47.941   7.797  13.998  0.00  0.00    +0.000 A 
BRANCH  19  21
ATOM     21  N   UNL     1      49.761   7.066  15.435  0.00  0.00    +0.000 N 
ATOM     22  C   UNL     1      51.089   7.444  15.933  0.00  0.00    +0.000 C 
ATOM     23  C   UNL     1      51.715   6.227  16.643  0.00  0.00    +0.000 C 
ATOM     24  O   UNL     1      50.858   5.697  17.671  0.00  0.00    +0.000 OA
ATOM     25  C   UNL     1      49.586   5.313  17.119  0.00  0.00    +0.000 C 
ATOM     26  C   UNL     1      48.879   6.510  16.471  0.00  0.00    +0.000 C 
ENDBRANCH  19  21
ENDBRANCH  14  15
ENDBRANCH   1  14
TORSDOF 6
ENDMDL
MODEL 8
REMARK VINA RESULT:    -6.112      4.153      5.990
REMARK INTER + INTRA:          -8.946
REMARK INTER:                  -8.216
REMARK INTRA:                  -0.730
REMARK UNBOUND:                -0.869
REMARK  Name = 
REMARK  6 active torsions:
REMARK  status: ('A' for Active; 'I' for Inactive)
REMARK    1  A    between atoms: C_2  and  O_3
REMARK    2  A    between atoms: C_2  and  C_4
REMARK    3  A    between atoms: C_7  and  N_8
REMARK    4  A    between atoms: N_8  and  C_9
REMARK    5  A    between atoms: C_9  and  C_10
REMARK    6  A    between atoms: C_14  and  N_15
REMARK                            x       y       z     vdW  Elec       q    Type
REMARK                         _______ _______ _______ _____ _____    ______ ____
ROOT
ATOM      1  N   UNL     1      46.589   7.144  13.302  0.00  0.00    +0.000 N 
ATOM      2  H   UNL     1      45.946   7.926  13.399  0.00  0.00    +0.000 HD
ENDROOT
BRANCH   1   6
ATOM      3  C   UNL     1      44.618   3.908  11.427  0.00  0.00    +0.000 A 
ATOM      4  C   UNL     1      44.840   5.114  10.753  0.00  0.00    +0.000 A 
ATOM      5  C   UNL     1      45.520   6.161  11.389  0.00  0.00    +0.000 A 
ATOM      6  C   UNL     1      46.008   6.023  12.697  0.00  0.00    +0.000 A 
ATOM      7  C   UNL     1      45.760   4.801  13.346  0.00  0.00    +0.000 A 
ATOM      8  F   UNL     1      46.179   4.588  14.605  0.00  0.00    +0.000 F 
ATOM      9  C   UNL     1      45.100   3.746  12.725  0.00  0.00    +0.000 A 
BRANCH   3  11
ATOM     10  O   UNL     1      44.023   2.610   9.536  0.00  0.00    +0.000 OA
ATOM     11  C   UNL     1      43.901   2.819  10.733  0.00  0.00    +0.000 C 
BRANCH  11  12
ATOM     12  O   UNL     1      43.078   2.105  11.528  0.00  0.00    +0.000 OA
ATOM     13  H   UNL     1      42.591   1.383  11.089  0.00  0.00    +0.000 HD
ENDBRANCH  11  12
ENDBRANCH   3  11
ENDBRANCH   1   6
BRANCH   1  14
ATOM     14  C   UNL     1      47.932   7.554  12.906  0.00  0.00    +0.000 C 
BRANCH  14  15
ATOM     15  C   UNL     1      48.894   7.345  14.048  0.00  0.00    +0.000 A 
ATOM     16  C   UNL     1      50.190   7.866  13.991  0.00  0.00    +0.000 A 
ATOM     17  C   UNL     1      51.062   7.665  15.053  0.00  0.00    +0.000 A 
ATOM     18  C   UNL     1      50.643   6.941  16.171  0.00  0.00    +0.000 A 
ATOM     19  C   UNL     1      49.359   6.386  16.262  0.00  0.00    +0.000 A 
ATOM     20  C   UNL     1      48.501   6.600  15.175  0.00  0.00    +0.000 A 
BRANCH  19  21
ATOM     21  N   UNL     1      48.957   5.711  17.392  0.00  0.00    +0.000 N 
ATOM     22  C   UNL     1      49.268   6.166  18.752  0.00  0.00    +0.000 C 
ATOM     23  C   UNL     1      49.650   4.942  19.607  0.00  0.00    +0.000 C 
ATOM     24  O   UNL     1      48.638   3.918  19.574  0.00  0.00    +0.000 OA
ATOM     25  C   UNL     1      48.401   3.488  18.221  0.00  0.00    +0.000 C 
ATOM     26  C   UNL     1      47.935   4.656  17.342  0.00  0.00    +0.000 C 
ENDBRANCH  19  21
ENDBRANCH  14  15
ENDBRANCH   1  14
TORSDOF 6
ENDMDL
MODEL 9
REMARK VINA RESULT:    -6.107      3.659      5.550
REMARK INTER + INTRA:          -8.939
REMARK INTER:                  -8.216
REMARK INTRA:                  -0.723
REMARK UNBOUND:                -0.869
REMARK  Name = 
REMARK  6 active torsions:
REMARK  status: ('A' for Active; 'I' for Inactive)
REMARK    1  A    between atoms: C_2  and  O_3
REMARK    2  A    between atoms: C_2  and  C_4
REMARK    3  A    between atoms: C_7  and  N_8
REMARK    4  A    between atoms: N_8  and  C_9
REMARK    5  A    between atoms: C_9  and  C_10
REMARK    6  A    between atoms: C_14  and  N_15
REMARK                            x       y       z     vdW  Elec       q    Type
REMARK                         _______ _______ _______ _____ _____    ______ ____
ROOT
ATOM      1  N   UNL     1      44.835   7.298  12.922  0.00  0.00    +0.000 N 
ATOM      2  H   UNL     1      43.964   7.819  13.000  0.00  0.00    +0.000 HD
ENDROOT
BRANCH   1   6
ATOM      3  C   UNL     1      44.538   4.157  10.109  0.00  0.00    +0.000 A 
ATOM      4  C   UNL     1      45.521   5.145   9.994  0.00  0.00    +0.000 A 
ATOM      5  C   UNL     1      45.614   6.160  10.955  0.00  0.00    +0.000 A 
ATOM      6  C   UNL     1      44.747   6.201  12.057  0.00  0.00    +0.000 A 
ATOM      7  C   UNL     1      43.768   5.195  12.137  0.00  0.00    +0.000 A 
ATOM      8  F   UNL     1      42.887   5.165  13.151  0.00  0.00    +0.000 F 
ATOM      9  C   UNL     1      43.670   4.173  11.200  0.00  0.00    +0.000 A 
BRANCH   3  11
ATOM     10  O   UNL     1      44.514   1.908   9.361  0.00  0.00    +0.000 OA
ATOM     11  C   UNL     1      44.463   3.096   9.083  0.00  0.00    +0.000 C 
BRANCH  11  12
ATOM     12  O   UNL     1      44.369   3.557   7.819  0.00  0.00    +0.000 OA
ATOM     13  H   UNL     1      44.233   4.519   7.731  0.00  0.00    +0.000 HD
ENDBRANCH  11  12
ENDBRANCH   3  11
ENDBRANCH   1   6
BRANCH   1  14
ATOM     14  C   UNL     1      46.013   8.159  12.867  0.00  0.00    +0.000 C 
BRANCH  14  15
ATOM     15  C   UNL     1      45.663   9.470  12.210  0.00  0.00    +0.000 A 
ATOM     16  C   UNL     1      46.666  10.377  11.854  0.00  0.00    +0.000 A 
ATOM     17  C   UNL     1      46.326  11.580  11.249  0.00  0.00    +0.000 A 
ATOM     18  C   UNL     1      44.985  11.882  11.003  0.00  0.00    +0.000 A 
ATOM     19  C   UNL     1      43.947  11.009  11.360  0.00  0.00    +0.000 A 
ATOM     20  C   UNL     1      44.318   9.805  11.972  0.00  0.00    +0.000 A 
BRANCH  19  21
ATOM     21  N   UNL     1      42.637  11.312  11.069  0.00  0.00    +0.000 N 
ATOM     22  C   UNL     1      42.153  12.685  10.880  0.00  0.00    +0.000 C 
ATOM     23  C   UNL     1      40.781  12.824  11.569  0.00  0.00    +0.000 C 
ATOM     24  O   UNL     1      39.843  11.830  11.118  0.00  0.00    +0.000 OA
ATOM     25  C   UNL     1      40.355  10.506  11.361  0.00  0.00    +0.000 C 
ATOM     26  C   UNL     1      41.684  10.284  10.626  0.00  0.00    +0.000 C 
ENDBRANCH  19  21
ENDBRANCH  14  15
ENDBRANCH   1  14
TORSDOF 6
ENDMDL
