MODEL 1
REMARK VINA RESULT:    -8.273      0.000      0.000
REMARK INTER + INTRA:         -12.714
REMARK INTER:                 -11.658
REMARK INTRA:                  -1.056
REMARK UNBOUND:                -1.056
REMARK  Name = 
REMARK  11 active torsions:
REMARK  status: ('A' for Active; 'I' for Inactive)
REMARK    1  A    between atoms: C_1  and  C_2
REMARK    2  A    between atoms: N_4  and  C_5
REMARK    3  A    between atoms: C_7  and  N_8
REMARK    4  A    between atoms: N_8  and  C_9
REMARK    5  A    between atoms: C_9  and  C_10
REMARK    6  A    between atoms: C_9  and  C_11
REMARK    7  A    between atoms: C_16  and  N_17
REMARK    8  A    between atoms: N_17  and  C_18
REMARK    9  A    between atoms: C_18  and  C_19
REMARK   10  A    between atoms: C_18  and  C_20
REMARK   11  A    between atoms: C_23  and  C_24
REMARK                            x       y       z     vdW  Elec       q    Type
REMARK                         _______ _______ _______ _____ _____    ______ ____
ROOT
ATOM      1  C   UNL     1      45.298   8.033  11.707  0.00  0.00    +0.000 A 
ATOM      2  C   UNL     1      46.333   8.327  12.609  0.00  0.00    +0.000 A 
ATOM      3  C   UNL     1      46.971   7.308  13.305  0.00  0.00    +0.000 A 
ATOM      4 CL   UNL     1      48.180   7.699  14.466  0.00  0.00    +0.000 Cl
ATOM      5  C   UNL     1      46.612   5.976  13.103  0.00  0.00    +0.000 A 
ATOM      6  C   UNL     1      45.631   5.627  12.170  0.00  0.00    +0.000 A 
ATOM      7  C   UNL     1      44.960   6.677  11.507  0.00  0.00    +0.000 A 
ENDROOT
BRANCH   1   8
ATOM      8  C   UNL     1      44.514   9.202  11.114  0.00  0.00    +0.000 C 
ATOM      9  C   UNL     1      44.753  10.444  11.980  0.00  0.00    +0.000 C 
BRANCH   8  10
ATOM     10  N   UNL     1      43.084   8.925  10.992  0.00  0.00    +0.000 N 
ATOM     11  H   UNL     1      42.760   8.298  11.724  0.00  0.00    +0.000 HD
BRANCH  10  18
ATOM     12  C   UNL     1      43.195  11.010   8.410  0.00  0.00    +0.000 C 
ATOM     13  C   UNL     1      42.190  10.776   9.474  0.00  0.00    +0.000 A 
ATOM     14  N   UNL     1      41.066  11.511   9.451  0.00  0.00    +0.000 NA
ATOM     15  N   UNL     1      40.344  11.042  10.480  0.00  0.00    +0.000 N 
ATOM     16  C   UNL     1      39.039  11.595  10.750  0.00  0.00    +0.000 C 
ATOM     17  C   UNL     1      40.971  10.051  11.177  0.00  0.00    +0.000 A 
ATOM     18  C   UNL     1      42.186   9.856  10.565  0.00  0.00    +0.000 A 
ENDBRANCH  10  18
ENDBRANCH   8  10
ENDBRANCH   1   8
BRANCH   6  19
ATOM     19  N   UNL     1      45.184   4.313  11.989  0.00  0.00    +0.000 N 
ATOM     20  H   UNL     1      44.947   3.856  12.865  0.00  0.00    +0.000 HD
BRANCH  19  21
ATOM     21  C   UNL     1      44.242   3.965  10.915  0.00  0.00    +0.000 C 
ATOM     22  C   UNL     1      43.274   2.876  11.387  0.00  0.00    +0.000 C 
BRANCH  21  23
ATOM     23  C   UNL     1      45.027   3.543   9.679  0.00  0.00    +0.000 A 
ATOM     24  C   UNL     1      45.540   4.524   8.813  0.00  0.00    +0.000 A 
ATOM     25  C   UNL     1      46.264   4.165   7.671  0.00  0.00    +0.000 A 
ATOM     26  C   UNL     1      46.503   2.819   7.381  0.00  0.00    +0.000 A 
ATOM     27  C   UNL     1      45.993   1.832   8.230  0.00  0.00    +0.000 A 
ATOM     28  C   UNL     1      45.263   2.192   9.369  0.00  0.00    +0.000 A 
BRANCH  26  29
ATOM     29  C   UNL     1      47.274   2.488   6.158  0.00  0.00    +0.000 C 
ATOM     30  N   UNL     1      48.637   2.423   6.263  0.00  0.00    +0.000 N 
ATOM     31  O   UNL     1      46.724   2.316   5.075  0.00  0.00    +0.000 OA
ATOM     32  H   UNL     1      49.142   2.776   7.065  0.00  0.00    +0.000 HD
ATOM     33  H   UNL     1      49.148   2.303   5.399  0.00  0.00    +0.000 HD
ENDBRANCH  26  29
ENDBRANCH  21  23
ENDBRANCH  19  21
ENDBRANCH   6  19
TORSDOF 7
ENDMDL
MODEL 2
REMARK VINA RESULT:    -8.253      2.348      3.421
REMARK INTER + INTRA:         -12.686
REMARK INTER:                 -11.991
REMARK INTRA:                  -0.695
REMARK UNBOUND:                -1.056
REMARK  Name = 
REMARK  11 active torsions:
REMARK  status: ('A' for Active; 'I' for Inactive)
REMARK    1  A    between atoms: C_1  and  C_2
REMARK    2  A    between atoms: N_4  and  C_5
REMARK    3  A    between atoms: C_7  and  N_8
REMARK    4  A    between atoms: N_8  and  C_9
REMARK    5  A    between atoms: C_9  and  C_10
REMARK    6  A    between atoms: C_9  and  C_11
REMARK    7  A    between atoms: C_16  and  N_17
REMARK    8  A    between atoms: N_17  and  C_18
REMARK    9  A    between atoms: C_18  and  C_19
REMARK   10  A    between atoms: C_18  and  C_20
REMARK   11  A    between atoms: C_23  and  C_24
REMARK                            x       y       z     vdW  Elec       q    Type
REMARK                         _______ _______ _______ _____ _____    ______ ____
ROOT
ATOM      1  C   UNL     1      47.384   6.888  11.996  0.00  0.00    +0.000 A 
ATOM      2  C   UNL     1      47.612   6.083  13.123  0.00  0.00    +0.000 A 
ATOM      3  C   UNL     1      46.704   5.093  13.476  0.00  0.00    +0.000 A 
ATOM      4 CL   UNL     1      46.963   4.174  14.909  0.00  0.00    +0.000 Cl
ATOM      5  C   UNL     1      45.564   4.865  12.706  0.00  0.00    +0.000 A 
ATOM      6  C   UNL     1      45.324   5.598  11.540  0.00  0.00    +0.000 A 
ATOM      7  C   UNL     1      46.231   6.632  11.222  0.00  0.00    +0.000 A 
ENDROOT
BRANCH   1   8
ATOM      8  C   UNL     1      48.317   8.075  11.765  0.00  0.00    +0.000 C 
ATOM      9  C   UNL     1      49.735   7.673  12.185  0.00  0.00    +0.000 C 
BRANCH   8  10
ATOM     10  N   UNL     1      47.891   9.280  12.473  0.00  0.00    +0.000 N 
ATOM     11  H   UNL     1      48.605   9.609  13.118  0.00  0.00    +0.000 HD
BRANCH  10  18
ATOM     12  C   UNL     1      48.719  11.770  10.438  0.00  0.00    +0.000 C 
ATOM     13  C   UNL     1      47.428  11.334  11.023  0.00  0.00    +0.000 A 
ATOM     14  N   UNL     1      46.324  12.030  10.706  0.00  0.00    +0.000 NA
ATOM     15  N   UNL     1      45.332  11.375  11.326  0.00  0.00    +0.000 N 
ATOM     16  C   UNL     1      43.973  11.838  11.188  0.00  0.00    +0.000 C 
ATOM     17  C   UNL     1      45.759  10.300  12.049  0.00  0.00    +0.000 A 
ATOM     18  C   UNL     1      47.123  10.244  11.893  0.00  0.00    +0.000 A 
ENDBRANCH  10  18
ENDBRANCH   8  10
ENDBRANCH   1   8
BRANCH   6  19
ATOM     19  N   UNL     1      44.158   5.458  10.778  0.00  0.00    +0.000 N 
ATOM     20  H   UNL     1      44.075   6.168  10.056  0.00  0.00    +0.000 HD
BRANCH  19  21
ATOM     21  C   UNL     1      43.701   4.142  10.309  0.00  0.00    +0.000 C 
ATOM     22  C   UNL     1      43.450   3.210  11.497  0.00  0.00    +0.000 C 
BRANCH  21  23
ATOM     23  C   UNL     1      44.728   3.574   9.337  0.00  0.00    +0.000 A 
ATOM     24  C   UNL     1      44.972   2.190   9.313  0.00  0.00    +0.000 A 
ATOM     25  C   UNL     1      45.910   1.641   8.432  0.00  0.00    +0.000 A 
ATOM     26  C   UNL     1      46.610   2.464   7.546  0.00  0.00    +0.000 A 
ATOM     27  C   UNL     1      46.383   3.844   7.564  0.00  0.00    +0.000 A 
ATOM     28  C   UNL     1      45.450   4.392   8.451  0.00  0.00    +0.000 A 
BRANCH  26  29
ATOM     29  C   UNL     1      47.596   1.836   6.632  0.00  0.00    +0.000 C 
ATOM     30  N   UNL     1      48.681   2.581   6.258  0.00  0.00    +0.000 N 
ATOM     31  O   UNL     1      47.435   0.704   6.188  0.00  0.00    +0.000 OA
ATOM     32  H   UNL     1      48.739   3.579   6.410  0.00  0.00    +0.000 HD
ATOM     33  H   UNL     1      49.281   2.176   5.553  0.00  0.00    +0.000 HD
ENDBRANCH  26  29
ENDBRANCH  21  23
ENDBRANCH  19  21
ENDBRANCH   6  19
TORSDOF 7
ENDMDL
MODEL 3
REMARK VINA RESULT:    -8.142      3.130      6.723
REMARK INTER + INTRA:         -12.530
REMARK INTER:                 -12.584
REMARK INTRA:                   0.054
REMARK UNBOUND:                -1.056
REMARK  Name = 
REMARK  11 active torsions:
REMARK  status: ('A' for Active; 'I' for Inactive)
REMARK    1  A    between atoms: C_1  and  C_2
REMARK    2  A    between atoms: N_4  and  C_5
REMARK    3  A    between atoms: C_7  and  N_8
REMARK    4  A    between atoms: N_8  and  C_9
REMARK    5  A    between atoms: C_9  and  C_10
REMARK    6  A    between atoms: C_9  and  C_11
REMARK    7  A    between atoms: C_16  and  N_17
REMARK    8  A    between atoms: N_17  and  C_18
REMARK    9  A    between atoms: C_18  and  C_19
REMARK   10  A    between atoms: C_18  and  C_20
REMARK   11  A    between atoms: C_23  and  C_24
REMARK                            x       y       z     vdW  Elec       q    Type
REMARK                         _______ _______ _______ _____ _____    ______ ____
ROOT
ATOM      1  C   UNL     1      46.260   5.837  13.065  0.00  0.00    +0.000 A 
ATOM      2  C   UNL     1      46.362   7.235  13.136  0.00  0.00    +0.000 A 
ATOM      3  C   UNL     1      45.636   8.039  12.266  0.00  0.00    +0.000 A 
ATOM      4 CL   UNL     1      45.840   9.748  12.316  0.00  0.00    +0.000 Cl
ATOM      5  C   UNL     1      44.777   7.474  11.324  0.00  0.00    +0.000 A 
ATOM      6  C   UNL     1      44.593   6.090  11.256  0.00  0.00    +0.000 A 
ATOM      7  C   UNL     1      45.374   5.286  12.114  0.00  0.00    +0.000 A 
ENDROOT
BRANCH   1   8
ATOM      8  C   UNL     1      47.216   5.007  13.918  0.00  0.00    +0.000 C 
ATOM      9  C   UNL     1      46.931   3.521  13.670  0.00  0.00    +0.000 C 
BRANCH   8  10
ATOM     10  N   UNL     1      47.124   5.319  15.344  0.00  0.00    +0.000 N 
ATOM     11  H   UNL     1      46.175   5.216  15.690  0.00  0.00    +0.000 HD
BRANCH  10  18
ATOM     12  C   UNL     1      47.428   2.803  17.490  0.00  0.00    +0.000 C 
ATOM     13  C   UNL     1      48.291   3.967  17.172  0.00  0.00    +0.000 A 
ATOM     14  N   UNL     1      49.450   4.093  17.838  0.00  0.00    +0.000 NA
ATOM     15  N   UNL     1      50.021   5.182  17.303  0.00  0.00    +0.000 N 
ATOM     16  C   UNL     1      51.316   5.614  17.771  0.00  0.00    +0.000 C 
ATOM     17  C   UNL     1      49.263   5.774  16.337  0.00  0.00    +0.000 A 
ATOM     18  C   UNL     1      48.116   5.023  16.228  0.00  0.00    +0.000 A 
ENDBRANCH  10  18
ENDBRANCH   8  10
ENDBRANCH   1   8
BRANCH   6  19
ATOM     19  N   UNL     1      43.802   5.473  10.279  0.00  0.00    +0.000 N 
ATOM     20  H   UNL     1      43.948   5.864   9.353  0.00  0.00    +0.000 HD
BRANCH  19  21
ATOM     21  C   UNL     1      43.632   4.013  10.240  0.00  0.00    +0.000 C 
ATOM     22  C   UNL     1      43.730   3.426  11.650  0.00  0.00    +0.000 C 
BRANCH  21  23
ATOM     23  C   UNL     1      44.666   3.416   9.293  0.00  0.00    +0.000 A 
ATOM     24  C   UNL     1      45.351   4.252   8.394  0.00  0.00    +0.000 A 
ATOM     25  C   UNL     1      46.305   3.731   7.514  0.00  0.00    +0.000 A 
ATOM     26  C   UNL     1      46.605   2.366   7.527  0.00  0.00    +0.000 A 
ATOM     27  C   UNL     1      45.927   1.521   8.411  0.00  0.00    +0.000 A 
ATOM     28  C   UNL     1      44.967   2.043   9.287  0.00  0.00    +0.000 A 
BRANCH  26  29
ATOM     29  C   UNL     1      47.623   1.859   6.574  0.00  0.00    +0.000 C 
ATOM     30  N   UNL     1      48.712   2.650   6.327  0.00  0.00    +0.000 N 
ATOM     31  O   UNL     1      47.485   0.789   5.991  0.00  0.00    +0.000 OA
ATOM     32  H   UNL     1      48.757   3.622   6.602  0.00  0.00    +0.000 HD
ATOM     33  H   UNL     1      49.337   2.337   5.597  0.00  0.00    +0.000 HD
ENDBRANCH  26  29
ENDBRANCH  21  23
ENDBRANCH  19  21
ENDBRANCH   6  19
TORSDOF 7
ENDMDL
MODEL 4
REMARK VINA RESULT:    -8.115      3.348      6.351
REMARK INTER + INTRA:         -12.491
REMARK INTER:                 -11.486
REMARK INTRA:                  -1.005
REMARK UNBOUND:                -1.056
REMARK  Name = 
REMARK  11 active torsions:
REMARK  status: ('A' for Active; 'I' for Inactive)
REMARK    1  A    between atoms: C_1  and  C_2
REMARK    2  A    between atoms: N_4  and  C_5
REMARK    3  A    between atoms: C_7  and  N_8
REMARK    4  A    between atoms: N_8  and  C_9
REMARK    5  A    between atoms: C_9  and  C_10
REMARK    6  A    between atoms: C_9  and  C_11
REMARK    7  A    between atoms: C_16  and  N_17
REMARK    8  A    between atoms: N_17  and  C_18
REMARK    9  A    between atoms: C_18  and  C_19
REMARK   10  A    between atoms: C_18  and  C_20
REMARK   11  A    between atoms: C_23  and  C_24
REMARK                            x       y       z     vdW  Elec       q    Type
REMARK                         _______ _______ _______ _____ _____    ______ ____
ROOT
ATOM      1  C   UNL     1      46.857   7.567  13.110  0.00  0.00    +0.000 A 
ATOM      2  C   UNL     1      46.042   8.558  12.541  0.00  0.00    +0.000 A 
ATOM      3  C   UNL     1      44.955   8.207  11.749  0.00  0.00    +0.000 A 
ATOM      4 CL   UNL     1      44.019   9.439  10.995  0.00  0.00    +0.000 Cl
ATOM      5  C   UNL     1      44.641   6.867  11.526  0.00  0.00    +0.000 A 
ATOM      6  C   UNL     1      45.385   5.844  12.121  0.00  0.00    +0.000 A 
ATOM      7  C   UNL     1      46.514   6.217  12.883  0.00  0.00    +0.000 A 
ENDROOT
BRANCH   1   8
ATOM      8  C   UNL     1      48.138   8.013  13.813  0.00  0.00    +0.000 C 
ATOM      9  C   UNL     1      49.327   7.286  13.174  0.00  0.00    +0.000 C 
BRANCH   8  10
ATOM     10  N   UNL     1      48.105   7.779  15.256  0.00  0.00    +0.000 N 
ATOM     11  H   UNL     1      47.183   7.957  15.644  0.00  0.00    +0.000 HD
BRANCH  10  18
ATOM     12  C   UNL     1      47.355   4.597  15.836  0.00  0.00    +0.000 C 
ATOM     13  C   UNL     1      48.549   5.422  16.139  0.00  0.00    +0.000 A 
ATOM     14  N   UNL     1      49.581   4.833  16.765  0.00  0.00    +0.000 NA
ATOM     15  N   UNL     1      50.511   5.795  16.846  0.00  0.00    +0.000 N 
ATOM     16  C   UNL     1      51.788   5.508  17.453  0.00  0.00    +0.000 C 
ATOM     17  C   UNL     1      50.107   6.987  16.318  0.00  0.00    +0.000 A 
ATOM     18  C   UNL     1      48.826   6.794  15.859  0.00  0.00    +0.000 A 
ENDBRANCH  10  18
ENDBRANCH   8  10
ENDBRANCH   1   8
BRANCH   6  19
ATOM     19  N   UNL     1      45.156   4.486  11.866  0.00  0.00    +0.000 N 
ATOM     20  H   UNL     1      45.048   3.941  12.716  0.00  0.00    +0.000 HD
BRANCH  19  21
ATOM     21  C   UNL     1      44.228   4.050  10.812  0.00  0.00    +0.000 C 
ATOM     22  C   UNL     1      43.294   2.959  11.341  0.00  0.00    +0.000 C 
BRANCH  21  23
ATOM     23  C   UNL     1      45.030   3.586   9.602  0.00  0.00    +0.000 A 
ATOM     24  C   UNL     1      45.617   4.538   8.751  0.00  0.00    +0.000 A 
ATOM     25  C   UNL     1      46.358   4.141   7.632  0.00  0.00    +0.000 A 
ATOM     26  C   UNL     1      46.540   2.783   7.353  0.00  0.00    +0.000 A 
ATOM     27  C   UNL     1      45.954   1.826   8.187  0.00  0.00    +0.000 A 
ATOM     28  C   UNL     1      45.208   2.225   9.302  0.00  0.00    +0.000 A 
BRANCH  26  29
ATOM     29  C   UNL     1      47.331   2.411   6.155  0.00  0.00    +0.000 C 
ATOM     30  N   UNL     1      48.695   2.455   6.255  0.00  0.00    +0.000 N 
ATOM     31  O   UNL     1      46.794   2.111   5.094  0.00  0.00    +0.000 OA
ATOM     32  H   UNL     1      49.174   2.908   7.022  0.00  0.00    +0.000 HD
ATOM     33  H   UNL     1      49.213   2.303   5.400  0.00  0.00    +0.000 HD
ENDBRANCH  26  29
ENDBRANCH  21  23
ENDBRANCH  19  21
ENDBRANCH   6  19
TORSDOF 7
ENDMDL
MODEL 5
REMARK VINA RESULT:    -7.783      3.376      5.793
REMARK INTER + INTRA:         -12.024
REMARK INTER:                 -10.714
REMARK INTRA:                  -1.310
REMARK UNBOUND:                -1.056
REMARK  Name = 
REMARK  11 active torsions:
REMARK  status: ('A' for Active; 'I' for Inactive)
REMARK    1  A    between atoms: C_1  and  C_2
REMARK    2  A    between atoms: N_4  and  C_5
REMARK    3  A    between atoms: C_7  and  N_8
REMARK    4  A    between atoms: N_8  and  C_9
REMARK    5  A    between atoms: C_9  and  C_10
REMARK    6  A    between atoms: C_9  and  C_11
REMARK    7  A    between atoms: C_16  and  N_17
REMARK    8  A    between atoms: N_17  and  C_18
REMARK    9  A    between atoms: C_18  and  C_19
REMARK   10  A    between atoms: C_18  and  C_20
REMARK   11  A    between atoms: C_23  and  C_24
REMARK                            x       y       z     vdW  Elec       q    Type
REMARK                         _______ _______ _______ _____ _____    ______ ____
ROOT
ATOM      1  C   UNL     1      47.524   7.626  12.433  0.00  0.00    +0.000 A 
ATOM      2  C   UNL     1      46.644   8.690  12.187  0.00  0.00    +0.000 A 
ATOM      3  C   UNL     1      45.331   8.444  11.804  0.00  0.00    +0.000 A 
ATOM      4 CL   UNL     1      44.293   9.764  11.427  0.00  0.00    +0.000 Cl
ATOM      5  C   UNL     1      44.859   7.138  11.680  0.00  0.00    +0.000 A 
ATOM      6  C   UNL     1      45.679   6.044  11.975  0.00  0.00    +0.000 A 
ATOM      7  C   UNL     1      47.023   6.311  12.316  0.00  0.00    +0.000 A 
ENDROOT
BRANCH   1   8
ATOM      8  C   UNL     1      48.996   7.956  12.669  0.00  0.00    +0.000 C 
ATOM      9  C   UNL     1      49.768   7.718  11.366  0.00  0.00    +0.000 C 
BRANCH   8  10
ATOM     10  N   UNL     1      49.584   7.187  13.765  0.00  0.00    +0.000 N 
ATOM     11  H   UNL     1      50.568   6.993  13.602  0.00  0.00    +0.000 HD
BRANCH  10  18
ATOM     12  C   UNL     1      48.976   9.956  15.494  0.00  0.00    +0.000 C 
ATOM     13  C   UNL     1      48.954   8.518  15.854  0.00  0.00    +0.000 A 
ATOM     14  N   UNL     1      48.621   8.189  17.112  0.00  0.00    +0.000 NA
ATOM     15  N   UNL     1      48.633   6.847  17.116  0.00  0.00    +0.000 N 
ATOM     16  C   UNL     1      48.295   6.132  18.323  0.00  0.00    +0.000 C 
ATOM     17  C   UNL     1      48.984   6.304  15.915  0.00  0.00    +0.000 A 
ATOM     18  C   UNL     1      49.218   7.358  15.065  0.00  0.00    +0.000 A 
ENDBRANCH  10  18
ENDBRANCH   8  10
ENDBRANCH   1   8
BRANCH   6  19
ATOM     19  N   UNL     1      45.275   4.716  11.792  0.00  0.00    +0.000 N 
ATOM     20  H   UNL     1      45.045   4.253  12.667  0.00  0.00    +0.000 HD
BRANCH  19  21
ATOM     21  C   UNL     1      44.353   4.337  10.711  0.00  0.00    +0.000 C 
ATOM     22  C   UNL     1      43.276   3.385  11.238  0.00  0.00    +0.000 C 
BRANCH  21  23
ATOM     23  C   UNL     1      45.151   3.728   9.565  0.00  0.00    +0.000 A 
ATOM     24  C   UNL     1      45.232   2.331   9.439  0.00  0.00    +0.000 A 
ATOM     25  C   UNL     1      45.958   1.744   8.397  0.00  0.00    +0.000 A 
ATOM     26  C   UNL     1      46.603   2.544   7.450  0.00  0.00    +0.000 A 
ATOM     27  C   UNL     1      46.538   3.936   7.567  0.00  0.00    +0.000 A 
ATOM     28  C   UNL     1      45.816   4.521   8.614  0.00  0.00    +0.000 A 
BRANCH  26  29
ATOM     29  C   UNL     1      47.362   1.876   6.365  0.00  0.00    +0.000 C 
ATOM     30  N   UNL     1      48.459   2.524   5.864  0.00  0.00    +0.000 N 
ATOM     31  O   UNL     1      47.007   0.800   5.896  0.00  0.00    +0.000 OA
ATOM     32  H   UNL     1      48.655   3.497   6.055  0.00  0.00    +0.000 HD
ATOM     33  H   UNL     1      48.897   2.104   5.056  0.00  0.00    +0.000 HD
ENDBRANCH  26  29
ENDBRANCH  21  23
ENDBRANCH  19  21
ENDBRANCH   6  19
TORSDOF 7
ENDMDL
MODEL 6
REMARK VINA RESULT:    -7.608      3.610      5.042
REMARK INTER + INTRA:         -11.777
REMARK INTER:                 -11.110
REMARK INTRA:                  -0.667
REMARK UNBOUND:                -1.056
REMARK  Name = 
REMARK  11 active torsions:
REMARK  status: ('A' for Active; 'I' for Inactive)
REMARK    1  A    between atoms: C_1  and  C_2
REMARK    2  A    between atoms: N_4  and  C_5
REMARK    3  A    between atoms: C_7  and  N_8
REMARK    4  A    between atoms: N_8  and  C_9
REMARK    5  A    between atoms: C_9  and  C_10
REMARK    6  A    between atoms: C_9  and  C_11
REMARK    7  A    between atoms: C_16  and  N_17
REMARK    8  A    between atoms: N_17  and  C_18
REMARK    9  A    between atoms: C_18  and  C_19
REMARK   10  A    between atoms: C_18  and  C_20
REMARK   11  A    between atoms: C_23  and  C_24
REMARK                            x       y       z     vdW  Elec       q    Type
REMARK                         _______ _______ _______ _____ _____    ______ ____
ROOT
ATOM      1  C   UNL     1      47.534   6.855  12.004  0.00  0.00    +0.000 A 
ATOM      2  C   UNL     1      47.709   6.031  13.127  0.00  0.00    +0.000 A 
ATOM      3  C   UNL     1      46.727   5.115  13.488  0.00  0.00    +0.000 A 
ATOM      4 CL   UNL     1      46.926   4.174  14.916  0.00  0.00    +0.000 Cl
ATOM      5  C   UNL     1      45.565   4.983  12.730  0.00  0.00    +0.000 A 
ATOM      6  C   UNL     1      45.372   5.736  11.568  0.00  0.00    +0.000 A 
ATOM      7  C   UNL     1      46.357   6.694  11.242  0.00  0.00    +0.000 A 
ENDROOT
BRANCH   1   8
ATOM      8  C   UNL     1      48.557   7.963  11.766  0.00  0.00    +0.000 C 
ATOM      9  C   UNL     1      49.825   7.641  12.566  0.00  0.00    +0.000 C 
BRANCH   8  10
ATOM     10  N   UNL     1      48.051   9.290  12.114  0.00  0.00    +0.000 N 
ATOM     11  H   UNL     1      47.354   9.244  12.852  0.00  0.00    +0.000 HD
BRANCH  10  18
ATOM     12  C   UNL     1      49.166  11.174  14.611  0.00  0.00    +0.000 C 
ATOM     13  C   UNL     1      49.332  11.250  13.139  0.00  0.00    +0.000 A 
ATOM     14  N   UNL     1      50.077  12.249  12.639  0.00  0.00    +0.000 NA
ATOM     15  N   UNL     1      50.089  12.022  11.317  0.00  0.00    +0.000 N 
ATOM     16  C   UNL     1      50.827  12.904  10.446  0.00  0.00    +0.000 C 
ATOM     17  C   UNL     1      49.359  10.930  10.947  0.00  0.00    +0.000 A 
ATOM     18  C   UNL     1      48.834  10.404  12.103  0.00  0.00    +0.000 A 
ENDBRANCH  10  18
ENDBRANCH   8  10
ENDBRANCH   1   8
BRANCH   6  19
ATOM     19  N   UNL     1      44.191   5.693  10.818  0.00  0.00    +0.000 N 
ATOM     20  H   UNL     1      44.146   6.428  10.117  0.00  0.00    +0.000 HD
BRANCH  19  21
ATOM     21  C   UNL     1      43.645   4.423  10.319  0.00  0.00    +0.000 C 
ATOM     22  C   UNL     1      43.269   3.508  11.487  0.00  0.00    +0.000 C 
BRANCH  21  23
ATOM     23  C   UNL     1      44.660   3.776   9.384  0.00  0.00    +0.000 A 
ATOM     24  C   UNL     1      44.876   2.389   9.443  0.00  0.00    +0.000 A 
ATOM     25  C   UNL     1      45.802   1.768   8.598  0.00  0.00    +0.000 A 
ATOM     26  C   UNL     1      46.518   2.522   7.664  0.00  0.00    +0.000 A 
ATOM     27  C   UNL     1      46.320   3.904   7.599  0.00  0.00    +0.000 A 
ATOM     28  C   UNL     1      45.398   4.525   8.450  0.00  0.00    +0.000 A 
BRANCH  26  29
ATOM     29  C   UNL     1      47.490   1.820   6.790  0.00  0.00    +0.000 C 
ATOM     30  N   UNL     1      48.605   2.510   6.397  0.00  0.00    +0.000 N 
ATOM     31  O   UNL     1      47.294   0.676   6.395  0.00  0.00    +0.000 OA
ATOM     32  H   UNL     1      48.697   3.510   6.506  0.00  0.00    +0.000 HD
ATOM     33  H   UNL     1      49.198   2.052   5.718  0.00  0.00    +0.000 HD
ENDBRANCH  26  29
ENDBRANCH  21  23
ENDBRANCH  19  21
ENDBRANCH   6  19
TORSDOF 7
ENDMDL
MODEL 7
REMARK VINA RESULT:    -7.495      3.464      5.751
REMARK INTER + INTRA:         -11.618
REMARK INTER:                 -11.574
REMARK INTRA:                  -0.043
REMARK UNBOUND:                -1.056
REMARK  Name = 
REMARK  11 active torsions:
REMARK  status: ('A' for Active; 'I' for Inactive)
REMARK    1  A    between atoms: C_1  and  C_2
REMARK    2  A    between atoms: N_4  and  C_5
REMARK    3  A    between atoms: C_7  and  N_8
REMARK    4  A    between atoms: N_8  and  C_9
REMARK    5  A    between atoms: C_9  and  C_10
REMARK    6  A    between atoms: C_9  and  C_11
REMARK    7  A    between atoms: C_16  and  N_17
REMARK    8  A    between atoms: N_17  and  C_18
REMARK    9  A    between atoms: C_18  and  C_19
REMARK   10  A    between atoms: C_18  and  C_20
REMARK   11  A    between atoms: C_23  and  C_24
REMARK                            x       y       z     vdW  Elec       q    Type
REMARK                         _______ _______ _______ _____ _____    ______ ____
ROOT
ATOM      1  C   UNL     1      46.762   7.159  12.807  0.00  0.00    +0.000 A 
ATOM      2  C   UNL     1      47.221   6.042  13.523  0.00  0.00    +0.000 A 
ATOM      3  C   UNL     1      46.649   4.792  13.319  0.00  0.00    +0.000 A 
ATOM      4 CL   UNL     1      47.170   3.453  14.268  0.00  0.00    +0.000 Cl
ATOM      5  C   UNL     1      45.629   4.620  12.385  0.00  0.00    +0.000 A 
ATOM      6  C   UNL     1      45.181   5.688  11.601  0.00  0.00    +0.000 A 
ATOM      7  C   UNL     1      45.739   6.960  11.855  0.00  0.00    +0.000 A 
ENDROOT
BRANCH   1   8
ATOM      8  C   UNL     1      47.299   8.532  13.205  0.00  0.00    +0.000 C 
ATOM      9  C   UNL     1      48.698   8.706  12.602  0.00  0.00    +0.000 C 
BRANCH   8  10
ATOM     10  N   UNL     1      47.333   8.731  14.653  0.00  0.00    +0.000 N 
ATOM     11  H   UNL     1      46.646   8.152  15.128  0.00  0.00    +0.000 HD
BRANCH  10  18
ATOM     12  C   UNL     1      49.493   6.631  16.051  0.00  0.00    +0.000 C 
ATOM     13  C   UNL     1      49.440   8.110  15.961  0.00  0.00    +0.000 A 
ATOM     14  N   UNL     1      50.435   8.813  16.526  0.00  0.00    +0.000 NA
ATOM     15  N   UNL     1      50.145  10.090  16.235  0.00  0.00    +0.000 N 
ATOM     16  C   UNL     1      51.028  11.142  16.675  0.00  0.00    +0.000 C 
ATOM     17  C   UNL     1      48.989  10.236  15.526  0.00  0.00    +0.000 A 
ATOM     18  C   UNL     1      48.486   8.970  15.337  0.00  0.00    +0.000 A 
ENDBRANCH  10  18
ENDBRANCH   8  10
ENDBRANCH   1   8
BRANCH   6  19
ATOM     19  N   UNL     1      44.110   5.581  10.707  0.00  0.00    +0.000 N 
ATOM     20  H   UNL     1      44.165   6.255   9.948  0.00  0.00    +0.000 HD
BRANCH  19  21
ATOM     21  C   UNL     1      43.624   4.273  10.245  0.00  0.00    +0.000 C 
ATOM     22  C   UNL     1      43.313   3.367  11.439  0.00  0.00    +0.000 C 
BRANCH  21  23
ATOM     23  C   UNL     1      44.657   3.658   9.309  0.00  0.00    +0.000 A 
ATOM     24  C   UNL     1      44.879   2.270   9.333  0.00  0.00    +0.000 A 
ATOM     25  C   UNL     1      45.822   1.679   8.485  0.00  0.00    +0.000 A 
ATOM     26  C   UNL     1      46.549   2.462   7.585  0.00  0.00    +0.000 A 
ATOM     27  C   UNL     1      46.344   3.845   7.555  0.00  0.00    +0.000 A 
ATOM     28  C   UNL     1      45.405   4.436   8.408  0.00  0.00    +0.000 A 
BRANCH  26  29
ATOM     29  C   UNL     1      47.538   1.790   6.707  0.00  0.00    +0.000 C 
ATOM     30  N   UNL     1      48.625   2.516   6.300  0.00  0.00    +0.000 N 
ATOM     31  O   UNL     1      47.381   0.637   6.321  0.00  0.00    +0.000 OA
ATOM     32  H   UNL     1      48.681   3.520   6.402  0.00  0.00    +0.000 HD
ATOM     33  H   UNL     1      49.228   2.076   5.619  0.00  0.00    +0.000 HD
ENDBRANCH  26  29
ENDBRANCH  21  23
ENDBRANCH  19  21
ENDBRANCH   6  19
TORSDOF 7
ENDMDL
MODEL 8
REMARK VINA RESULT:    -7.487      4.174      7.393
REMARK INTER + INTRA:         -11.607
REMARK INTER:                 -10.539
REMARK INTRA:                  -1.069
REMARK UNBOUND:                -1.056
REMARK  Name = 
REMARK  11 active torsions:
REMARK  status: ('A' for Active; 'I' for Inactive)
REMARK    1  A    between atoms: C_1  and  C_2
REMARK    2  A    between atoms: N_4  and  C_5
REMARK    3  A    between atoms: C_7  and  N_8
REMARK    4  A    between atoms: N_8  and  C_9
REMARK    5  A    between atoms: C_9  and  C_10
REMARK    6  A    between atoms: C_9  and  C_11
REMARK    7  A    between atoms: C_16  and  N_17
REMARK    8  A    between atoms: N_17  and  C_18
REMARK    9  A    between atoms: C_18  and  C_19
REMARK   10  A    between atoms: C_18  and  C_20
REMARK   11  A    between atoms: C_23  and  C_24
REMARK                            x       y       z     vdW  Elec       q    Type
REMARK                         _______ _______ _______ _____ _____    ______ ____
ROOT
ATOM      1  C   UNL     1      47.524   5.428  14.824  0.00  0.00    +0.000 A 
ATOM      2  C   UNL     1      48.079   6.537  14.168  0.00  0.00    +0.000 A 
ATOM      3  C   UNL     1      47.719   6.834  12.859  0.00  0.00    +0.000 A 
ATOM      4 CL   UNL     1      48.475   8.150  12.047  0.00  0.00    +0.000 Cl
ATOM      5  C   UNL     1      46.784   6.050  12.183  0.00  0.00    +0.000 A 
ATOM      6  C   UNL     1      46.156   4.973  12.815  0.00  0.00    +0.000 A 
ATOM      7  C   UNL     1      46.568   4.656  14.128  0.00  0.00    +0.000 A 
ENDROOT
BRANCH   1   8
ATOM      8  C   UNL     1      48.093   5.047  16.189  0.00  0.00    +0.000 C 
ATOM      9  C   UNL     1      47.307   3.847  16.731  0.00  0.00    +0.000 C 
BRANCH   8  10
ATOM     10  N   UNL     1      48.070   6.153  17.145  0.00  0.00    +0.000 N 
ATOM     11  H   UNL     1      47.131   6.519  17.273  0.00  0.00    +0.000 HD
BRANCH  10  18
ATOM     12  C   UNL     1      47.338   6.144  20.384  0.00  0.00    +0.000 C 
ATOM     13  C   UNL     1      48.620   6.207  19.640  0.00  0.00    +0.000 A 
ATOM     14  N   UNL     1      49.758   6.265  20.350  0.00  0.00    +0.000 NA
ATOM     15  N   UNL     1      50.726   6.254  19.422  0.00  0.00    +0.000 N 
ATOM     16  C   UNL     1      52.110   6.285  19.830  0.00  0.00    +0.000 C 
ATOM     17  C   UNL     1      50.253   6.216  18.143  0.00  0.00    +0.000 A 
ATOM     18  C   UNL     1      48.882   6.200  18.237  0.00  0.00    +0.000 A 
ENDBRANCH  10  18
ENDBRANCH   8  10
ENDBRANCH   1   8
BRANCH   6  19
ATOM     19  N   UNL     1      45.270   4.113  12.155  0.00  0.00    +0.000 N 
ATOM     20  H   UNL     1      44.677   3.594  12.797  0.00  0.00    +0.000 HD
BRANCH  19  21
ATOM     21  C   UNL     1      44.537   4.541  10.954  0.00  0.00    +0.000 C 
ATOM     22  C   UNL     1      43.061   4.152  11.063  0.00  0.00    +0.000 C 
BRANCH  21  23
ATOM     23  C   UNL     1      45.203   3.939   9.722  0.00  0.00    +0.000 A 
ATOM     24  C   UNL     1      45.816   4.783   8.781  0.00  0.00    +0.000 A 
ATOM     25  C   UNL     1      46.434   4.258   7.641  0.00  0.00    +0.000 A 
ATOM     26  C   UNL     1      46.465   2.877   7.429  0.00  0.00    +0.000 A 
ATOM     27  C   UNL     1      45.852   2.026   8.353  0.00  0.00    +0.000 A 
ATOM     28  C   UNL     1      45.228   2.553   9.490  0.00  0.00    +0.000 A 
BRANCH  26  29
ATOM     29  C   UNL     1      47.130   2.368   6.204  0.00  0.00    +0.000 C 
ATOM     30  N   UNL     1      48.432   1.960   6.310  0.00  0.00    +0.000 N 
ATOM     31  O   UNL     1      46.557   2.344   5.120  0.00  0.00    +0.000 OA
ATOM     32  H   UNL     1      49.008   2.170   7.114  0.00  0.00    +0.000 HD
ATOM     33  H   UNL     1      48.898   1.719   5.446  0.00  0.00    +0.000 HD
ENDBRANCH  26  29
ENDBRANCH  21  23
ENDBRANCH  19  21
ENDBRANCH   6  19
TORSDOF 7
ENDMDL
MODEL 9
REMARK VINA RESULT:    -7.399      3.737      4.888
REMARK INTER + INTRA:         -11.482
REMARK INTER:                 -10.854
REMARK INTRA:                  -0.628
REMARK UNBOUND:                -1.056
REMARK  Name = 
REMARK  11 active torsions:
REMARK  status: ('A' for Active; 'I' for Inactive)
REMARK    1  A    between atoms: C_1  and  C_2
REMARK    2  A    between atoms: N_4  and  C_5
REMARK    3  A    between atoms: C_7  and  N_8
REMARK    4  A    between atoms: N_8  and  C_9
REMARK    5  A    between atoms: C_9  and  C_10
REMARK    6  A    between atoms: C_9  and  C_11
REMARK    7  A    between atoms: C_16  and  N_17
REMARK    8  A    between atoms: N_17  and  C_18
REMARK    9  A    between atoms: C_18  and  C_19
REMARK   10  A    between atoms: C_18  and  C_20
REMARK   11  A    between atoms: C_23  and  C_24
REMARK                            x       y       z     vdW  Elec       q    Type
REMARK                         _______ _______ _______ _____ _____    ______ ____
ROOT
ATOM      1  C   UNL     1      47.334   6.576  12.072  0.00  0.00    +0.000 A 
ATOM      2  C   UNL     1      47.596   5.876  13.261  0.00  0.00    +0.000 A 
ATOM      3  C   UNL     1      46.683   4.948  13.747  0.00  0.00    +0.000 A 
ATOM      4 CL   UNL     1      46.986   4.163  15.249  0.00  0.00    +0.000 Cl
ATOM      5  C   UNL     1      45.504   4.678  13.053  0.00  0.00    +0.000 A 
ATOM      6  C   UNL     1      45.227   5.302  11.833  0.00  0.00    +0.000 A 
ATOM      7  C   UNL     1      46.142   6.277  11.378  0.00  0.00    +0.000 A 
ENDROOT
BRANCH   1   8
ATOM      8  C   UNL     1      48.281   7.710  11.688  0.00  0.00    +0.000 C 
ATOM      9  C   UNL     1      49.691   7.358  12.175  0.00  0.00    +0.000 C 
BRANCH   8  10
ATOM     10  N   UNL     1      47.861   9.007  12.217  0.00  0.00    +0.000 N 
ATOM     11  H   UNL     1      46.871   9.173  12.059  0.00  0.00    +0.000 HD
BRANCH  10  18
ATOM     12  C   UNL     1      50.118  11.404  12.646  0.00  0.00    +0.000 C 
ATOM     13  C   UNL     1      49.352  10.560  13.594  0.00  0.00    +0.000 A 
ATOM     14  N   UNL     1      49.549  10.751  14.908  0.00  0.00    +0.000 NA
ATOM     15  N   UNL     1      48.693   9.902  15.497  0.00  0.00    +0.000 N 
ATOM     16  C   UNL     1      48.613   9.849  16.936  0.00  0.00    +0.000 C 
ATOM     17  C   UNL     1      47.972   9.156  14.610  0.00  0.00    +0.000 A 
ATOM     18  C   UNL     1      48.381   9.542  13.356  0.00  0.00    +0.000 A 
ENDBRANCH  10  18
ENDBRANCH   8  10
ENDBRANCH   1   8
BRANCH   6  19
ATOM     19  N   UNL     1      44.025   5.121  11.139  0.00  0.00    +0.000 N 
ATOM     20  H   UNL     1      43.844   5.864  10.470  0.00  0.00    +0.000 HD
BRANCH  19  21
ATOM     21  C   UNL     1      43.630   3.805  10.619  0.00  0.00    +0.000 C 
ATOM     22  C   UNL     1      43.591   2.774  11.749  0.00  0.00    +0.000 C 
BRANCH  21  23
ATOM     23  C   UNL     1      44.587   3.401   9.504  0.00  0.00    +0.000 A 
ATOM     24  C   UNL     1      44.986   4.354   8.550  0.00  0.00    +0.000 A 
ATOM     25  C   UNL     1      45.863   4.012   7.516  0.00  0.00    +0.000 A 
ATOM     26  C   UNL     1      46.372   2.713   7.424  0.00  0.00    +0.000 A 
ATOM     27  C   UNL     1      45.979   1.753   8.361  0.00  0.00    +0.000 A 
ATOM     28  C   UNL     1      45.095   2.095   9.392  0.00  0.00    +0.000 A 
BRANCH  26  29
ATOM     29  C   UNL     1      47.298   2.397   6.309  0.00  0.00    +0.000 C 
ATOM     30  N   UNL     1      48.639   2.380   6.580  0.00  0.00    +0.000 N 
ATOM     31  O   UNL     1      46.891   2.195   5.170  0.00  0.00    +0.000 OA
ATOM     32  H   UNL     1      49.030   2.758   7.433  0.00  0.00    +0.000 HD
ATOM     33  H   UNL     1      49.256   2.270   5.787  0.00  0.00    +0.000 HD
ENDBRANCH  26  29
ENDBRANCH  21  23
ENDBRANCH  19  21
ENDBRANCH   6  19
TORSDOF 7
ENDMDL
