MODEL 1
REMARK VINA RESULT:    -7.532      0.000      0.000
REMARK INTER + INTRA:         -11.273
REMARK INTER:                 -10.394
REMARK INTRA:                  -0.879
REMARK UNBOUND:                -0.879
REMARK  Name = 
REMARK  8 active torsions:
REMARK  status: ('A' for Active; 'I' for Inactive)
REMARK    1  A    between atoms: C_1  and  C_2
REMARK    2  A    between atoms: C_2  and  C_3
REMARK    3  A    between atoms: C_2  and  C_14
REMARK    4  A    between atoms: C_3  and  O_4
REMARK    5  A    between atoms: O_4  and  C_5
REMARK    6  A    between atoms: C_8  and  C_9
REMARK    7  A    between atoms: C_18  and  C_19
REMARK    8  A    between atoms: C_19  and  N_20
REMARK                            x       y       z     vdW  Elec       q    Type
REMARK                         _______ _______ _______ _____ _____    ______ ____
ROOT
ATOM      1  C   UNL     1      43.620   3.194  11.367  0.00  0.00    +0.000 C 
ENDROOT
BRANCH   1   3
ATOM      2  C   UNL     1      42.523   5.432  11.869  0.00  0.00    +0.000 C 
ATOM      3  C   UNL     1      43.508   4.367  12.360  0.00  0.00    +0.000 C 
BRANCH   3   4
ATOM      4  C   UNL     1      44.887   4.946  12.628  0.00  0.00    +0.000 A 
ATOM      5  C   UNL     1      45.373   6.004  11.850  0.00  0.00    +0.000 A 
ATOM      6  C   UNL     1      46.610   6.586  12.139  0.00  0.00    +0.000 A 
ATOM      7  C   UNL     1      47.370   6.130  13.216  0.00  0.00    +0.000 A 
ATOM      8  C   UNL     1      46.904   5.077  14.013  0.00  0.00    +0.000 A 
ATOM      9  C   UNL     1      45.674   4.481  13.694  0.00  0.00    +0.000 A 
BRANCH   8  10
ATOM     10  C   UNL     1      47.696   4.579  15.195  0.00  0.00    +0.000 C 
BRANCH  10  11
ATOM     11  N   UNL     1      47.707   3.120  15.250  0.00  0.00    +0.000 NA
ATOM     12  H   UNL     1      47.291   2.759  14.391  0.00  0.00    +0.000 HD
ATOM     13  H   UNL     1      47.110   2.808  16.013  0.00  0.00    +0.000 HD
ENDBRANCH  10  11
ENDBRANCH   8  10
ENDBRANCH   3   4
ENDBRANCH   1   3
BRANCH   1  14
ATOM     14  O   UNL     1      43.477   3.668  10.024  0.00  0.00    +0.000 OA
BRANCH  14  15
ATOM     15  C   UNL     1      44.492   3.344   9.168  0.00  0.00    +0.000 A 
ATOM     16  C   UNL     1      45.180   4.228   8.337  0.00  0.00    +0.000 A 
ATOM     17  C   UNL     1      46.216   3.753   7.535  0.00  0.00    +0.000 A 
ATOM     18  C   UNL     1      46.529   2.403   7.588  0.00  0.00    +0.000 A 
ATOM     19  N   UNL     1      45.872   1.502   8.371  0.00  0.00    +0.000 NA
ATOM     20  C   UNL     1      44.871   2.005   9.135  0.00  0.00    +0.000 A 
BRANCH  18  21
ATOM     21  C   UNL     1      47.662   1.879   6.761  0.00  0.00    +0.000 C 
ATOM     22  N   UNL     1      48.632   2.791   6.449  0.00  0.00    +0.000 N 
ATOM     23  O   UNL     1      47.720   0.717   6.380  0.00  0.00    +0.000 OA
ATOM     24  H   UNL     1      48.539   3.750   6.771  0.00  0.00    +0.000 HD
ATOM     25  H   UNL     1      49.412   2.513   5.875  0.00  0.00    +0.000 HD
ENDBRANCH  18  21
ENDBRANCH  14  15
ENDBRANCH   1  14
TORSDOF 7
ENDMDL
MODEL 2
REMARK VINA RESULT:    -7.518      1.754      2.254
REMARK INTER + INTRA:         -11.254
REMARK INTER:                 -10.534
REMARK INTRA:                  -0.721
REMARK UNBOUND:                -0.879
REMARK  Name = 
REMARK  8 active torsions:
REMARK  status: ('A' for Active; 'I' for Inactive)
REMARK    1  A    between atoms: C_1  and  C_2
REMARK    2  A    between atoms: C_2  and  C_3
REMARK    3  A    between atoms: C_2  and  C_14
REMARK    4  A    between atoms: C_3  and  O_4
REMARK    5  A    between atoms: O_4  and  C_5
REMARK    6  A    between atoms: C_8  and  C_9
REMARK    7  A    between atoms: C_18  and  C_19
REMARK    8  A    between atoms: C_19  and  N_20
REMARK                            x       y       z     vdW  Elec       q    Type
REMARK                         _______ _______ _______ _____ _____    ______ ____
ROOT
ATOM      1  C   UNL     1      43.885   3.294  11.626  0.00  0.00    +0.000 C 
ENDROOT
BRANCH   1   3
ATOM      2  C   UNL     1      42.446   5.371  11.900  0.00  0.00    +0.000 C 
ATOM      3  C   UNL     1      43.532   4.492  12.528  0.00  0.00    +0.000 C 
BRANCH   3   4
ATOM      4  C   UNL     1      44.789   5.282  12.849  0.00  0.00    +0.000 A 
ATOM      5  C   UNL     1      45.925   4.632  13.349  0.00  0.00    +0.000 A 
ATOM      6  C   UNL     1      47.105   5.343  13.578  0.00  0.00    +0.000 A 
ATOM      7  C   UNL     1      47.172   6.708  13.297  0.00  0.00    +0.000 A 
ATOM      8  C   UNL     1      46.053   7.380  12.791  0.00  0.00    +0.000 A 
ATOM      9  C   UNL     1      44.865   6.660  12.594  0.00  0.00    +0.000 A 
BRANCH   8  10
ATOM     10  C   UNL     1      46.105   8.850  12.459  0.00  0.00    +0.000 C 
BRANCH  10  11
ATOM     11  N   UNL     1      44.862   9.522  12.829  0.00  0.00    +0.000 NA
ATOM     12  H   UNL     1      44.119   9.194  12.211  0.00  0.00    +0.000 HD
ATOM     13  H   UNL     1      44.958  10.521  12.660  0.00  0.00    +0.000 HD
ENDBRANCH  10  11
ENDBRANCH   8  10
ENDBRANCH   3   4
ENDBRANCH   1   3
BRANCH   1  14
ATOM     14  O   UNL     1      43.573   3.592  10.261  0.00  0.00    +0.000 OA
BRANCH  14  15
ATOM     15  C   UNL     1      44.534   3.268   9.346  0.00  0.00    +0.000 A 
ATOM     16  C   UNL     1      45.214   4.159   8.516  0.00  0.00    +0.000 A 
ATOM     17  C   UNL     1      46.193   3.681   7.647  0.00  0.00    +0.000 A 
ATOM     18  C   UNL     1      46.459   2.320   7.635  0.00  0.00    +0.000 A 
ATOM     19  N   UNL     1      45.808   1.412   8.415  0.00  0.00    +0.000 NA
ATOM     20  C   UNL     1      44.862   1.918   9.245  0.00  0.00    +0.000 A 
BRANCH  18  21
ATOM     21  C   UNL     1      47.533   1.790   6.735  0.00  0.00    +0.000 C 
ATOM     22  N   UNL     1      48.560   2.654   6.476  0.00  0.00    +0.000 N 
ATOM     23  O   UNL     1      47.496   0.665   6.254  0.00  0.00    +0.000 OA
ATOM     24  H   UNL     1      48.546   3.585   6.882  0.00  0.00    +0.000 HD
ATOM     25  H   UNL     1      49.305   2.372   5.859  0.00  0.00    +0.000 HD
ENDBRANCH  18  21
ENDBRANCH  14  15
ENDBRANCH   1  14
TORSDOF 7
ENDMDL
MODEL 3
REMARK VINA RESULT:    -6.853      1.696      2.054
REMARK INTER + INTRA:         -10.336
REMARK INTER:                  -9.722
REMARK INTRA:                  -0.614
REMARK UNBOUND:                -0.879
REMARK  Name = 
REMARK  8 active torsions:
REMARK  status: ('A' for Active; 'I' for Inactive)
REMARK    1  A    between atoms: C_1  and  C_2
REMARK    2  A    between atoms: C_2  and  C_3
REMARK    3  A    between atoms: C_2  and  C_14
REMARK    4  A    between atoms: C_3  and  O_4
REMARK    5  A    between atoms: O_4  and  C_5
REMARK    6  A    between atoms: C_8  and  C_9
REMARK    7  A    between atoms: C_18  and  C_19
REMARK    8  A    between atoms: C_19  and  N_20
REMARK                            x       y       z     vdW  Elec       q    Type
REMARK                         _______ _______ _______ _____ _____    ______ ____
ROOT
ATOM      1  C   UNL     1      43.669   4.795  10.676  0.00  0.00    +0.000 C 
ENDROOT
BRANCH   1   3
ATOM      2  C   UNL     1      43.263   4.620  13.180  0.00  0.00    +0.000 C 
ATOM      3  C   UNL     1      44.313   4.777  12.076  0.00  0.00    +0.000 C 
BRANCH   3   4
ATOM      4  C   UNL     1      45.158   6.025  12.268  0.00  0.00    +0.000 A 
ATOM      5  C   UNL     1      44.713   7.262  11.787  0.00  0.00    +0.000 A 
ATOM      6  C   UNL     1      45.453   8.423  12.024  0.00  0.00    +0.000 A 
ATOM      7  C   UNL     1      46.640   8.366  12.756  0.00  0.00    +0.000 A 
ATOM      8  C   UNL     1      47.104   7.142  13.253  0.00  0.00    +0.000 A 
ATOM      9  C   UNL     1      46.366   5.979  12.982  0.00  0.00    +0.000 A 
BRANCH   8  10
ATOM     10  C   UNL     1      48.371   7.055  14.065  0.00  0.00    +0.000 C 
BRANCH  10  11
ATOM     11  N   UNL     1      49.528   6.779  13.217  0.00  0.00    +0.000 NA
ATOM     12  H   UNL     1      49.197   6.394  12.332  0.00  0.00    +0.000 HD
ATOM     13  H   UNL     1      50.097   6.056  13.651  0.00  0.00    +0.000 HD
ENDBRANCH  10  11
ENDBRANCH   8  10
ENDBRANCH   3   4
ENDBRANCH   1   3
BRANCH   1  14
ATOM     14  O   UNL     1      43.587   3.466  10.151  0.00  0.00    +0.000 OA
BRANCH  14  15
ATOM     15  C   UNL     1      44.547   3.127   9.239  0.00  0.00    +0.000 A 
ATOM     16  C   UNL     1      45.136   1.872   9.093  0.00  0.00    +0.000 A 
ATOM     17  C   UNL     1      46.087   1.669   8.095  0.00  0.00    +0.000 A 
ATOM     18  C   UNL     1      46.421   2.735   7.273  0.00  0.00    +0.000 A 
ATOM     19  N   UNL     1      45.884   3.981   7.391  0.00  0.00    +0.000 NA
ATOM     20  C   UNL     1      44.964   4.136   8.375  0.00  0.00    +0.000 A 
BRANCH  18  21
ATOM     21  C   UNL     1      47.414   2.529   6.171  0.00  0.00    +0.000 C 
ATOM     22  N   UNL     1      48.647   2.089   6.566  0.00  0.00    +0.000 N 
ATOM     23  O   UNL     1      47.151   2.747   4.995  0.00  0.00    +0.000 OA
ATOM     24  H   UNL     1      48.831   1.935   7.553  0.00  0.00    +0.000 HD
ATOM     25  H   UNL     1      49.371   1.952   5.879  0.00  0.00    +0.000 HD
ENDBRANCH  18  21
ENDBRANCH  14  15
ENDBRANCH   1  14
TORSDOF 7
ENDMDL
MODEL 4
REMARK VINA RESULT:    -6.850      2.447      3.269
REMARK INTER + INTRA:         -10.333
REMARK INTER:                  -9.827
REMARK INTRA:                  -0.506
REMARK UNBOUND:                -0.879
REMARK  Name = 
REMARK  8 active torsions:
REMARK  status: ('A' for Active; 'I' for Inactive)
REMARK    1  A    between atoms: C_1  and  C_2
REMARK    2  A    between atoms: C_2  and  C_3
REMARK    3  A    between atoms: C_2  and  C_14
REMARK    4  A    between atoms: C_3  and  O_4
REMARK    5  A    between atoms: O_4  and  C_5
REMARK    6  A    between atoms: C_8  and  C_9
REMARK    7  A    between atoms: C_18  and  C_19
REMARK    8  A    between atoms: C_19  and  N_20
REMARK                            x       y       z     vdW  Elec       q    Type
REMARK                         _______ _______ _______ _____ _____    ______ ____
ROOT
ATOM      1  C   UNL     1      43.792   4.839  11.320  0.00  0.00    +0.000 C 
ENDROOT
BRANCH   1   3
ATOM      2  C   UNL     1      45.719   4.052  12.780  0.00  0.00    +0.000 C 
ATOM      3  C   UNL     1      45.301   4.948  11.609  0.00  0.00    +0.000 C 
BRANCH   3   4
ATOM      4  C   UNL     1      45.676   6.402  11.842  0.00  0.00    +0.000 A 
ATOM      5  C   UNL     1      46.957   6.738  12.298  0.00  0.00    +0.000 A 
ATOM      6  C   UNL     1      47.329   8.076  12.444  0.00  0.00    +0.000 A 
ATOM      7  C   UNL     1      46.432   9.096  12.125  0.00  0.00    +0.000 A 
ATOM      8  C   UNL     1      45.147   8.788  11.663  0.00  0.00    +0.000 A 
ATOM      9  C   UNL     1      44.777   7.439  11.548  0.00  0.00    +0.000 A 
BRANCH   8  10
ATOM     10  C   UNL     1      44.166   9.870  11.291  0.00  0.00    +0.000 C 
BRANCH  10  11
ATOM     11  N   UNL     1      42.927   9.305  10.764  0.00  0.00    +0.000 NA
ATOM     12  H   UNL     1      42.967   8.290  10.856  0.00  0.00    +0.000 HD
ATOM     13  H   UNL     1      42.865   9.502   9.768  0.00  0.00    +0.000 HD
ENDBRANCH  10  11
ENDBRANCH   8  10
ENDBRANCH   3   4
ENDBRANCH   1   3
BRANCH   1  14
ATOM     14  O   UNL     1      43.565   4.704   9.913  0.00  0.00    +0.000 OA
BRANCH  14  15
ATOM     15  C   UNL     1      44.440   3.894   9.245  0.00  0.00    +0.000 A 
ATOM     16  C   UNL     1      45.380   4.301   8.299  0.00  0.00    +0.000 A 
ATOM     17  C   UNL     1      46.226   3.359   7.718  0.00  0.00    +0.000 A 
ATOM     18  C   UNL     1      46.102   2.032   8.102  0.00  0.00    +0.000 A 
ATOM     19  N   UNL     1      45.187   1.587   9.009  0.00  0.00    +0.000 NA
ATOM     20  C   UNL     1      44.382   2.536   9.549  0.00  0.00    +0.000 A 
BRANCH  18  21
ATOM     21  C   UNL     1      47.025   1.009   7.518  0.00  0.00    +0.000 C 
ATOM     22  N   UNL     1      48.064   1.508   6.780  0.00  0.00    +0.000 N 
ATOM     23  O   UNL     1      46.865  -0.194   7.677  0.00  0.00    +0.000 OA
ATOM     24  H   UNL     1      48.153   2.512   6.659  0.00  0.00    +0.000 HD
ATOM     25  H   UNL     1      48.711   0.875   6.338  0.00  0.00    +0.000 HD
ENDBRANCH  18  21
ENDBRANCH  14  15
ENDBRANCH   1  14
TORSDOF 7
ENDMDL
MODEL 5
REMARK VINA RESULT:    -6.252      2.619      6.795
REMARK INTER + INTRA:          -9.507
REMARK INTER:                  -8.869
REMARK INTRA:                  -0.638
REMARK UNBOUND:                -0.879
REMARK  Name = 
REMARK  8 active torsions:
REMARK  status: ('A' for Active; 'I' for Inactive)
REMARK    1  A    between atoms: C_1  and  C_2
REMARK    2  A    between atoms: C_2  and  C_3
REMARK    3  A    between atoms: C_2  and  C_14
REMARK    4  A    between atoms: C_3  and  O_4
REMARK    5  A    between atoms: O_4  and  C_5
REMARK    6  A    between atoms: C_8  and  C_9
REMARK    7  A    between atoms: C_18  and  C_19
REMARK    8  A    between atoms: C_19  and  N_20
REMARK                            x       y       z     vdW  Elec       q    Type
REMARK                         _______ _______ _______ _____ _____    ______ ____
ROOT
ATOM      1  C   UNL     1      46.693   6.353  11.477  0.00  0.00    +0.000 C 
ENDROOT
BRANCH   1   3
ATOM      2  C   UNL     1      44.166   6.593  11.604  0.00  0.00    +0.000 C 
ATOM      3  C   UNL     1      45.365   6.290  10.700  0.00  0.00    +0.000 C 
BRANCH   3   4
ATOM      4  C   UNL     1      45.234   4.940  10.015  0.00  0.00    +0.000 A 
ATOM      5  C   UNL     1      44.463   3.924  10.594  0.00  0.00    +0.000 A 
ATOM      6  C   UNL     1      44.281   2.707   9.932  0.00  0.00    +0.000 A 
ATOM      7  C   UNL     1      44.856   2.493   8.679  0.00  0.00    +0.000 A 
ATOM      8  C   UNL     1      45.627   3.494   8.076  0.00  0.00    +0.000 A 
ATOM      9  C   UNL     1      45.825   4.701   8.764  0.00  0.00    +0.000 A 
BRANCH   8  10
ATOM     10  C   UNL     1      46.241   3.297   6.713  0.00  0.00    +0.000 C 
BRANCH  10  11
ATOM     11  N   UNL     1      47.698   3.237   6.791  0.00  0.00    +0.000 NA
ATOM     12  H   UNL     1      48.079   4.106   6.418  0.00  0.00    +0.000 HD
ATOM     13  H   UNL     1      48.035   2.490   6.186  0.00  0.00    +0.000 HD
ENDBRANCH  10  11
ENDBRANCH   8  10
ENDBRANCH   3   4
ENDBRANCH   1   3
BRANCH   1  14
ATOM     14  O   UNL     1      46.452   6.699  12.844  0.00  0.00    +0.000 OA
BRANCH  14  15
ATOM     15  C   UNL     1      46.951   5.831  13.775  0.00  0.00    +0.000 A 
ATOM     16  C   UNL     1      47.764   6.164  14.858  0.00  0.00    +0.000 A 
ATOM     17  C   UNL     1      48.175   5.169  15.742  0.00  0.00    +0.000 A 
ATOM     18  C   UNL     1      47.761   3.866  15.511  0.00  0.00    +0.000 A 
ATOM     19  N   UNL     1      46.982   3.493  14.457  0.00  0.00    +0.000 NA
ATOM     20  C   UNL     1      46.605   4.491  13.620  0.00  0.00    +0.000 A 
BRANCH  18  21
ATOM     21  C   UNL     1      48.161   2.787  16.469  0.00  0.00    +0.000 C 
ATOM     22  N   UNL     1      47.483   2.776  17.657  0.00  0.00    +0.000 N 
ATOM     23  O   UNL     1      49.040   1.973  16.218  0.00  0.00    +0.000 OA
ATOM     24  H   UNL     1      46.772   3.479  17.833  0.00  0.00    +0.000 HD
ATOM     25  H   UNL     1      47.718   2.092  18.359  0.00  0.00    +0.000 HD
ENDBRANCH  18  21
ENDBRANCH  14  15
ENDBRANCH   1  14
TORSDOF 7
ENDMDL
MODEL 6
REMARK VINA RESULT:    -6.234      3.691      6.351
REMARK INTER + INTRA:          -9.482
REMARK INTER:                  -9.006
REMARK INTRA:                  -0.477
REMARK UNBOUND:                -0.879
REMARK  Name = 
REMARK  8 active torsions:
REMARK  status: ('A' for Active; 'I' for Inactive)
REMARK    1  A    between atoms: C_1  and  C_2
REMARK    2  A    between atoms: C_2  and  C_3
REMARK    3  A    between atoms: C_2  and  C_14
REMARK    4  A    between atoms: C_3  and  O_4
REMARK    5  A    between atoms: O_4  and  C_5
REMARK    6  A    between atoms: C_8  and  C_9
REMARK    7  A    between atoms: C_18  and  C_19
REMARK    8  A    between atoms: C_19  and  N_20
REMARK                            x       y       z     vdW  Elec       q    Type
REMARK                         _______ _______ _______ _____ _____    ______ ____
ROOT
ATOM      1  C   UNL     1      47.622   4.718  16.113  0.00  0.00    +0.000 C 
ENDROOT
BRANCH   1   3
ATOM      2  C   UNL     1      47.235   2.860  17.805  0.00  0.00    +0.000 C 
ATOM      3  C   UNL     1      48.128   3.374  16.671  0.00  0.00    +0.000 C 
BRANCH   3   4
ATOM      4  C   UNL     1      49.578   3.513  17.106  0.00  0.00    +0.000 A 
ATOM      5  C   UNL     1      50.093   4.765  17.462  0.00  0.00    +0.000 A 
ATOM      6  C   UNL     1      51.403   4.886  17.930  0.00  0.00    +0.000 A 
ATOM      7  C   UNL     1      52.212   3.756  18.063  0.00  0.00    +0.000 A 
ATOM      8  C   UNL     1      51.719   2.491  17.719  0.00  0.00    +0.000 A 
ATOM      9  C   UNL     1      50.410   2.388  17.222  0.00  0.00    +0.000 A 
BRANCH   8  10
ATOM     10  C   UNL     1      52.563   1.252  17.873  0.00  0.00    +0.000 C 
BRANCH  10  11
ATOM     11  N   UNL     1      51.739   0.079  18.152  0.00  0.00    +0.000 NA
ATOM     12  H   UNL     1      50.758   0.357  18.122  0.00  0.00    +0.000 HD
ATOM     13  H   UNL     1      51.919  -0.239  19.102  0.00  0.00    +0.000 HD
ENDBRANCH  10  11
ENDBRANCH   8  10
ENDBRANCH   3   4
ENDBRANCH   1   3
BRANCH   1  14
ATOM     14  O   UNL     1      47.958   4.837  14.727  0.00  0.00    +0.000 OA
BRANCH  14  15
ATOM     15  C   UNL     1      46.912   4.757  13.851  0.00  0.00    +0.000 A 
ATOM     16  C   UNL     1      46.222   5.833  13.295  0.00  0.00    +0.000 A 
ATOM     17  C   UNL     1      45.188   5.595  12.391  0.00  0.00    +0.000 A 
ATOM     18  C   UNL     1      44.876   4.281  12.074  0.00  0.00    +0.000 A 
ATOM     19  N   UNL     1      45.512   3.200  12.607  0.00  0.00    +0.000 NA
ATOM     20  C   UNL     1      46.510   3.476  13.483  0.00  0.00    +0.000 A 
BRANCH  18  21
ATOM     21  C   UNL     1      43.794   4.003  11.077  0.00  0.00    +0.000 C 
ATOM     22  N   UNL     1      43.625   4.957  10.113  0.00  0.00    +0.000 N 
ATOM     23  O   UNL     1      43.097   2.997  11.121  0.00  0.00    +0.000 OA
ATOM     24  H   UNL     1      44.213   5.785  10.120  0.00  0.00    +0.000 HD
ATOM     25  H   UNL     1      42.899   4.847   9.423  0.00  0.00    +0.000 HD
ENDBRANCH  18  21
ENDBRANCH  14  15
ENDBRANCH   1  14
TORSDOF 7
ENDMDL
MODEL 7
REMARK VINA RESULT:    -6.111      2.979      6.647
REMARK INTER + INTRA:          -9.312
REMARK INTER:                  -8.618
REMARK INTRA:                  -0.694
REMARK UNBOUND:                -0.879
REMARK  Name = 
REMARK  8 active torsions:
REMARK  status: ('A' for Active; 'I' for Inactive)
REMARK    1  A    between atoms: C_1  and  C_2
REMARK    2  A    between atoms: C_2  and  C_3
REMARK    3  A    between atoms: C_2  and  C_14
REMARK    4  A    between atoms: C_3  and  O_4
REMARK    5  A    between atoms: O_4  and  C_5
REMARK    6  A    between atoms: C_8  and  C_9
REMARK    7  A    between atoms: C_18  and  C_19
REMARK    8  A    between atoms: C_19  and  N_20
REMARK                            x       y       z     vdW  Elec       q    Type
REMARK                         _______ _______ _______ _____ _____    ______ ____
ROOT
ATOM      1  C   UNL     1      44.825   5.935  11.072  0.00  0.00    +0.000 C 
ENDROOT
BRANCH   1   3
ATOM      2  C   UNL     1      42.974   4.236  11.458  0.00  0.00    +0.000 C 
ATOM      3  C   UNL     1      43.865   4.923  10.419  0.00  0.00    +0.000 C 
BRANCH   3   4
ATOM      4  C   UNL     1      44.658   3.920   9.597  0.00  0.00    +0.000 A 
ATOM      5  C   UNL     1      44.406   2.549   9.718  0.00  0.00    +0.000 A 
ATOM      6  C   UNL     1      45.082   1.629   8.913  0.00  0.00    +0.000 A 
ATOM      7  C   UNL     1      46.009   2.068   7.966  0.00  0.00    +0.000 A 
ATOM      8  C   UNL     1      46.276   3.434   7.822  0.00  0.00    +0.000 A 
ATOM      9  C   UNL     1      45.611   4.345   8.658  0.00  0.00    +0.000 A 
BRANCH   8  10
ATOM     10  C   UNL     1      47.257   3.937   6.793  0.00  0.00    +0.000 C 
BRANCH  10  11
ATOM     11  N   UNL     1      48.218   2.902   6.425  0.00  0.00    +0.000 NA
ATOM     12  H   UNL     1      47.822   2.345   5.668  0.00  0.00    +0.000 HD
ATOM     13  H   UNL     1      48.348   2.269   7.211  0.00  0.00    +0.000 HD
ENDBRANCH  10  11
ENDBRANCH   8  10
ENDBRANCH   3   4
ENDBRANCH   1   3
BRANCH   1  14
ATOM     14  O   UNL     1      45.594   5.298  12.097  0.00  0.00    +0.000 OA
BRANCH  14  15
ATOM     15  C   UNL     1      46.729   5.955  12.484  0.00  0.00    +0.000 A 
ATOM     16  C   UNL     1      47.405   6.931  11.752  0.00  0.00    +0.000 A 
ATOM     17  C   UNL     1      48.540   7.533  12.291  0.00  0.00    +0.000 A 
ATOM     18  C   UNL     1      48.966   7.135  13.550  0.00  0.00    +0.000 A 
ATOM     19  N   UNL     1      48.347   6.174  14.292  0.00  0.00    +0.000 NA
ATOM     20  C   UNL     1      47.247   5.612  13.730  0.00  0.00    +0.000 A 
BRANCH  18  21
ATOM     21  C   UNL     1      50.161   7.795  14.164  0.00  0.00    +0.000 C 
ATOM     22  N   UNL     1      51.251   7.912  13.346  0.00  0.00    +0.000 N 
ATOM     23  O   UNL     1      50.175   8.196  15.320  0.00  0.00    +0.000 OA
ATOM     24  H   UNL     1      51.206   7.552  12.397  0.00  0.00    +0.000 HD
ATOM     25  H   UNL     1      52.099   8.325  13.701  0.00  0.00    +0.000 HD
ENDBRANCH  18  21
ENDBRANCH  14  15
ENDBRANCH   1  14
TORSDOF 7
ENDMDL
MODEL 8
REMARK VINA RESULT:    -6.079      3.533      6.975
REMARK INTER + INTRA:          -9.269
REMARK INTER:                  -8.615
REMARK INTRA:                  -0.653
REMARK UNBOUND:                -0.879
REMARK  Name = 
REMARK  8 active torsions:
REMARK  status: ('A' for Active; 'I' for Inactive)
REMARK    1  A    between atoms: C_1  and  C_2
REMARK    2  A    between atoms: C_2  and  C_3
REMARK    3  A    between atoms: C_2  and  C_14
REMARK    4  A    between atoms: C_3  and  O_4
REMARK    5  A    between atoms: O_4  and  C_5
REMARK    6  A    between atoms: C_8  and  C_9
REMARK    7  A    between atoms: C_18  and  C_19
REMARK    8  A    between atoms: C_19  and  N_20
REMARK                            x       y       z     vdW  Elec       q    Type
REMARK                         _______ _______ _______ _____ _____    ______ ____
ROOT
ATOM      1  C   UNL     1      47.638   6.551  12.224  0.00  0.00    +0.000 C 
ENDROOT
BRANCH   1   3
ATOM      2  C   UNL     1      45.477   7.890  12.192  0.00  0.00    +0.000 C 
ATOM      3  C   UNL     1      46.412   6.976  11.394  0.00  0.00    +0.000 C 
BRANCH   3   4
ATOM      4  C   UNL     1      45.694   5.742  10.872  0.00  0.00    +0.000 A 
ATOM      5  C   UNL     1      45.772   5.398   9.517  0.00  0.00    +0.000 A 
ATOM      6  C   UNL     1      45.173   4.227   9.047  0.00  0.00    +0.000 A 
ATOM      7  C   UNL     1      44.500   3.377   9.927  0.00  0.00    +0.000 A 
ATOM      8  C   UNL     1      44.412   3.695  11.287  0.00  0.00    +0.000 A 
ATOM      9  C   UNL     1      44.993   4.890  11.740  0.00  0.00    +0.000 A 
BRANCH   8  10
ATOM     10  C   UNL     1      43.710   2.785  12.262  0.00  0.00    +0.000 C 
BRANCH  10  11
ATOM     11  N   UNL     1      42.882   1.802  11.569  0.00  0.00    +0.000 NA
ATOM     12  H   UNL     1      42.166   1.468  12.214  0.00  0.00    +0.000 HD
ATOM     13  H   UNL     1      43.451   0.994  11.327  0.00  0.00    +0.000 HD
ENDBRANCH  10  11
ENDBRANCH   8  10
ENDBRANCH   3   4
ENDBRANCH   1   3
BRANCH   1  14
ATOM     14  O   UNL     1      47.535   7.063  13.557  0.00  0.00    +0.000 OA
BRANCH  14  15
ATOM     15  C   UNL     1      47.773   6.165  14.560  0.00  0.00    +0.000 A 
ATOM     16  C   UNL     1      48.587   6.372  15.673  0.00  0.00    +0.000 A 
ATOM     17  C   UNL     1      48.712   5.367  16.630  0.00  0.00    +0.000 A 
ATOM     18  C   UNL     1      48.017   4.182  16.440  0.00  0.00    +0.000 A 
ATOM     19  N   UNL     1      47.226   3.931  15.360  0.00  0.00    +0.000 NA
ATOM     20  C   UNL     1      47.132   4.934  14.452  0.00  0.00    +0.000 A 
BRANCH  18  21
ATOM     21  C   UNL     1      48.108   3.103  17.475  0.00  0.00    +0.000 C 
ATOM     22  N   UNL     1      46.917   2.539  17.841  0.00  0.00    +0.000 N 
ATOM     23  O   UNL     1      49.171   2.750  17.971  0.00  0.00    +0.000 OA
ATOM     24  H   UNL     1      46.056   2.871  17.418  0.00  0.00    +0.000 HD
ATOM     25  H   UNL     1      46.902   1.823  18.550  0.00  0.00    +0.000 HD
ENDBRANCH  18  21
ENDBRANCH  14  15
ENDBRANCH   1  14
TORSDOF 7
ENDMDL
MODEL 9
REMARK VINA RESULT:    -5.974      3.084      7.345
REMARK INTER + INTRA:          -9.124
REMARK INTER:                  -8.481
REMARK INTRA:                  -0.643
REMARK UNBOUND:                -0.879
REMARK  Name = 
REMARK  8 active torsions:
REMARK  status: ('A' for Active; 'I' for Inactive)
REMARK    1  A    between atoms: C_1  and  C_2
REMARK    2  A    between atoms: C_2  and  C_3
REMARK    3  A    between atoms: C_2  and  C_14
REMARK    4  A    between atoms: C_3  and  O_4
REMARK    5  A    between atoms: O_4  and  C_5
REMARK    6  A    between atoms: C_8  and  C_9
REMARK    7  A    between atoms: C_18  and  C_19
REMARK    8  A    between atoms: C_19  and  N_20
REMARK                            x       y       z     vdW  Elec       q    Type
REMARK                         _______ _______ _______ _____ _____    ______ ____
ROOT
ATOM      1  C   UNL     1      47.784   6.521  12.449  0.00  0.00    +0.000 C 
ENDROOT
BRANCH   1   3
ATOM      2  C   UNL     1      45.980   8.294  12.705  0.00  0.00    +0.000 C 
ATOM      3  C   UNL     1      46.612   7.257  11.772  0.00  0.00    +0.000 C 
BRANCH   3   4
ATOM      4  C   UNL     1      45.593   6.248  11.269  0.00  0.00    +0.000 A 
ATOM      5  C   UNL     1      44.353   6.117  11.907  0.00  0.00    +0.000 A 
ATOM      6  C   UNL     1      43.387   5.242  11.405  0.00  0.00    +0.000 A 
ATOM      7  C   UNL     1      43.641   4.496  10.253  0.00  0.00    +0.000 A 
ATOM      8  C   UNL     1      44.871   4.612   9.594  0.00  0.00    +0.000 A 
ATOM      9  C   UNL     1      45.843   5.473  10.126  0.00  0.00    +0.000 A 
BRANCH   8  10
ATOM     10  C   UNL     1      45.163   3.835   8.336  0.00  0.00    +0.000 C 
BRANCH  10  11
ATOM     11  N   UNL     1      46.293   4.406   7.609  0.00  0.00    +0.000 NA
ATOM     12  H   UNL     1      47.135   3.885   7.854  0.00  0.00    +0.000 HD
ATOM     13  H   UNL     1      46.444   5.363   7.922  0.00  0.00    +0.000 HD
ENDBRANCH  10  11
ENDBRANCH   8  10
ENDBRANCH   3   4
ENDBRANCH   1   3
BRANCH   1  14
ATOM     14  O   UNL     1      48.023   7.064  13.752  0.00  0.00    +0.000 OA
BRANCH  14  15
ATOM     15  C   UNL     1      47.990   6.170  14.785  0.00  0.00    +0.000 A 
ATOM     16  C   UNL     1      48.681   6.280  15.991  0.00  0.00    +0.000 A 
ATOM     17  C   UNL     1      48.527   5.297  16.966  0.00  0.00    +0.000 A 
ATOM     18  C   UNL     1      47.683   4.228  16.699  0.00  0.00    +0.000 A 
ATOM     19  N   UNL     1      47.003   4.071  15.529  0.00  0.00    +0.000 NA
ATOM     20  C   UNL     1      47.182   5.050  14.607  0.00  0.00    +0.000 A 
BRANCH  18  21
ATOM     21  C   UNL     1      47.474   3.179  17.747  0.00  0.00    +0.000 C 
ATOM     22  N   UNL     1      48.410   3.151  18.745  0.00  0.00    +0.000 N 
ATOM     23  O   UNL     1      46.539   2.390  17.716  0.00  0.00    +0.000 OA
ATOM     24  H   UNL     1      49.180   3.812  18.726  0.00  0.00    +0.000 HD
ATOM     25  H   UNL     1      48.344   2.455  19.470  0.00  0.00    +0.000 HD
ENDBRANCH  18  21
ENDBRANCH  14  15
ENDBRANCH   1  14
TORSDOF 7
ENDMDL
