MODEL 1
REMARK VINA RESULT:    -7.116      0.000      0.000
REMARK INTER + INTRA:          -9.901
REMARK INTER:                  -9.197
REMARK INTRA:                  -0.705
REMARK UNBOUND:                -0.705
REMARK  Name = 
REMARK  5 active torsions:
REMARK  status: ('A' for Active; 'I' for Inactive)
REMARK    1  A    between atoms: C_2  and  C_4
REMARK    2  A    between atoms: C_8  and  C_9
REMARK    3  A    between atoms: C_9  and  O_10
REMARK    4  A    between atoms: O_10  and  C_11
REMARK    5  A    between atoms: C_15  and  C_16
REMARK                            x       y       z     vdW  Elec       q    Type
REMARK                         _______ _______ _______ _____ _____    ______ ____
ROOT
ATOM      1  O   UNL     1      44.696   5.103  10.456  0.00  0.00    +0.000 OA
ENDROOT
BRANCH   1   2
ATOM      2  C   UNL     1      45.553   5.268  11.507  0.00  0.00    +0.000 A 
ATOM      3  C   UNL     1      45.351   4.431  12.597  0.00  0.00    +0.000 A 
ATOM      4  C   UNL     1      46.129   4.585  13.739  0.00  0.00    +0.000 A 
ATOM      5  C   UNL     1      47.141   5.549  13.774  0.00  0.00    +0.000 A 
ATOM      6  C   UNL     1      47.429   6.335  12.651  0.00  0.00    +0.000 A 
ATOM      7  C   UNL     1      46.594   6.197  11.531  0.00  0.00    +0.000 A 
BRANCH   6   8
ATOM      8  C   UNL     1      48.585   7.328  12.563  0.00  0.00    +0.000 C 
ATOM      9  C   UNL     1      49.082   7.754  13.963  0.00  0.00    +0.000 C 
ATOM     10  C   UNL     1      48.116   8.727  14.631  0.00  0.00    +0.000 C 
ATOM     11  N   UNL     1      47.931   9.933  13.823  0.00  0.00    +0.000 NA
ATOM     12  C   UNL     1      47.436   9.609  12.484  0.00  0.00    +0.000 C 
ATOM     13  C   UNL     1      48.331   8.607  11.747  0.00  0.00    +0.000 C 
ATOM     14  H   UNL     1      48.824  10.417  13.739  0.00  0.00    +0.000 HD
ENDBRANCH   6   8
ENDBRANCH   1   2
BRANCH   1  15
ATOM     15  C   UNL     1      45.316   5.163   9.171  0.00  0.00    +0.000 C 
BRANCH  15  20
ATOM     16  C   UNL     1      46.789   2.198   7.296  0.00  0.00    +0.000 A 
ATOM     17  C   UNL     1      46.106   1.131   7.893  0.00  0.00    +0.000 A 
ATOM     18  C   UNL     1      45.151   1.376   8.881  0.00  0.00    +0.000 A 
ATOM     19  C   UNL     1      44.890   2.684   9.286  0.00  0.00    +0.000 A 
ATOM     20  C   UNL     1      45.586   3.757   8.714  0.00  0.00    +0.000 A 
ATOM     21  C   UNL     1      46.528   3.507   7.709  0.00  0.00    +0.000 A 
BRANCH  16  23
ATOM     22  N   UNL     1      48.920   2.811   6.280  0.00  0.00    +0.000 N 
ATOM     23  C   UNL     1      47.824   1.994   6.248  0.00  0.00    +0.000 C 
ATOM     24  O   UNL     1      47.728   1.109   5.410  0.00  0.00    +0.000 OA
ATOM     25  H   UNL     1      49.655   2.591   5.621  0.00  0.00    +0.000 HD
ATOM     26  H   UNL     1      49.161   3.365   7.089  0.00  0.00    +0.000 HD
ENDBRANCH  16  23
ENDBRANCH  15  20
ENDBRANCH   1  15
TORSDOF 5
ENDMDL
MODEL 2
REMARK VINA RESULT:    -7.105      1.513      2.260
REMARK INTER + INTRA:          -9.886
REMARK INTER:                  -9.439
REMARK INTRA:                  -0.447
REMARK UNBOUND:                -0.705
REMARK  Name = 
REMARK  5 active torsions:
REMARK  status: ('A' for Active; 'I' for Inactive)
REMARK    1  A    between atoms: C_2  and  C_4
REMARK    2  A    between atoms: C_8  and  C_9
REMARK    3  A    between atoms: C_9  and  O_10
REMARK    4  A    between atoms: O_10  and  C_11
REMARK    5  A    between atoms: C_15  and  C_16
REMARK                            x       y       z     vdW  Elec       q    Type
REMARK                         _______ _______ _______ _____ _____    ______ ____
ROOT
ATOM      1  O   UNL     1      44.804   3.256  11.687  0.00  0.00    +0.000 OA
ENDROOT
BRANCH   1   2
ATOM      2  C   UNL     1      44.940   4.580  11.990  0.00  0.00    +0.000 A 
ATOM      3  C   UNL     1      43.832   5.380  11.737  0.00  0.00    +0.000 A 
ATOM      4  C   UNL     1      43.911   6.754  11.945  0.00  0.00    +0.000 A 
ATOM      5  C   UNL     1      45.086   7.321  12.447  0.00  0.00    +0.000 A 
ATOM      6  C   UNL     1      46.180   6.521  12.804  0.00  0.00    +0.000 A 
ATOM      7  C   UNL     1      46.094   5.146  12.534  0.00  0.00    +0.000 A 
BRANCH   6   8
ATOM      8  C   UNL     1      47.455   7.042  13.462  0.00  0.00    +0.000 C 
ATOM      9  C   UNL     1      47.371   8.558  13.753  0.00  0.00    +0.000 C 
ATOM     10  C   UNL     1      47.527   9.384  12.481  0.00  0.00    +0.000 C 
ATOM     11  N   UNL     1      48.805   9.112  11.823  0.00  0.00    +0.000 NA
ATOM     12  C   UNL     1      48.947   7.693  11.493  0.00  0.00    +0.000 C 
ATOM     13  C   UNL     1      48.771   6.781  12.711  0.00  0.00    +0.000 C 
ATOM     14  H   UNL     1      49.565   9.386  12.446  0.00  0.00    +0.000 HD
ENDBRANCH   6   8
ENDBRANCH   1   2
BRANCH   1  15
ATOM     15  C   UNL     1      44.062   2.994  10.495  0.00  0.00    +0.000 C 
BRANCH  15  20
ATOM     16  C   UNL     1      46.422   1.905   7.717  0.00  0.00    +0.000 A 
ATOM     17  C   UNL     1      46.751   3.138   7.140  0.00  0.00    +0.000 A 
ATOM     18  C   UNL     1      46.230   4.320   7.668  0.00  0.00    +0.000 A 
ATOM     19  C   UNL     1      45.367   4.271   8.761  0.00  0.00    +0.000 A 
ATOM     20  C   UNL     1      45.011   3.042   9.331  0.00  0.00    +0.000 A 
ATOM     21  C   UNL     1      45.552   1.860   8.809  0.00  0.00    +0.000 A 
BRANCH  16  23
ATOM     22  N   UNL     1      47.438   0.613   5.915  0.00  0.00    +0.000 N 
ATOM     23  C   UNL     1      46.939   0.615   7.188  0.00  0.00    +0.000 C 
ATOM     24  O   UNL     1      46.958  -0.400   7.869  0.00  0.00    +0.000 OA
ATOM     25  H   UNL     1      47.874  -0.248   5.612  0.00  0.00    +0.000 HD
ATOM     26  H   UNL     1      47.679   1.462   5.425  0.00  0.00    +0.000 HD
ENDBRANCH  16  23
ENDBRANCH  15  20
ENDBRANCH   1  15
TORSDOF 5
ENDMDL
MODEL 3
REMARK VINA RESULT:    -6.737      4.563      8.126
REMARK INTER + INTRA:          -9.411
REMARK INTER:                  -9.389
REMARK INTRA:                  -0.022
REMARK UNBOUND:                -0.705
REMARK  Name = 
REMARK  5 active torsions:
REMARK  status: ('A' for Active; 'I' for Inactive)
REMARK    1  A    between atoms: C_2  and  C_4
REMARK    2  A    between atoms: C_8  and  C_9
REMARK    3  A    between atoms: C_9  and  O_10
REMARK    4  A    between atoms: O_10  and  C_11
REMARK    5  A    between atoms: C_15  and  C_16
REMARK                            x       y       z     vdW  Elec       q    Type
REMARK                         _______ _______ _______ _____ _____    ______ ____
ROOT
ATOM      1  O   UNL     1      47.294   3.601  14.714  0.00  0.00    +0.000 OA
ENDROOT
BRANCH   1   2
ATOM      2  C   UNL     1      46.896   4.504  13.770  0.00  0.00    +0.000 A 
ATOM      3  C   UNL     1      47.713   5.616  13.606  0.00  0.00    +0.000 A 
ATOM      4  C   UNL     1      47.340   6.622  12.721  0.00  0.00    +0.000 A 
ATOM      5  C   UNL     1      46.170   6.494  11.966  0.00  0.00    +0.000 A 
ATOM      6  C   UNL     1      45.385   5.336  12.040  0.00  0.00    +0.000 A 
ATOM      7  C   UNL     1      45.754   4.361  12.980  0.00  0.00    +0.000 A 
BRANCH   6   8
ATOM      8  C   UNL     1      44.159   5.064  11.173  0.00  0.00    +0.000 C 
ATOM      9  C   UNL     1      43.091   4.243  11.930  0.00  0.00    +0.000 C 
ATOM     10  C   UNL     1      43.494   2.778  12.058  0.00  0.00    +0.000 C 
ATOM     11  N   UNL     1      43.700   2.165  10.746  0.00  0.00    +0.000 NA
ATOM     12  C   UNL     1      44.720   2.878   9.975  0.00  0.00    +0.000 C 
ATOM     13  C   UNL     1      44.413   4.371   9.823  0.00  0.00    +0.000 C 
ATOM     14  H   UNL     1      42.820   2.183  10.229  0.00  0.00    +0.000 HD
ENDBRANCH   6   8
ENDBRANCH   1   2
BRANCH   1  15
ATOM     15  C   UNL     1      47.084   4.022  16.062  0.00  0.00    +0.000 C 
BRANCH  15  20
ATOM     16  C   UNL     1      50.511   3.200  17.495  0.00  0.00    +0.000 A 
ATOM     17  C   UNL     1      50.937   4.463  17.925  0.00  0.00    +0.000 A 
ATOM     18  C   UNL     1      50.102   5.572  17.774  0.00  0.00    +0.000 A 
ATOM     19  C   UNL     1      48.851   5.425  17.180  0.00  0.00    +0.000 A 
ATOM     20  C   UNL     1      48.425   4.171  16.723  0.00  0.00    +0.000 A 
ATOM     21  C   UNL     1      49.257   3.058  16.895  0.00  0.00    +0.000 A 
BRANCH  16  23
ATOM     22  N   UNL     1      52.415   2.047  18.490  0.00  0.00    +0.000 N 
ATOM     23  C   UNL     1      51.362   1.988  17.620  0.00  0.00    +0.000 C 
ATOM     24  O   UNL     1      51.115   0.960  17.006  0.00  0.00    +0.000 OA
ATOM     25  H   UNL     1      52.920   1.182  18.634  0.00  0.00    +0.000 HD
ATOM     26  H   UNL     1      52.497   2.764  19.195  0.00  0.00    +0.000 HD
ENDBRANCH  16  23
ENDBRANCH  15  20
ENDBRANCH   1  15
TORSDOF 5
ENDMDL
MODEL 4
REMARK VINA RESULT:    -6.723      4.089      8.132
REMARK INTER + INTRA:          -9.393
REMARK INTER:                  -8.752
REMARK INTRA:                  -0.641
REMARK UNBOUND:                -0.705
REMARK  Name = 
REMARK  5 active torsions:
REMARK  status: ('A' for Active; 'I' for Inactive)
REMARK    1  A    between atoms: C_2  and  C_4
REMARK    2  A    between atoms: C_8  and  C_9
REMARK    3  A    between atoms: C_9  and  O_10
REMARK    4  A    between atoms: O_10  and  C_11
REMARK    5  A    between atoms: C_15  and  C_16
REMARK                            x       y       z     vdW  Elec       q    Type
REMARK                         _______ _______ _______ _____ _____    ______ ____
ROOT
ATOM      1  O   UNL     1      49.064   6.676  13.932  0.00  0.00    +0.000 OA
ENDROOT
BRANCH   1   2
ATOM      2  C   UNL     1      47.804   6.692  13.404  0.00  0.00    +0.000 A 
ATOM      3  C   UNL     1      47.471   7.814  12.655  0.00  0.00    +0.000 A 
ATOM      4  C   UNL     1      46.183   7.946  12.147  0.00  0.00    +0.000 A 
ATOM      5  C   UNL     1      45.240   6.934  12.352  0.00  0.00    +0.000 A 
ATOM      6  C   UNL     1      45.585   5.750  13.016  0.00  0.00    +0.000 A 
ATOM      7  C   UNL     1      46.873   5.665  13.566  0.00  0.00    +0.000 A 
BRANCH   6   8
ATOM      8  C   UNL     1      44.655   4.551  13.185  0.00  0.00    +0.000 C 
ATOM      9  C   UNL     1      45.096   3.357  12.308  0.00  0.00    +0.000 C 
ATOM     10  C   UNL     1      44.760   3.584  10.837  0.00  0.00    +0.000 C 
ATOM     11  N   UNL     1      43.325   3.791  10.645  0.00  0.00    +0.000 NA
ATOM     12  C   UNL     1      42.836   4.926  11.429  0.00  0.00    +0.000 C 
ATOM     13  C   UNL     1      43.160   4.798  12.921  0.00  0.00    +0.000 C 
ATOM     14  H   UNL     1      42.826   2.949  10.933  0.00  0.00    +0.000 HD
ENDBRANCH   6   8
ENDBRANCH   1   2
BRANCH   1  15
ATOM     15  C   UNL     1      49.176   7.291  15.216  0.00  0.00    +0.000 C 
BRANCH  15  20
ATOM     16  C   UNL     1      48.978   4.353  17.625  0.00  0.00    +0.000 A 
ATOM     17  C   UNL     1      50.312   4.247  18.036  0.00  0.00    +0.000 A 
ATOM     18  C   UNL     1      51.267   5.143  17.553  0.00  0.00    +0.000 A 
ATOM     19  C   UNL     1      50.894   6.134  16.647  0.00  0.00    +0.000 A 
ATOM     20  C   UNL     1      49.567   6.234  16.210  0.00  0.00    +0.000 A 
ATOM     21  C   UNL     1      48.610   5.345  16.713  0.00  0.00    +0.000 A 
BRANCH  16  23
ATOM     22  N   UNL     1      48.102   2.836  19.322  0.00  0.00    +0.000 N 
ATOM     23  C   UNL     1      47.922   3.419  18.098  0.00  0.00    +0.000 C 
ATOM     24  O   UNL     1      46.911   3.205  17.446  0.00  0.00    +0.000 OA
ATOM     25  H   UNL     1      47.327   2.284  19.667  0.00  0.00    +0.000 HD
ATOM     26  H   UNL     1      48.774   3.178  19.993  0.00  0.00    +0.000 HD
ENDBRANCH  16  23
ENDBRANCH  15  20
ENDBRANCH   1  15
TORSDOF 5
ENDMDL
MODEL 5
REMARK VINA RESULT:    -6.595      3.325      7.709
REMARK INTER + INTRA:          -9.228
REMARK INTER:                  -8.676
REMARK INTRA:                  -0.552
REMARK UNBOUND:                -0.705
REMARK  Name = 
REMARK  5 active torsions:
REMARK  status: ('A' for Active; 'I' for Inactive)
REMARK    1  A    between atoms: C_2  and  C_4
REMARK    2  A    between atoms: C_8  and  C_9
REMARK    3  A    between atoms: C_9  and  O_10
REMARK    4  A    between atoms: O_10  and  C_11
REMARK    5  A    between atoms: C_15  and  C_16
REMARK                            x       y       z     vdW  Elec       q    Type
REMARK                         _______ _______ _______ _____ _____    ______ ____
ROOT
ATOM      1  O   UNL     1      48.529   7.603  11.646  0.00  0.00    +0.000 OA
ENDROOT
BRANCH   1   2
ATOM      2  C   UNL     1      47.580   6.737  12.110  0.00  0.00    +0.000 A 
ATOM      3  C   UNL     1      47.811   6.197  13.370  0.00  0.00    +0.000 A 
ATOM      4  C   UNL     1      46.934   5.248  13.885  0.00  0.00    +0.000 A 
ATOM      5  C   UNL     1      45.801   4.872  13.157  0.00  0.00    +0.000 A 
ATOM      6  C   UNL     1      45.495   5.478  11.932  0.00  0.00    +0.000 A 
ATOM      7  C   UNL     1      46.423   6.392  11.410  0.00  0.00    +0.000 A 
BRANCH   6   8
ATOM      8  C   UNL     1      44.225   5.211  11.128  0.00  0.00    +0.000 C 
ATOM      9  C   UNL     1      43.155   4.480  11.972  0.00  0.00    +0.000 C 
ATOM     10  C   UNL     1      43.503   3.009  12.169  0.00  0.00    +0.000 C 
ATOM     11  N   UNL     1      43.631   2.315  10.888  0.00  0.00    +0.000 NA
ATOM     12  C   UNL     1      44.647   2.938  10.039  0.00  0.00    +0.000 C 
ATOM     13  C   UNL     1      44.396   4.432   9.813  0.00  0.00    +0.000 C 
ATOM     14  H   UNL     1      42.733   2.342  10.405  0.00  0.00    +0.000 HD
ENDBRANCH   6   8
ENDBRANCH   1   2
BRANCH   1  15
ATOM     15  C   UNL     1      48.707   8.771  12.448  0.00  0.00    +0.000 C 
BRANCH  15  20
ATOM     16  C   UNL     1      45.923  11.160  11.440  0.00  0.00    +0.000 A 
ATOM     17  C   UNL     1      46.612  12.044  10.600  0.00  0.00    +0.000 A 
ATOM     18  C   UNL     1      47.970  11.848  10.341  0.00  0.00    +0.000 A 
ATOM     19  C   UNL     1      48.644  10.781  10.933  0.00  0.00    +0.000 A 
ATOM     20  C   UNL     1      47.970   9.906  11.795  0.00  0.00    +0.000 A 
ATOM     21  C   UNL     1      46.604  10.095  12.035  0.00  0.00    +0.000 A 
BRANCH  16  23
ATOM     22  N   UNL     1      43.788  10.211  12.137  0.00  0.00    +0.000 N 
ATOM     23  C   UNL     1      44.481  11.327  11.760  0.00  0.00    +0.000 C 
ATOM     24  O   UNL     1      43.936  12.421  11.729  0.00  0.00    +0.000 OA
ATOM     25  H   UNL     1      42.836  10.364  12.445  0.00  0.00    +0.000 HD
ATOM     26  H   UNL     1      44.245   9.359  12.424  0.00  0.00    +0.000 HD
ENDBRANCH  16  23
ENDBRANCH  15  20
ENDBRANCH   1  15
TORSDOF 5
ENDMDL
MODEL 6
REMARK VINA RESULT:    -6.366      4.466      6.231
REMARK INTER + INTRA:          -8.932
REMARK INTER:                  -8.354
REMARK INTRA:                  -0.578
REMARK UNBOUND:                -0.705
REMARK  Name = 
REMARK  5 active torsions:
REMARK  status: ('A' for Active; 'I' for Inactive)
REMARK    1  A    between atoms: C_2  and  C_4
REMARK    2  A    between atoms: C_8  and  C_9
REMARK    3  A    between atoms: C_9  and  O_10
REMARK    4  A    between atoms: O_10  and  C_11
REMARK    5  A    between atoms: C_15  and  C_16
REMARK                            x       y       z     vdW  Elec       q    Type
REMARK                         _______ _______ _______ _____ _____    ______ ____
ROOT
ATOM      1  O   UNL     1      46.924   4.142  15.195  0.00  0.00    +0.000 OA
ENDROOT
BRANCH   1   2
ATOM      2  C   UNL     1      47.470   4.088  16.445  0.00  0.00    +0.000 A 
ATOM      3  C   UNL     1      48.367   3.052  16.674  0.00  0.00    +0.000 A 
ATOM      4  C   UNL     1      48.910   2.877  17.943  0.00  0.00    +0.000 A 
ATOM      5  C   UNL     1      48.590   3.768  18.972  0.00  0.00    +0.000 A 
ATOM      6  C   UNL     1      47.768   4.878  18.737  0.00  0.00    +0.000 A 
ATOM      7  C   UNL     1      47.190   5.000  17.464  0.00  0.00    +0.000 A 
BRANCH   6   8
ATOM      8  C   UNL     1      47.459   5.959  19.769  0.00  0.00    +0.000 C 
ATOM      9  C   UNL     1      47.585   7.378  19.169  0.00  0.00    +0.000 C 
ATOM     10  C   UNL     1      49.044   7.782  18.981  0.00  0.00    +0.000 C 
ATOM     11  N   UNL     1      49.771   7.754  20.250  0.00  0.00    +0.000 NA
ATOM     12  C   UNL     1      49.716   6.429  20.871  0.00  0.00    +0.000 C 
ATOM     13  C   UNL     1      48.283   5.926  21.068  0.00  0.00    +0.000 C 
ATOM     14  H   UNL     1      49.357   8.435  20.886  0.00  0.00    +0.000 HD
ENDBRANCH   6   8
ENDBRANCH   1   2
BRANCH   1  15
ATOM     15  C   UNL     1      47.358   5.251  14.406  0.00  0.00    +0.000 C 
BRANCH  15  20
ATOM     16  C   UNL     1      45.008   4.173  11.616  0.00  0.00    +0.000 A 
ATOM     17  C   UNL     1      45.122   5.252  10.730  0.00  0.00    +0.000 A 
ATOM     18  C   UNL     1      45.980   6.313  11.027  0.00  0.00    +0.000 A 
ATOM     19  C   UNL     1      46.710   6.305  12.213  0.00  0.00    +0.000 A 
ATOM     20  C   UNL     1      46.585   5.243  13.118  0.00  0.00    +0.000 A 
ATOM     21  C   UNL     1      45.738   4.172  12.806  0.00  0.00    +0.000 A 
BRANCH  16  23
ATOM     22  N   UNL     1      43.651   2.322  12.439  0.00  0.00    +0.000 N 
ATOM     23  C   UNL     1      44.102   3.023  11.356  0.00  0.00    +0.000 C 
ATOM     24  O   UNL     1      43.736   2.732  10.226  0.00  0.00    +0.000 OA
ATOM     25  H   UNL     1      42.959   1.609  12.248  0.00  0.00    +0.000 HD
ATOM     26  H   UNL     1      43.713   2.679  13.382  0.00  0.00    +0.000 HD
ENDBRANCH  16  23
ENDBRANCH  15  20
ENDBRANCH   1  15
TORSDOF 5
ENDMDL
MODEL 7
REMARK VINA RESULT:    -6.272      4.827      9.070
REMARK INTER + INTRA:          -8.810
REMARK INTER:                  -8.298
REMARK INTRA:                  -0.512
REMARK UNBOUND:                -0.705
REMARK  Name = 
REMARK  5 active torsions:
REMARK  status: ('A' for Active; 'I' for Inactive)
REMARK    1  A    between atoms: C_2  and  C_4
REMARK    2  A    between atoms: C_8  and  C_9
REMARK    3  A    between atoms: C_9  and  O_10
REMARK    4  A    between atoms: O_10  and  C_11
REMARK    5  A    between atoms: C_15  and  C_16
REMARK                            x       y       z     vdW  Elec       q    Type
REMARK                         _______ _______ _______ _____ _____    ______ ____
ROOT
ATOM      1  O   UNL     1      48.219   5.390  14.972  0.00  0.00    +0.000 OA
ENDROOT
BRANCH   1   2
ATOM      2  C   UNL     1      47.616   5.641  13.772  0.00  0.00    +0.000 A 
ATOM      3  C   UNL     1      48.089   6.743  13.071  0.00  0.00    +0.000 A 
ATOM      4  C   UNL     1      47.479   7.116  11.878  0.00  0.00    +0.000 A 
ATOM      5  C   UNL     1      46.423   6.358  11.363  0.00  0.00    +0.000 A 
ATOM      6  C   UNL     1      45.997   5.186  12.001  0.00  0.00    +0.000 A 
ATOM      7  C   UNL     1      46.592   4.863  13.230  0.00  0.00    +0.000 A 
BRANCH   6   8
ATOM      8  C   UNL     1      44.932   4.240  11.452  0.00  0.00    +0.000 C 
ATOM      9  C   UNL     1      43.996   4.951  10.448  0.00  0.00    +0.000 C 
ATOM     10  C   UNL     1      43.008   5.873  11.156  0.00  0.00    +0.000 C 
ATOM     11  N   UNL     1      42.182   5.135  12.112  0.00  0.00    +0.000 NA
ATOM     12  C   UNL     1      43.002   4.450  13.113  0.00  0.00    +0.000 C 
ATOM     13  C   UNL     1      44.049   3.524  12.488  0.00  0.00    +0.000 C 
ATOM     14  H   UNL     1      41.628   4.443  11.607  0.00  0.00    +0.000 HD
ENDBRANCH   6   8
ENDBRANCH   1   2
BRANCH   1  15
ATOM     15  C   UNL     1      47.372   4.774  15.943  0.00  0.00    +0.000 C 
BRANCH  15  20
ATOM     16  C   UNL     1      48.182   5.376  19.611  0.00  0.00    +0.000 A 
ATOM     17  C   UNL     1      49.425   4.741  19.723  0.00  0.00    +0.000 A 
ATOM     18  C   UNL     1      50.010   4.143  18.605  0.00  0.00    +0.000 A 
ATOM     19  C   UNL     1      49.347   4.164  17.380  0.00  0.00    +0.000 A 
ATOM     20  C   UNL     1      48.092   4.775  17.261  0.00  0.00    +0.000 A 
ATOM     21  C   UNL     1      47.519   5.390  18.381  0.00  0.00    +0.000 A 
BRANCH  16  23
ATOM     22  N   UNL     1      47.193   5.221  21.834  0.00  0.00    +0.000 N 
ATOM     23  C   UNL     1      47.509   6.019  20.770  0.00  0.00    +0.000 C 
ATOM     24  O   UNL     1      47.278   7.219  20.798  0.00  0.00    +0.000 OA
ATOM     25  H   UNL     1      46.828   5.695  22.650  0.00  0.00    +0.000 HD
ATOM     26  H   UNL     1      47.593   4.303  21.962  0.00  0.00    +0.000 HD
ENDBRANCH  16  23
ENDBRANCH  15  20
ENDBRANCH   1  15
TORSDOF 5
ENDMDL
MODEL 8
REMARK VINA RESULT:    -6.076      4.261      6.580
REMARK INTER + INTRA:          -8.556
REMARK INTER:                  -7.544
REMARK INTRA:                  -1.012
REMARK UNBOUND:                -0.705
REMARK  Name = 
REMARK  5 active torsions:
REMARK  status: ('A' for Active; 'I' for Inactive)
REMARK    1  A    between atoms: C_2  and  C_4
REMARK    2  A    between atoms: C_8  and  C_9
REMARK    3  A    between atoms: C_9  and  O_10
REMARK    4  A    between atoms: O_10  and  C_11
REMARK    5  A    between atoms: C_15  and  C_16
REMARK                            x       y       z     vdW  Elec       q    Type
REMARK                         _______ _______ _______ _____ _____    ______ ____
ROOT
ATOM      1  O   UNL     1      48.946   8.152  14.597  0.00  0.00    +0.000 OA
ENDROOT
BRANCH   1   2
ATOM      2  C   UNL     1      49.659   7.376  15.465  0.00  0.00    +0.000 A 
ATOM      3  C   UNL     1      51.042   7.488  15.388  0.00  0.00    +0.000 A 
ATOM      4  C   UNL     1      51.845   6.676  16.182  0.00  0.00    +0.000 A 
ATOM      5  C   UNL     1      51.263   5.781  17.085  0.00  0.00    +0.000 A 
ATOM      6  C   UNL     1      49.873   5.724  17.251  0.00  0.00    +0.000 A 
ATOM      7  C   UNL     1      49.085   6.514  16.400  0.00  0.00    +0.000 A 
BRANCH   6   8
ATOM      8  C   UNL     1      49.161   4.862  18.290  0.00  0.00    +0.000 C 
ATOM      9  C   UNL     1      49.530   3.367  18.145  0.00  0.00    +0.000 C 
ATOM     10  C   UNL     1      48.840   2.731  16.943  0.00  0.00    +0.000 C 
ATOM     11  N   UNL     1      47.384   2.837  17.047  0.00  0.00    +0.000 NA
ATOM     12  C   UNL     1      46.955   4.231  17.164  0.00  0.00    +0.000 C 
ATOM     13  C   UNL     1      47.627   4.963  18.331  0.00  0.00    +0.000 C 
ATOM     14  H   UNL     1      47.072   2.323  17.871  0.00  0.00    +0.000 HD
ENDBRANCH   6   8
ENDBRANCH   1   2
BRANCH   1  15
ATOM     15  C   UNL     1      49.032   7.746  13.230  0.00  0.00    +0.000 C 
BRANCH  15  20
ATOM     16  C   UNL     1      46.239   5.209  12.743  0.00  0.00    +0.000 A 
ATOM     17  C   UNL     1      45.253   6.001  12.139  0.00  0.00    +0.000 A 
ATOM     18  C   UNL     1      45.506   7.347  11.868  0.00  0.00    +0.000 A 
ATOM     19  C   UNL     1      46.734   7.907  12.213  0.00  0.00    +0.000 A 
ATOM     20  C   UNL     1      47.718   7.131  12.840  0.00  0.00    +0.000 A 
ATOM     21  C   UNL     1      47.467   5.776  13.092  0.00  0.00    +0.000 A 
BRANCH  16  23
ATOM     22  N   UNL     1      46.974   3.147  13.816  0.00  0.00    +0.000 N 
ATOM     23  C   UNL     1      46.020   3.774  13.065  0.00  0.00    +0.000 C 
ATOM     24  O   UNL     1      45.012   3.180  12.711  0.00  0.00    +0.000 OA
ATOM     25  H   UNL     1      46.758   2.202  14.107  0.00  0.00    +0.000 HD
ATOM     26  H   UNL     1      47.673   3.653  14.339  0.00  0.00    +0.000 HD
ENDBRANCH  16  23
ENDBRANCH  15  20
ENDBRANCH   1  15
TORSDOF 5
ENDMDL
MODEL 9
REMARK VINA RESULT:    -5.908      4.294      6.440
REMARK INTER + INTRA:          -8.339
REMARK INTER:                  -7.557
REMARK INTRA:                  -0.782
REMARK UNBOUND:                -0.705
REMARK  Name = 
REMARK  5 active torsions:
REMARK  status: ('A' for Active; 'I' for Inactive)
REMARK    1  A    between atoms: C_2  and  C_4
REMARK    2  A    between atoms: C_8  and  C_9
REMARK    3  A    between atoms: C_9  and  O_10
REMARK    4  A    between atoms: O_10  and  C_11
REMARK    5  A    between atoms: C_15  and  C_16
REMARK                            x       y       z     vdW  Elec       q    Type
REMARK                         _______ _______ _______ _____ _____    ______ ____
ROOT
ATOM      1  O   UNL     1      48.062   7.599  14.114  0.00  0.00    +0.000 OA
ENDROOT
BRANCH   1   2
ATOM      2  C   UNL     1      49.056   7.225  14.973  0.00  0.00    +0.000 A 
ATOM      3  C   UNL     1      50.315   7.754  14.717  0.00  0.00    +0.000 A 
ATOM      4  C   UNL     1      51.399   7.364  15.497  0.00  0.00    +0.000 A 
ATOM      5  C   UNL     1      51.214   6.477  16.562  0.00  0.00    +0.000 A 
ATOM      6  C   UNL     1      49.937   6.010  16.900  0.00  0.00    +0.000 A 
ATOM      7  C   UNL     1      48.870   6.376  16.065  0.00  0.00    +0.000 A 
BRANCH   6   8
ATOM      8  C   UNL     1      49.629   5.133  18.111  0.00  0.00    +0.000 C 
ATOM      9  C   UNL     1      50.883   4.374  18.603  0.00  0.00    +0.000 C 
ATOM     10  C   UNL     1      51.236   3.213  17.679  0.00  0.00    +0.000 C 
ATOM     11  N   UNL     1      50.132   2.258  17.577  0.00  0.00    +0.000 NA
ATOM     12  C   UNL     1      48.910   2.902  17.092  0.00  0.00    +0.000 C 
ATOM     13  C   UNL     1      48.496   4.106  17.944  0.00  0.00    +0.000 C 
ATOM     14  H   UNL     1      49.954   1.857  18.497  0.00  0.00    +0.000 HD
ENDBRANCH   6   8
ENDBRANCH   1   2
BRANCH   1  15
ATOM     15  C   UNL     1      48.105   6.952  12.842  0.00  0.00    +0.000 C 
BRANCH  15  20
ATOM     16  C   UNL     1      44.648   5.566  12.065  0.00  0.00    +0.000 A 
ATOM     17  C   UNL     1      44.760   4.260  12.556  0.00  0.00    +0.000 A 
ATOM     18  C   UNL     1      45.946   3.839  13.161  0.00  0.00    +0.000 A 
ATOM     19  C   UNL     1      47.024   4.717  13.262  0.00  0.00    +0.000 A 
ATOM     20  C   UNL     1      46.931   6.018  12.751  0.00  0.00    +0.000 A 
ATOM     21  C   UNL     1      45.733   6.441  12.163  0.00  0.00    +0.000 A 
BRANCH  16  23
ATOM     22  N   UNL     1      43.339   7.402  11.134  0.00  0.00    +0.000 N 
ATOM     23  C   UNL     1      43.413   6.063  11.401  0.00  0.00    +0.000 C 
ATOM     24  O   UNL     1      42.512   5.308  11.066  0.00  0.00    +0.000 OA
ATOM     25  H   UNL     1      42.538   7.702  10.595  0.00  0.00    +0.000 HD
ATOM     26  H   UNL     1      44.149   8.005  11.152  0.00  0.00    +0.000 HD
ENDBRANCH  16  23
ENDBRANCH  15  20
ENDBRANCH   1  15
TORSDOF 5
ENDMDL
