MODEL 1
REMARK VINA RESULT:    -6.309      0.000      0.000
REMARK INTER + INTRA:          -8.656
REMARK INTER:                  -7.785
REMARK INTRA:                  -0.871
REMARK UNBOUND:                -0.871
REMARK  Name = 
REMARK  6 active torsions:
REMARK  status: ('A' for Active; 'I' for Inactive)
REMARK    1  A    between atoms: C_1  and  O_2
REMARK    2  A    between atoms: O_2  and  C_3
REMARK    3  A    between atoms: C_5  and  C_6
REMARK    4  A    between atoms: N_9  and  C_10
REMARK    5  A    between atoms: C_10  and  C_11
REMARK    6  A    between atoms: C_15  and  C_16
REMARK                            x       y       z     vdW  Elec       q    Type
REMARK                         _______ _______ _______ _____ _____    ______ ____
ROOT
ATOM      1  C   UNL     1      48.919   7.867  12.580  0.00  0.00    +0.000 C 
ATOM      2  C   UNL     1      49.833   8.060  11.376  0.00  0.00    +0.000 C 
ATOM      3  C   UNL     1      49.733   9.137  12.402  0.00  0.00    +0.000 C 
ENDROOT
BRANCH   1  10
ATOM      4  C   UNL     1      48.631   8.077  16.816  0.00  0.00    +0.000 A 
ATOM      5  C   UNL     1      48.513   6.929  17.559  0.00  0.00    +0.000 A 
ATOM      6  C   UNL     1      48.633   5.755  16.856  0.00  0.00    +0.000 A 
ATOM      7  C   UNL     1      48.437   4.430  17.525  0.00  0.00    +0.000 C 
ATOM      8  N   UNL     1      48.882   5.735  15.530  0.00  0.00    +0.000 NA
ATOM      9  C   UNL     1      49.007   6.913  14.895  0.00  0.00    +0.000 A 
ATOM     10  N   UNL     1      49.316   6.822  13.532  0.00  0.00    +0.000 N 
ATOM     11  N   UNL     1      48.877   8.099  15.497  0.00  0.00    +0.000 NA
ATOM     12  H   UNL     1      49.142   5.857  13.275  0.00  0.00    +0.000 HD
BRANCH   4  14
ATOM     13  C   UNL     1      47.747   9.112  18.707  0.00  0.00    +0.000 C 
ATOM     14  O   UNL     1      48.499   9.266  17.508  0.00  0.00    +0.000 OA
ENDBRANCH   4  14
ENDBRANCH   1  10
BRANCH   1  15
ATOM     15  C   UNL     1      47.415   7.984  12.353  0.00  0.00    +0.000 A 
ATOM     16  C   UNL     1      46.777   9.230  12.405  0.00  0.00    +0.000 A 
ATOM     17  C   UNL     1      45.437   9.366  12.058  0.00  0.00    +0.000 A 
ATOM     18  C   UNL     1      44.710   8.252  11.640  0.00  0.00    +0.000 A 
ATOM     19  C   UNL     1      45.284   6.974  11.611  0.00  0.00    +0.000 A 
ATOM     20  C   UNL     1      46.633   6.866  12.002  0.00  0.00    +0.000 A 
BRANCH  19  21
ATOM     21  C   UNL     1      44.575   5.738  11.057  0.00  0.00    +0.000 C 
ATOM     22  C   UNL     1      43.082   5.601  11.402  0.00  0.00    +0.000 C 
ATOM     23  C   UNL     1      42.854   5.091  12.827  0.00  0.00    +0.000 C 
ATOM     24  N   UNL     1      43.539   3.821  13.071  0.00  0.00    +0.000 NA
ATOM     25  C   UNL     1      44.974   3.940  12.817  0.00  0.00    +0.000 C 
ATOM     26  C   UNL     1      45.276   4.406  11.395  0.00  0.00    +0.000 C 
ATOM     27  H   UNL     1      43.148   3.109  12.456  0.00  0.00    +0.000 HD
ENDBRANCH  19  21
ENDBRANCH   1  15
TORSDOF 4
ENDMDL
MODEL 2
REMARK VINA RESULT:    -5.702      1.926      2.786
REMARK INTER + INTRA:          -7.906
REMARK INTER:                  -8.118
REMARK INTRA:                   0.212
REMARK UNBOUND:                -0.871
REMARK  Name = 
REMARK  6 active torsions:
REMARK  status: ('A' for Active; 'I' for Inactive)
REMARK    1  A    between atoms: C_1  and  O_2
REMARK    2  A    between atoms: O_2  and  C_3
REMARK    3  A    between atoms: C_5  and  C_6
REMARK    4  A    between atoms: N_9  and  C_10
REMARK    5  A    between atoms: C_10  and  C_11
REMARK    6  A    between atoms: C_15  and  C_16
REMARK                            x       y       z     vdW  Elec       q    Type
REMARK                         _______ _______ _______ _____ _____    ______ ____
ROOT
ATOM      1  C   UNL     1      48.511   7.897  14.463  0.00  0.00    +0.000 C 
ATOM      2  C   UNL     1      49.823   7.342  13.920  0.00  0.00    +0.000 C 
ATOM      3  C   UNL     1      49.574   8.812  13.880  0.00  0.00    +0.000 C 
ENDROOT
BRANCH   1  10
ATOM      4  C   UNL     1      48.599   4.298  16.725  0.00  0.00    +0.000 A 
ATOM      5  C   UNL     1      48.930   4.326  18.057  0.00  0.00    +0.000 A 
ATOM      6  C   UNL     1      49.083   5.578  18.601  0.00  0.00    +0.000 A 
ATOM      7  C   UNL     1      49.528   5.755  20.020  0.00  0.00    +0.000 C 
ATOM      8  N   UNL     1      48.890   6.703  17.881  0.00  0.00    +0.000 NA
ATOM      9  C   UNL     1      48.543   6.571  16.589  0.00  0.00    +0.000 A 
ATOM     10  N   UNL     1      48.308   7.775  15.912  0.00  0.00    +0.000 N 
ATOM     11  N   UNL     1      48.401   5.393  15.974  0.00  0.00    +0.000 NA
ATOM     12  H   UNL     1      48.690   8.503  16.506  0.00  0.00    +0.000 HD
BRANCH   4  14
ATOM     13  C   UNL     1      49.328   2.085  16.746  0.00  0.00    +0.000 C 
ATOM     14  O   UNL     1      48.455   3.045  16.160  0.00  0.00    +0.000 OA
ENDBRANCH   4  14
ENDBRANCH   1  10
BRANCH   1  15
ATOM     15  C   UNL     1      47.254   7.690  13.624  0.00  0.00    +0.000 A 
ATOM     16  C   UNL     1      46.464   8.780  13.237  0.00  0.00    +0.000 A 
ATOM     17  C   UNL     1      45.400   8.619  12.355  0.00  0.00    +0.000 A 
ATOM     18  C   UNL     1      45.115   7.358  11.832  0.00  0.00    +0.000 A 
ATOM     19  C   UNL     1      45.844   6.226  12.218  0.00  0.00    +0.000 A 
ATOM     20  C   UNL     1      46.891   6.418  13.140  0.00  0.00    +0.000 A 
BRANCH  19  21
ATOM     21  C   UNL     1      45.653   4.842  11.597  0.00  0.00    +0.000 C 
ATOM     22  C   UNL     1      44.798   4.784  10.319  0.00  0.00    +0.000 C 
ATOM     23  C   UNL     1      43.298   4.858  10.614  0.00  0.00    +0.000 C 
ATOM     24  N   UNL     1      42.869   3.813  11.545  0.00  0.00    +0.000 NA
ATOM     25  C   UNL     1      43.619   3.887  12.798  0.00  0.00    +0.000 C 
ATOM     26  C   UNL     1      45.126   3.777  12.582  0.00  0.00    +0.000 C 
ATOM     27  H   UNL     1      43.023   2.902  11.116  0.00  0.00    +0.000 HD
ENDBRANCH  19  21
ENDBRANCH   1  15
TORSDOF 4
ENDMDL
MODEL 3
REMARK VINA RESULT:    -5.358      2.632      6.345
REMARK INTER + INTRA:          -7.481
REMARK INTER:                  -7.948
REMARK INTRA:                   0.467
REMARK UNBOUND:                -0.871
REMARK  Name = 
REMARK  6 active torsions:
REMARK  status: ('A' for Active; 'I' for Inactive)
REMARK    1  A    between atoms: C_1  and  O_2
REMARK    2  A    between atoms: O_2  and  C_3
REMARK    3  A    between atoms: C_5  and  C_6
REMARK    4  A    between atoms: N_9  and  C_10
REMARK    5  A    between atoms: C_10  and  C_11
REMARK    6  A    between atoms: C_15  and  C_16
REMARK                            x       y       z     vdW  Elec       q    Type
REMARK                         _______ _______ _______ _____ _____    ______ ____
ROOT
ATOM      1  C   UNL     1      47.790   8.057  13.211  0.00  0.00    +0.000 C 
ATOM      2  C   UNL     1      48.222   9.099  12.185  0.00  0.00    +0.000 C 
ATOM      3  C   UNL     1      48.643   7.679  12.012  0.00  0.00    +0.000 C 
ENDROOT
BRANCH   1  10
ATOM      4  C   UNL     1      45.609   5.697  10.427  0.00  0.00    +0.000 A 
ATOM      5  C   UNL     1      44.463   5.050  10.817  0.00  0.00    +0.000 A 
ATOM      6  C   UNL     1      44.028   5.335  12.089  0.00  0.00    +0.000 A 
ATOM      7  C   UNL     1      42.841   4.633  12.674  0.00  0.00    +0.000 C 
ATOM      8  N   UNL     1      44.667   6.215  12.886  0.00  0.00    +0.000 NA
ATOM      9  C   UNL     1      45.768   6.818  12.404  0.00  0.00    +0.000 A 
ATOM     10  N   UNL     1      46.354   7.758  13.262  0.00  0.00    +0.000 N 
ATOM     11  N   UNL     1      46.275   6.578  11.191  0.00  0.00    +0.000 NA
ATOM     12  H   UNL     1      45.936   7.597  14.171  0.00  0.00    +0.000 HD
BRANCH   4  14
ATOM     13  C   UNL     1      45.400   4.292   8.581  0.00  0.00    +0.000 C 
ATOM     14  O   UNL     1      46.067   5.411   9.155  0.00  0.00    +0.000 OA
ENDBRANCH   4  14
ENDBRANCH   1  10
BRANCH   1  15
ATOM     15  C   UNL     1      48.487   8.068  14.568  0.00  0.00    +0.000 A 
ATOM     16  C   UNL     1      48.766   9.275  15.221  0.00  0.00    +0.000 A 
ATOM     17  C   UNL     1      49.268   9.291  16.518  0.00  0.00    +0.000 A 
ATOM     18  C   UNL     1      49.493   8.091  17.192  0.00  0.00    +0.000 A 
ATOM     19  C   UNL     1      49.274   6.854  16.572  0.00  0.00    +0.000 A 
ATOM     20  C   UNL     1      48.798   6.873  15.246  0.00  0.00    +0.000 A 
BRANCH  19  21
ATOM     21  C   UNL     1      49.392   5.511  17.293  0.00  0.00    +0.000 C 
ATOM     22  C   UNL     1      48.661   4.324  16.641  0.00  0.00    +0.000 C 
ATOM     23  C   UNL     1      47.156   4.339  16.918  0.00  0.00    +0.000 C 
ATOM     24  N   UNL     1      46.863   4.375  18.352  0.00  0.00    +0.000 NA
ATOM     25  C   UNL     1      47.490   5.534  18.987  0.00  0.00    +0.000 C 
ATOM     26  C   UNL     1      49.003   5.560  18.785  0.00  0.00    +0.000 C 
ATOM     27  H   UNL     1      47.216   3.524  18.785  0.00  0.00    +0.000 HD
ENDBRANCH  19  21
ENDBRANCH   1  15
TORSDOF 4
ENDMDL
MODEL 4
REMARK VINA RESULT:    -5.310      2.711      4.316
REMARK INTER + INTRA:          -7.422
REMARK INTER:                  -7.440
REMARK INTRA:                   0.018
REMARK UNBOUND:                -0.871
REMARK  Name = 
REMARK  6 active torsions:
REMARK  status: ('A' for Active; 'I' for Inactive)
REMARK    1  A    between atoms: C_1  and  O_2
REMARK    2  A    between atoms: O_2  and  C_3
REMARK    3  A    between atoms: C_5  and  C_6
REMARK    4  A    between atoms: N_9  and  C_10
REMARK    5  A    between atoms: C_10  and  C_11
REMARK    6  A    between atoms: C_15  and  C_16
REMARK                            x       y       z     vdW  Elec       q    Type
REMARK                         _______ _______ _______ _____ _____    ______ ____
ROOT
ATOM      1  C   UNL     1      48.065   8.298  12.433  0.00  0.00    +0.000 C 
ATOM      2  C   UNL     1      47.223   9.558  12.598  0.00  0.00    +0.000 C 
ATOM      3  C   UNL     1      48.176   9.164  13.675  0.00  0.00    +0.000 C 
ENDROOT
BRANCH   1  10
ATOM      4  C   UNL     1      52.260   8.715  12.979  0.00  0.00    +0.000 A 
ATOM      5  C   UNL     1      53.133   8.218  12.043  0.00  0.00    +0.000 A 
ATOM      6  C   UNL     1      52.553   7.723  10.900  0.00  0.00    +0.000 A 
ATOM      7  C   UNL     1      53.380   7.071   9.835  0.00  0.00    +0.000 C 
ATOM      8  N   UNL     1      51.219   7.754  10.700  0.00  0.00    +0.000 NA
ATOM      9  C   UNL     1      50.450   8.285  11.666  0.00  0.00    +0.000 A 
ATOM     10  N   UNL     1      49.081   8.334  11.373  0.00  0.00    +0.000 N 
ATOM     11  N   UNL     1      50.928   8.762  12.819  0.00  0.00    +0.000 NA
ATOM     12  H   UNL     1      48.949   7.728  10.571  0.00  0.00    +0.000 HD
BRANCH   4  14
ATOM     13  C   UNL     1      52.250  10.441  14.543  0.00  0.00    +0.000 C 
ATOM     14  O   UNL     1      52.827   9.204  14.141  0.00  0.00    +0.000 OA
ENDBRANCH   4  14
ENDBRANCH   1  10
BRANCH   1  15
ATOM     15  C   UNL     1      47.366   6.952  12.600  0.00  0.00    +0.000 A 
ATOM     16  C   UNL     1      47.624   6.145  13.715  0.00  0.00    +0.000 A 
ATOM     17  C   UNL     1      46.888   4.988  13.950  0.00  0.00    +0.000 A 
ATOM     18  C   UNL     1      45.868   4.622  13.073  0.00  0.00    +0.000 A 
ATOM     19  C   UNL     1      45.596   5.368  11.918  0.00  0.00    +0.000 A 
ATOM     20  C   UNL     1      46.382   6.514  11.692  0.00  0.00    +0.000 A 
BRANCH  19  21
ATOM     21  C   UNL     1      44.421   5.083  10.982  0.00  0.00    +0.000 C 
ATOM     22  C   UNL     1      43.206   4.381  11.613  0.00  0.00    +0.000 C 
ATOM     23  C   UNL     1      43.426   2.877  11.793  0.00  0.00    +0.000 C 
ATOM     24  N   UNL     1      43.780   2.220  10.534  0.00  0.00    +0.000 NA
ATOM     25  C   UNL     1      44.975   2.823   9.944  0.00  0.00    +0.000 C 
ATOM     26  C   UNL     1      44.810   4.320   9.698  0.00  0.00    +0.000 C 
ATOM     27  H   UNL     1      43.002   2.311   9.881  0.00  0.00    +0.000 HD
ENDBRANCH  19  21
ENDBRANCH   1  15
TORSDOF 4
ENDMDL
MODEL 5
REMARK VINA RESULT:    -5.228      2.774      6.812
REMARK INTER + INTRA:          -7.321
REMARK INTER:                  -6.582
REMARK INTRA:                  -0.739
REMARK UNBOUND:                -0.871
REMARK  Name = 
REMARK  6 active torsions:
REMARK  status: ('A' for Active; 'I' for Inactive)
REMARK    1  A    between atoms: C_1  and  O_2
REMARK    2  A    between atoms: O_2  and  C_3
REMARK    3  A    between atoms: C_5  and  C_6
REMARK    4  A    between atoms: N_9  and  C_10
REMARK    5  A    between atoms: C_10  and  C_11
REMARK    6  A    between atoms: C_15  and  C_16
REMARK                            x       y       z     vdW  Elec       q    Type
REMARK                         _______ _______ _______ _____ _____    ______ ____
ROOT
ATOM      1  C   UNL     1      50.086   7.443  15.987  0.00  0.00    +0.000 C 
ATOM      2  C   UNL     1      51.539   7.904  16.001  0.00  0.00    +0.000 C 
ATOM      3  C   UNL     1      51.215   6.487  16.336  0.00  0.00    +0.000 C 
ENDROOT
BRANCH   1  10
ATOM      4  C   UNL     1      47.123   4.675  14.708  0.00  0.00    +0.000 A 
ATOM      5  C   UNL     1      46.222   5.027  13.735  0.00  0.00    +0.000 A 
ATOM      6  C   UNL     1      46.441   6.246  13.140  0.00  0.00    +0.000 A 
ATOM      7  C   UNL     1      45.485   6.794  12.125  0.00  0.00    +0.000 C 
ATOM      8  N   UNL     1      47.491   7.027  13.469  0.00  0.00    +0.000 NA
ATOM      9  C   UNL     1      48.334   6.582  14.417  0.00  0.00    +0.000 A 
ATOM     10  N   UNL     1      49.430   7.416  14.674  0.00  0.00    +0.000 N 
ATOM     11  N   UNL     1      48.179   5.424  15.065  0.00  0.00    +0.000 NA
ATOM     12  H   UNL     1      49.208   8.303  14.238  0.00  0.00    +0.000 HD
BRANCH   4  14
ATOM     13  C   UNL     1      47.441   3.420  16.645  0.00  0.00    +0.000 C 
ATOM     14  O   UNL     1      46.908   3.457  15.325  0.00  0.00    +0.000 OA
ENDBRANCH   4  14
ENDBRANCH   1  10
BRANCH   1  15
ATOM     15  C   UNL     1      49.190   7.889  17.138  0.00  0.00    +0.000 A 
ATOM     16  C   UNL     1      48.570   9.145  17.119  0.00  0.00    +0.000 A 
ATOM     17  C   UNL     1      47.640   9.502  18.090  0.00  0.00    +0.000 A 
ATOM     18  C   UNL     1      47.305   8.598  19.098  0.00  0.00    +0.000 A 
ATOM     19  C   UNL     1      47.926   7.346  19.192  0.00  0.00    +0.000 A 
ATOM     20  C   UNL     1      48.888   7.029  18.213  0.00  0.00    +0.000 A 
BRANCH  19  21
ATOM     21  C   UNL     1      47.521   6.272  20.202  0.00  0.00    +0.000 C 
ATOM     22  C   UNL     1      47.633   6.661  21.686  0.00  0.00    +0.000 C 
ATOM     23  C   UNL     1      49.073   6.602  22.201  0.00  0.00    +0.000 C 
ATOM     24  N   UNL     1      49.678   5.286  21.986  0.00  0.00    +0.000 NA
ATOM     25  C   UNL     1      49.648   4.919  20.571  0.00  0.00    +0.000 C 
ATOM     26  C   UNL     1      48.232   4.918  20.001  0.00  0.00    +0.000 C 
ATOM     27  H   UNL     1      49.162   4.591  22.524  0.00  0.00    +0.000 HD
ENDBRANCH  19  21
ENDBRANCH   1  15
TORSDOF 4
ENDMDL
MODEL 6
REMARK VINA RESULT:    -5.203      3.060      7.022
REMARK INTER + INTRA:          -7.290
REMARK INTER:                  -7.255
REMARK INTRA:                  -0.036
REMARK UNBOUND:                -0.871
REMARK  Name = 
REMARK  6 active torsions:
REMARK  status: ('A' for Active; 'I' for Inactive)
REMARK    1  A    between atoms: C_1  and  O_2
REMARK    2  A    between atoms: O_2  and  C_3
REMARK    3  A    between atoms: C_5  and  C_6
REMARK    4  A    between atoms: N_9  and  C_10
REMARK    5  A    between atoms: C_10  and  C_11
REMARK    6  A    between atoms: C_15  and  C_16
REMARK                            x       y       z     vdW  Elec       q    Type
REMARK                         _______ _______ _______ _____ _____    ______ ____
ROOT
ATOM      1  C   UNL     1      49.811   7.954  15.166  0.00  0.00    +0.000 C 
ATOM      2  C   UNL     1      48.728   8.395  16.144  0.00  0.00    +0.000 C 
ATOM      3  C   UNL     1      49.716   9.393  15.643  0.00  0.00    +0.000 C 
ENDROOT
BRANCH   1  10
ATOM      4  C   UNL     1      47.024   4.865  14.288  0.00  0.00    +0.000 A 
ATOM      5  C   UNL     1      46.278   4.914  13.137  0.00  0.00    +0.000 A 
ATOM      6  C   UNL     1      46.598   5.928  12.268  0.00  0.00    +0.000 A 
ATOM      7  C   UNL     1      45.806   6.152  11.016  0.00  0.00    +0.000 C 
ATOM      8  N   UNL     1      47.600   6.796  12.516  0.00  0.00    +0.000 NA
ATOM      9  C   UNL     1      48.292   6.650  13.660  0.00  0.00    +0.000 A 
ATOM     10  N   UNL     1      49.351   7.551  13.832  0.00  0.00    +0.000 N 
ATOM     11  N   UNL     1      48.028   5.710  14.572  0.00  0.00    +0.000 NA
ATOM     12  H   UNL     1      49.207   8.279  13.141  0.00  0.00    +0.000 HD
BRANCH   4  14
ATOM     13  C   UNL     1      47.123   4.160  16.506  0.00  0.00    +0.000 C 
ATOM     14  O   UNL     1      46.705   3.858  15.179  0.00  0.00    +0.000 OA
ENDBRANCH   4  14
ENDBRANCH   1  10
BRANCH   1  15
ATOM     15  C   UNL     1      50.969   7.128  15.717  0.00  0.00    +0.000 A 
ATOM     16  C   UNL     1      52.292   7.427  15.368  0.00  0.00    +0.000 A 
ATOM     17  C   UNL     1      53.360   6.775  15.976  0.00  0.00    +0.000 A 
ATOM     18  C   UNL     1      53.121   5.814  16.958  0.00  0.00    +0.000 A 
ATOM     19  C   UNL     1      51.818   5.443  17.314  0.00  0.00    +0.000 A 
ATOM     20  C   UNL     1      50.760   6.098  16.655  0.00  0.00    +0.000 A 
BRANCH  19  21
ATOM     21  C   UNL     1      51.493   4.482  18.458  0.00  0.00    +0.000 C 
ATOM     22  C   UNL     1      52.620   3.523  18.879  0.00  0.00    +0.000 C 
ATOM     23  C   UNL     1      52.766   2.335  17.924  0.00  0.00    +0.000 C 
ATOM     24  N   UNL     1      51.513   1.594  17.775  0.00  0.00    +0.000 NA
ATOM     25  C   UNL     1      50.437   2.468  17.309  0.00  0.00    +0.000 C 
ATOM     26  C   UNL     1      50.208   3.656  18.240  0.00  0.00    +0.000 C 
ATOM     27  H   UNL     1      51.254   1.195  18.676  0.00  0.00    +0.000 HD
ENDBRANCH  19  21
ENDBRANCH   1  15
TORSDOF 4
ENDMDL
MODEL 7
REMARK VINA RESULT:    -5.052      1.850      3.161
REMARK INTER + INTRA:          -7.104
REMARK INTER:                  -7.553
REMARK INTRA:                   0.449
REMARK UNBOUND:                -0.871
REMARK  Name = 
REMARK  6 active torsions:
REMARK  status: ('A' for Active; 'I' for Inactive)
REMARK    1  A    between atoms: C_1  and  O_2
REMARK    2  A    between atoms: O_2  and  C_3
REMARK    3  A    between atoms: C_5  and  C_6
REMARK    4  A    between atoms: N_9  and  C_10
REMARK    5  A    between atoms: C_10  and  C_11
REMARK    6  A    between atoms: C_15  and  C_16
REMARK                            x       y       z     vdW  Elec       q    Type
REMARK                         _______ _______ _______ _____ _____    ______ ____
ROOT
ATOM      1  C   UNL     1      47.964   8.006  13.451  0.00  0.00    +0.000 C 
ATOM      2  C   UNL     1      49.447   8.115  13.114  0.00  0.00    +0.000 C 
ATOM      3  C   UNL     1      48.435   8.666  12.167  0.00  0.00    +0.000 C 
ENDROOT
BRANCH   1  10
ATOM      4  C   UNL     1      49.564   7.892  17.389  0.00  0.00    +0.000 A 
ATOM      5  C   UNL     1      49.453   8.984  18.212  0.00  0.00    +0.000 A 
ATOM      6  C   UNL     1      48.689  10.017  17.724  0.00  0.00    +0.000 A 
ATOM      7  C   UNL     1      48.556  11.303  18.479  0.00  0.00    +0.000 C 
ATOM      8  N   UNL     1      48.067   9.947  16.529  0.00  0.00    +0.000 NA
ATOM      9  C   UNL     1      48.216   8.823  15.806  0.00  0.00    +0.000 A 
ATOM     10  N   UNL     1      47.503   8.794  14.601  0.00  0.00    +0.000 N 
ATOM     11  N   UNL     1      48.962   7.784  16.193  0.00  0.00    +0.000 NA
ATOM     12  H   UNL     1      47.211   9.750  14.432  0.00  0.00    +0.000 HD
BRANCH   4  14
ATOM     13  C   UNL     1      50.286   5.709  17.010  0.00  0.00    +0.000 C 
ATOM     14  O   UNL     1      50.340   6.850  17.860  0.00  0.00    +0.000 OA
ENDBRANCH   4  14
ENDBRANCH   1  10
BRANCH   1  15
ATOM     15  C   UNL     1      47.305   6.637  13.312  0.00  0.00    +0.000 A 
ATOM     16  C   UNL     1      47.539   5.629  14.256  0.00  0.00    +0.000 A 
ATOM     17  C   UNL     1      46.834   4.431  14.218  0.00  0.00    +0.000 A 
ATOM     18  C   UNL     1      45.868   4.223  13.234  0.00  0.00    +0.000 A 
ATOM     19  C   UNL     1      45.623   5.178  12.238  0.00  0.00    +0.000 A 
ATOM     20  C   UNL     1      46.379   6.365  12.285  0.00  0.00    +0.000 A 
BRANCH  19  21
ATOM     21  C   UNL     1      44.504   5.057  11.204  0.00  0.00    +0.000 C 
ATOM     22  C   UNL     1      43.227   4.334  11.668  0.00  0.00    +0.000 C 
ATOM     23  C   UNL     1      43.385   2.811  11.673  0.00  0.00    +0.000 C 
ATOM     24  N   UNL     1      43.799   2.299  10.366  0.00  0.00    +0.000 NA
ATOM     25  C   UNL     1      45.049   2.920   9.930  0.00  0.00    +0.000 C 
ATOM     26  C   UNL     1      44.949   4.441   9.862  0.00  0.00    +0.000 C 
ATOM     27  H   UNL     1      43.069   2.500   9.684  0.00  0.00    +0.000 HD
ENDBRANCH  19  21
ENDBRANCH   1  15
TORSDOF 4
ENDMDL
MODEL 8
REMARK VINA RESULT:    -4.916      2.982      7.671
REMARK INTER + INTRA:          -6.937
REMARK INTER:                  -6.996
REMARK INTRA:                   0.059
REMARK UNBOUND:                -0.871
REMARK  Name = 
REMARK  6 active torsions:
REMARK  status: ('A' for Active; 'I' for Inactive)
REMARK    1  A    between atoms: C_1  and  O_2
REMARK    2  A    between atoms: O_2  and  C_3
REMARK    3  A    between atoms: C_5  and  C_6
REMARK    4  A    between atoms: N_9  and  C_10
REMARK    5  A    between atoms: C_10  and  C_11
REMARK    6  A    between atoms: C_15  and  C_16
REMARK                            x       y       z     vdW  Elec       q    Type
REMARK                         _______ _______ _______ _____ _____    ______ ____
ROOT
ATOM      1  C   UNL     1      47.612   3.866  16.811  0.00  0.00    +0.000 C 
ATOM      2  C   UNL     1      48.390   2.622  16.398  0.00  0.00    +0.000 C 
ATOM      3  C   UNL     1      47.451   2.550  17.554  0.00  0.00    +0.000 C 
ENDROOT
BRANCH   1  10
ATOM      4  C   UNL     1      48.297   6.423  13.485  0.00  0.00    +0.000 A 
ATOM      5  C   UNL     1      47.463   6.380  12.396  0.00  0.00    +0.000 A 
ATOM      6  C   UNL     1      46.358   5.576  12.530  0.00  0.00    +0.000 A 
ATOM      7  C   UNL     1      45.410   5.367  11.389  0.00  0.00    +0.000 C 
ATOM      8  N   UNL     1      46.095   4.901  13.669  0.00  0.00    +0.000 NA
ATOM      9  C   UNL     1      46.960   5.028  14.690  0.00  0.00    +0.000 A 
ATOM     10  N   UNL     1      46.602   4.343  15.859  0.00  0.00    +0.000 N 
ATOM     11  N   UNL     1      48.073   5.766  14.634  0.00  0.00    +0.000 NA
ATOM     12  H   UNL     1      45.868   3.699  15.586  0.00  0.00    +0.000 HD
BRANCH   4  14
ATOM     13  C   UNL     1      50.071   7.433  14.609  0.00  0.00    +0.000 C 
ATOM     14  O   UNL     1      49.421   7.218  13.360  0.00  0.00    +0.000 OA
ENDBRANCH   4  14
ENDBRANCH   1  10
BRANCH   1  15
ATOM     15  C   UNL     1      48.375   4.970  17.538  0.00  0.00    +0.000 A 
ATOM     16  C   UNL     1      47.698   5.903  18.334  0.00  0.00    +0.000 A 
ATOM     17  C   UNL     1      48.396   6.821  19.113  0.00  0.00    +0.000 A 
ATOM     18  C   UNL     1      49.790   6.813  19.117  0.00  0.00    +0.000 A 
ATOM     19  C   UNL     1      50.518   5.932  18.307  0.00  0.00    +0.000 A 
ATOM     20  C   UNL     1      49.781   5.039  17.504  0.00  0.00    +0.000 A 
BRANCH  19  21
ATOM     21  C   UNL     1      52.040   5.798  18.352  0.00  0.00    +0.000 C 
ATOM     22  C   UNL     1      52.635   4.574  17.634  0.00  0.00    +0.000 C 
ATOM     23  C   UNL     1      52.499   3.290  18.455  0.00  0.00    +0.000 C 
ATOM     24  N   UNL     1      53.096   3.423  19.785  0.00  0.00    +0.000 NA
ATOM     25  C   UNL     1      52.500   4.539  20.519  0.00  0.00    +0.000 C 
ATOM     26  C   UNL     1      52.636   5.864  19.774  0.00  0.00    +0.000 C 
ATOM     27  H   UNL     1      54.097   3.584  19.686  0.00  0.00    +0.000 HD
ENDBRANCH  19  21
ENDBRANCH   1  15
TORSDOF 4
ENDMDL
MODEL 9
REMARK VINA RESULT:    -4.858      2.554      6.159
REMARK INTER + INTRA:          -6.865
REMARK INTER:                  -6.180
REMARK INTRA:                  -0.685
REMARK UNBOUND:                -0.871
REMARK  Name = 
REMARK  6 active torsions:
REMARK  status: ('A' for Active; 'I' for Inactive)
REMARK    1  A    between atoms: C_1  and  O_2
REMARK    2  A    between atoms: O_2  and  C_3
REMARK    3  A    between atoms: C_5  and  C_6
REMARK    4  A    between atoms: N_9  and  C_10
REMARK    5  A    between atoms: C_10  and  C_11
REMARK    6  A    between atoms: C_15  and  C_16
REMARK                            x       y       z     vdW  Elec       q    Type
REMARK                         _______ _______ _______ _____ _____    ______ ____
ROOT
ATOM      1  C   UNL     1      49.388   8.553  13.320  0.00  0.00    +0.000 C 
ATOM      2  C   UNL     1      50.828   8.562  12.821  0.00  0.00    +0.000 C 
ATOM      3  C   UNL     1      50.033   7.303  12.746  0.00  0.00    +0.000 C 
ENDROOT
BRANCH   1  10
ATOM      4  C   UNL     1      45.673   7.209  11.748  0.00  0.00    +0.000 A 
ATOM      5  C   UNL     1      44.652   8.100  11.529  0.00  0.00    +0.000 A 
ATOM      6  C   UNL     1      44.971   9.422  11.720  0.00  0.00    +0.000 A 
ATOM      7  C   UNL     1      43.930  10.493  11.601  0.00  0.00    +0.000 C 
ATOM      8  N   UNL     1      46.213   9.819  12.068  0.00  0.00    +0.000 NA
ATOM      9  C   UNL     1      47.152   8.871  12.235  0.00  0.00    +0.000 A 
ATOM     10  N   UNL     1      48.431   9.352  12.546  0.00  0.00    +0.000 N 
ATOM     11  N   UNL     1      46.920   7.563  12.097  0.00  0.00    +0.000 NA
ATOM     12  H   UNL     1      48.302  10.323  12.810  0.00  0.00    +0.000 HD
BRANCH   4  14
ATOM     13  C   UNL     1      45.498   5.462  10.216  0.00  0.00    +0.000 C 
ATOM     14  O   UNL     1      45.364   5.874  11.573  0.00  0.00    +0.000 OA
ENDBRANCH   4  14
ENDBRANCH   1  10
BRANCH   1  15
ATOM     15  C   UNL     1      49.161   8.571  14.828  0.00  0.00    +0.000 A 
ATOM     16  C   UNL     1      48.583   9.684  15.453  0.00  0.00    +0.000 A 
ATOM     17  C   UNL     1      48.240   9.653  16.801  0.00  0.00    +0.000 A 
ATOM     18  C   UNL     1      48.462   8.498  17.549  0.00  0.00    +0.000 A 
ATOM     19  C   UNL     1      49.077   7.371  16.988  0.00  0.00    +0.000 A 
ATOM     20  C   UNL     1      49.443   7.447  15.630  0.00  0.00    +0.000 A 
BRANCH  19  21
ATOM     21  C   UNL     1      49.244   6.041  17.723  0.00  0.00    +0.000 C 
ATOM     22  C   UNL     1      48.937   4.773  16.907  0.00  0.00    +0.000 C 
ATOM     23  C   UNL     1      47.435   4.510  16.775  0.00  0.00    +0.000 C 
ATOM     24  N   UNL     1      46.774   4.434  18.079  0.00  0.00    +0.000 NA
ATOM     25  C   UNL     1      46.992   5.657  18.851  0.00  0.00    +0.000 C 
ATOM     26  C   UNL     1      48.474   5.958  19.057  0.00  0.00    +0.000 C 
ATOM     27  H   UNL     1      47.150   3.640  18.595  0.00  0.00    +0.000 HD
ENDBRANCH  19  21
ENDBRANCH   1  15
TORSDOF 4
ENDMDL
