MODEL 1
REMARK VINA RESULT:    -7.331      0.000      0.000
REMARK INTER + INTRA:         -11.533
REMARK INTER:                 -10.332
REMARK INTRA:                  -1.201
REMARK UNBOUND:                -1.201
REMARK  Name = 
REMARK  7 active torsions:
REMARK  status: ('A' for Active; 'I' for Inactive)
REMARK    1  A    between atoms: C_2  and  C_3
REMARK    2  A    between atoms: C_8  and  C_9
REMARK    3  A    between atoms: N_11  and  C_12
REMARK    4  A    between atoms: C_12  and  C_13
REMARK    5  A    between atoms: C_16  and  C_17
REMARK    6  A    between atoms: C_17  and  N_18
REMARK    7  A    between atoms: C_19  and  C_21
REMARK                            x       y       z     vdW  Elec       q    Type
REMARK                         _______ _______ _______ _____ _____    ______ ____
ROOT
ATOM      1  C   UNL     1      47.718   5.925  14.434  0.00  0.00    +0.000 A 
ATOM      2  C   UNL     1      47.151   4.644  14.410  0.00  0.00    +0.000 A 
ATOM      3  C   UNL     1      47.328   3.766  15.485  0.00  0.00    +0.000 A 
ATOM      4  C   UNL     1      48.060   4.159  16.614  0.00  0.00    +0.000 A 
ATOM      5  C   UNL     1      48.650   5.430  16.623  0.00  0.00    +0.000 A 
ATOM      6  C   UNL     1      48.472   6.307  15.550  0.00  0.00    +0.000 A 
ENDROOT
BRANCH   1   7
ATOM      7  C   UNL     1      47.529   6.871  13.280  0.00  0.00    +0.000 C 
BRANCH   7  10
ATOM      8  C   UNL     1      45.445   6.545  12.055  0.00  0.00    +0.000 C 
ATOM      9  O   UNL     1      44.848   7.244  12.871  0.00  0.00    +0.000 OA
ATOM     10  N   UNL     1      46.786   6.278  12.185  0.00  0.00    +0.000 N 
ATOM     11  H   UNL     1      47.268   5.652  11.550  0.00  0.00    +0.000 HD
BRANCH   8  17
ATOM     12  C   UNL     1      45.370   4.509  10.564  0.00  0.00    +0.000 C 
ATOM     13  C   UNL     1      44.987   3.452  11.616  0.00  0.00    +0.000 C 
ATOM     14  C   UNL     1      43.485   3.375  11.887  0.00  0.00    +0.000 C 
ATOM     15  C   UNL     1      42.855   4.741  12.140  0.00  0.00    +0.000 C 
ATOM     16  C   UNL     1      43.219   5.767  11.074  0.00  0.00    +0.000 C 
ATOM     17  C   UNL     1      44.738   5.889  10.862  0.00  0.00    +0.000 C 
BRANCH  12  19
ATOM     18  N   UNL     1      44.681   3.707   8.145  0.00  0.00    +0.000 NA
ATOM     19  C   UNL     1      44.988   4.051   9.211  0.00  0.00    +0.000 C 
ENDBRANCH  12  19
ENDBRANCH   8  17
ENDBRANCH   7  10
ENDBRANCH   1   7
BRANCH   4  20
ATOM     20  C   UNL     1      48.234   3.231  17.788  0.00  0.00    +0.000 C 
BRANCH  20  21
ATOM     21  N   UNL     1      49.625   2.953  18.043  0.00  0.00    +0.000 N 
ATOM     22  C   UNL     1      50.345   2.133  17.214  0.00  0.00    +0.000 C 
ATOM     23  O   UNL     1      49.856   1.639  16.200  0.00  0.00    +0.000 OA
ATOM     24  H   UNL     1      49.971   3.153  18.976  0.00  0.00    +0.000 HD
BRANCH  22  25
ATOM     25  C   UNL     1      51.756   1.923  17.563  0.00  0.00    +0.000 A 
ATOM     26  C   UNL     1      52.238   0.631  17.735  0.00  0.00    +0.000 A 
ATOM     27  S   UNL     1      53.907   0.563  18.078  0.00  0.00    +0.000 S 
ATOM     28  C   UNL     1      54.034   2.260  18.060  0.00  0.00    +0.000 A 
ATOM     29  N   UNL     1      55.223   2.874  18.309  0.00  0.00    +0.000 NA
ATOM     30  C   UNL     1      55.168   4.165  18.296  0.00  0.00    +0.000 A 
ATOM     31  N   UNL     1      54.035   4.896  18.053  0.00  0.00    +0.000 N 
ATOM     32  C   UNL     1      52.821   4.319  17.768  0.00  0.00    +0.000 A 
ATOM     33  O   UNL     1      51.836   5.003  17.511  0.00  0.00    +0.000 OA
ATOM     34  C   UNL     1      52.824   2.869  17.779  0.00  0.00    +0.000 A 
ATOM     35  H   UNL     1      54.062   5.905  18.050  0.00  0.00    +0.000 HD
ENDBRANCH  22  25
ENDBRANCH  20  21
ENDBRANCH   4  20
TORSDOF 7
ENDMDL
MODEL 2
REMARK VINA RESULT:    -6.856      3.388      9.322
REMARK INTER + INTRA:         -10.863
REMARK INTER:                  -9.534
REMARK INTRA:                  -1.329
REMARK UNBOUND:                -1.201
REMARK  Name = 
REMARK  7 active torsions:
REMARK  status: ('A' for Active; 'I' for Inactive)
REMARK    1  A    between atoms: C_2  and  C_3
REMARK    2  A    between atoms: C_8  and  C_9
REMARK    3  A    between atoms: N_11  and  C_12
REMARK    4  A    between atoms: C_12  and  C_13
REMARK    5  A    between atoms: C_16  and  C_17
REMARK    6  A    between atoms: C_17  and  N_18
REMARK    7  A    between atoms: C_19  and  C_21
REMARK                            x       y       z     vdW  Elec       q    Type
REMARK                         _______ _______ _______ _____ _____    ______ ____
ROOT
ATOM      1  C   UNL     1      50.122   8.092  15.366  0.00  0.00    +0.000 A 
ATOM      2  C   UNL     1      48.722   8.130  15.424  0.00  0.00    +0.000 A 
ATOM      3  C   UNL     1      47.960   8.106  14.251  0.00  0.00    +0.000 A 
ATOM      4  C   UNL     1      48.581   8.024  12.998  0.00  0.00    +0.000 A 
ATOM      5  C   UNL     1      49.981   8.015  12.941  0.00  0.00    +0.000 A 
ATOM      6  C   UNL     1      50.743   8.038  14.113  0.00  0.00    +0.000 A 
ENDROOT
BRANCH   1   7
ATOM      7  C   UNL     1      50.944   8.118  16.625  0.00  0.00    +0.000 C 
BRANCH   7  10
ATOM      8  C   UNL     1      50.717   5.862  17.525  0.00  0.00    +0.000 C 
ATOM      9  O   UNL     1      51.334   5.409  16.563  0.00  0.00    +0.000 OA
ATOM     10  N   UNL     1      50.449   7.205  17.637  0.00  0.00    +0.000 N 
ATOM     11  H   UNL     1      49.887   7.574  18.396  0.00  0.00    +0.000 HD
BRANCH   8  17
ATOM     12  C   UNL     1      48.865   5.572  19.216  0.00  0.00    +0.000 C 
ATOM     13  C   UNL     1      47.676   5.416  18.249  0.00  0.00    +0.000 C 
ATOM     14  C   UNL     1      47.496   3.992  17.727  0.00  0.00    +0.000 C 
ATOM     15  C   UNL     1      48.791   3.381  17.202  0.00  0.00    +0.000 C 
ATOM     16  C   UNL     1      49.950   3.517  18.183  0.00  0.00    +0.000 C 
ATOM     17  C   UNL     1      50.169   4.968  18.644  0.00  0.00    +0.000 C 
BRANCH  12  19
ATOM     18  N   UNL     1      48.309   4.495  21.561  0.00  0.00    +0.000 NA
ATOM     19  C   UNL     1      48.548   4.963  20.525  0.00  0.00    +0.000 C 
ENDBRANCH  12  19
ENDBRANCH   8  17
ENDBRANCH   7  10
ENDBRANCH   1   7
BRANCH   4  20
ATOM     20  C   UNL     1      47.768   7.970  11.730  0.00  0.00    +0.000 C 
BRANCH  20  21
ATOM     21  N   UNL     1      47.047   6.728  11.615  0.00  0.00    +0.000 N 
ATOM     22  C   UNL     1      45.680   6.693  11.706  0.00  0.00    +0.000 C 
ATOM     23  O   UNL     1      45.010   7.715  11.843  0.00  0.00    +0.000 OA
ATOM     24  H   UNL     1      47.580   5.872  11.738  0.00  0.00    +0.000 HD
BRANCH  22  25
ATOM     25  C   UNL     1      45.046   5.376  11.568  0.00  0.00    +0.000 A 
ATOM     26  C   UNL     1      44.376   4.817  12.650  0.00  0.00    +0.000 A 
ATOM     27  S   UNL     1      43.649   3.314  12.302  0.00  0.00    +0.000 S 
ATOM     28  C   UNL     1      44.247   3.332  10.709  0.00  0.00    +0.000 A 
ATOM     29  N   UNL     1      44.000   2.299   9.858  0.00  0.00    +0.000 NA
ATOM     30  C   UNL     1      44.541   2.429   8.692  0.00  0.00    +0.000 A 
ATOM     31  N   UNL     1      45.304   3.498   8.300  0.00  0.00    +0.000 N 
ATOM     32  C   UNL     1      45.555   4.576   9.115  0.00  0.00    +0.000 A 
ATOM     33  O   UNL     1      46.204   5.537   8.717  0.00  0.00    +0.000 OA
ATOM     34  C   UNL     1      44.977   4.476  10.441  0.00  0.00    +0.000 A 
ATOM     35  H   UNL     1      45.693   3.541   7.369  0.00  0.00    +0.000 HD
ENDBRANCH  22  25
ENDBRANCH  20  21
ENDBRANCH   4  20
TORSDOF 7
ENDMDL
MODEL 3
REMARK VINA RESULT:    -6.807      1.407      2.184
REMARK INTER + INTRA:         -10.793
REMARK INTER:                  -9.612
REMARK INTRA:                  -1.181
REMARK UNBOUND:                -1.201
REMARK  Name = 
REMARK  7 active torsions:
REMARK  status: ('A' for Active; 'I' for Inactive)
REMARK    1  A    between atoms: C_2  and  C_3
REMARK    2  A    between atoms: C_8  and  C_9
REMARK    3  A    between atoms: N_11  and  C_12
REMARK    4  A    between atoms: C_12  and  C_13
REMARK    5  A    between atoms: C_16  and  C_17
REMARK    6  A    between atoms: C_17  and  N_18
REMARK    7  A    between atoms: C_19  and  C_21
REMARK                            x       y       z     vdW  Elec       q    Type
REMARK                         _______ _______ _______ _____ _____    ______ ____
ROOT
ATOM      1  C   UNL     1      47.835   6.483  13.895  0.00  0.00    +0.000 A 
ATOM      2  C   UNL     1      47.268   5.275  14.324  0.00  0.00    +0.000 A 
ATOM      3  C   UNL     1      47.638   4.710  15.549  0.00  0.00    +0.000 A 
ATOM      4  C   UNL     1      48.569   5.351  16.378  0.00  0.00    +0.000 A 
ATOM      5  C   UNL     1      49.157   6.542  15.934  0.00  0.00    +0.000 A 
ATOM      6  C   UNL     1      48.786   7.108  14.711  0.00  0.00    +0.000 A 
ENDROOT
BRANCH   1   7
ATOM      7  C   UNL     1      47.439   7.093  12.578  0.00  0.00    +0.000 C 
BRANCH   7  10
ATOM      8  C   UNL     1      45.320   6.481  11.538  0.00  0.00    +0.000 C 
ATOM      9  O   UNL     1      44.778   7.459  12.051  0.00  0.00    +0.000 OA
ATOM     10  N   UNL     1      46.645   6.197  11.762  0.00  0.00    +0.000 N 
ATOM     11  H   UNL     1      47.079   5.358  11.392  0.00  0.00    +0.000 HD
BRANCH   8  17
ATOM     12  C   UNL     1      45.241   4.103  10.694  0.00  0.00    +0.000 C 
ATOM     13  C   UNL     1      45.010   3.377  12.033  0.00  0.00    +0.000 C 
ATOM     14  C   UNL     1      43.544   3.332  12.459  0.00  0.00    +0.000 C 
ATOM     15  C   UNL     1      42.857   4.692  12.379  0.00  0.00    +0.000 C 
ATOM     16  C   UNL     1      43.070   5.383  11.036  0.00  0.00    +0.000 C 
ATOM     17  C   UNL     1      44.555   5.489  10.653  0.00  0.00    +0.000 C 
BRANCH  12  19
ATOM     18  N   UNL     1      44.412   2.621   8.673  0.00  0.00    +0.000 NA
ATOM     19  C   UNL     1      44.775   3.266   9.568  0.00  0.00    +0.000 C 
ENDBRANCH  12  19
ENDBRANCH   8  17
ENDBRANCH   7  10
ENDBRANCH   1   7
BRANCH   4  20
ATOM     20  C   UNL     1      48.954   4.763  17.711  0.00  0.00    +0.000 C 
BRANCH  20  21
ATOM     21  N   UNL     1      50.274   4.187  17.676  0.00  0.00    +0.000 N 
ATOM     22  C   UNL     1      51.108   4.263  18.760  0.00  0.00    +0.000 C 
ATOM     23  O   UNL     1      50.755   4.780  19.818  0.00  0.00    +0.000 OA
ATOM     24  H   UNL     1      50.659   3.972  16.760  0.00  0.00    +0.000 HD
BRANCH  22  25
ATOM     25  C   UNL     1      52.428   3.635  18.618  0.00  0.00    +0.000 A 
ATOM     26  C   UNL     1      53.564   4.320  19.033  0.00  0.00    +0.000 A 
ATOM     27  S   UNL     1      55.006   3.427  18.853  0.00  0.00    +0.000 S 
ATOM     28  C   UNL     1      54.170   2.114  18.165  0.00  0.00    +0.000 A 
ATOM     29  N   UNL     1      54.835   1.000  17.754  0.00  0.00    +0.000 NA
ATOM     30  C   UNL     1      54.081   0.096  17.222  0.00  0.00    +0.000 A 
ATOM     31  N   UNL     1      52.724   0.203  17.066  0.00  0.00    +0.000 N 
ATOM     32  C   UNL     1      52.007   1.296  17.493  0.00  0.00    +0.000 A 
ATOM     33  O   UNL     1      50.787   1.341  17.378  0.00  0.00    +0.000 OA
ATOM     34  C   UNL     1      52.808   2.347  18.090  0.00  0.00    +0.000 A 
ATOM     35  H   UNL     1      52.191  -0.545  16.647  0.00  0.00    +0.000 HD
ENDBRANCH  22  25
ENDBRANCH  20  21
ENDBRANCH   4  20
TORSDOF 7
ENDMDL
MODEL 4
REMARK VINA RESULT:    -6.743      3.966      9.570
REMARK INTER + INTRA:         -10.704
REMARK INTER:                  -9.876
REMARK INTRA:                  -0.827
REMARK UNBOUND:                -1.201
REMARK  Name = 
REMARK  7 active torsions:
REMARK  status: ('A' for Active; 'I' for Inactive)
REMARK    1  A    between atoms: C_2  and  C_3
REMARK    2  A    between atoms: C_8  and  C_9
REMARK    3  A    between atoms: N_11  and  C_12
REMARK    4  A    between atoms: C_12  and  C_13
REMARK    5  A    between atoms: C_16  and  C_17
REMARK    6  A    between atoms: C_17  and  N_18
REMARK    7  A    between atoms: C_19  and  C_21
REMARK                            x       y       z     vdW  Elec       q    Type
REMARK                         _______ _______ _______ _____ _____    ______ ____
ROOT
ATOM      1  C   UNL     1      47.111   6.043  13.512  0.00  0.00    +0.000 A 
ATOM      2  C   UNL     1      46.337   6.515  12.443  0.00  0.00    +0.000 A 
ATOM      3  C   UNL     1      45.466   5.659  11.761  0.00  0.00    +0.000 A 
ATOM      4  C   UNL     1      45.338   4.317  12.146  0.00  0.00    +0.000 A 
ATOM      5  C   UNL     1      46.134   3.840  13.195  0.00  0.00    +0.000 A 
ATOM      6  C   UNL     1      47.003   4.696  13.878  0.00  0.00    +0.000 A 
ENDROOT
BRANCH   1   7
ATOM      7  C   UNL     1      48.047   6.961  14.248  0.00  0.00    +0.000 C 
BRANCH   7  10
ATOM      8  C   UNL     1      49.264   6.462  16.302  0.00  0.00    +0.000 C 
ATOM      9  O   UNL     1      50.318   6.400  15.671  0.00  0.00    +0.000 OA
ATOM     10  N   UNL     1      48.068   6.714  15.676  0.00  0.00    +0.000 N 
ATOM     11  H   UNL     1      47.189   6.704  16.183  0.00  0.00    +0.000 HD
BRANCH   8  17
ATOM     12  C   UNL     1      47.776   5.770  18.221  0.00  0.00    +0.000 C 
ATOM     13  C   UNL     1      47.482   4.321  17.789  0.00  0.00    +0.000 C 
ATOM     14  C   UNL     1      48.567   3.328  18.201  0.00  0.00    +0.000 C 
ATOM     15  C   UNL     1      49.973   3.796  17.839  0.00  0.00    +0.000 C 
ATOM     16  C   UNL     1      50.258   5.221  18.300  0.00  0.00    +0.000 C 
ATOM     17  C   UNL     1      49.199   6.225  17.816  0.00  0.00    +0.000 C 
BRANCH  12  19
ATOM     18  N   UNL     1      47.430   6.025  20.825  0.00  0.00    +0.000 NA
ATOM     19  C   UNL     1      47.584   5.922  19.678  0.00  0.00    +0.000 C 
ENDBRANCH  12  19
ENDBRANCH   8  17
ENDBRANCH   7  10
ENDBRANCH   1   7
BRANCH   4  20
ATOM     20  C   UNL     1      44.383   3.394  11.434  0.00  0.00    +0.000 C 
BRANCH  20  21
ATOM     21  N   UNL     1      45.068   2.548  10.490  0.00  0.00    +0.000 N 
ATOM     22  C   UNL     1      45.048   2.826   9.148  0.00  0.00    +0.000 C 
ATOM     23  O   UNL     1      44.489   3.824   8.698  0.00  0.00    +0.000 OA
ATOM     24  H   UNL     1      45.326   1.618  10.806  0.00  0.00    +0.000 HD
BRANCH  22  25
ATOM     25  C   UNL     1      45.784   1.903   8.275  0.00  0.00    +0.000 A 
ATOM     26  C   UNL     1      45.765   0.539   8.542  0.00  0.00    +0.000 A 
ATOM     27  S   UNL     1      46.621  -0.394   7.400  0.00  0.00    +0.000 S 
ATOM     28  C   UNL     1      47.091   0.995   6.537  0.00  0.00    +0.000 A 
ATOM     29  N   UNL     1      47.878   0.898   5.431  0.00  0.00    +0.000 NA
ATOM     30  C   UNL     1      48.185   2.032   4.895  0.00  0.00    +0.000 A 
ATOM     31  N   UNL     1      47.775   3.253   5.362  0.00  0.00    +0.000 N 
ATOM     32  C   UNL     1      46.956   3.398   6.456  0.00  0.00    +0.000 A 
ATOM     33  O   UNL     1      46.570   4.504   6.821  0.00  0.00    +0.000 OA
ATOM     34  C   UNL     1      46.588   2.153   7.103  0.00  0.00    +0.000 A 
ATOM     35  H   UNL     1      48.045   4.104   4.890  0.00  0.00    +0.000 HD
ENDBRANCH  22  25
ENDBRANCH  20  21
ENDBRANCH   4  20
TORSDOF 7
ENDMDL
MODEL 5
REMARK VINA RESULT:    -6.372      5.879      7.840
REMARK INTER + INTRA:         -10.182
REMARK INTER:                  -8.978
REMARK INTRA:                  -1.203
REMARK UNBOUND:                -1.201
REMARK  Name = 
REMARK  7 active torsions:
REMARK  status: ('A' for Active; 'I' for Inactive)
REMARK    1  A    between atoms: C_2  and  C_3
REMARK    2  A    between atoms: C_8  and  C_9
REMARK    3  A    between atoms: N_11  and  C_12
REMARK    4  A    between atoms: C_12  and  C_13
REMARK    5  A    between atoms: C_16  and  C_17
REMARK    6  A    between atoms: C_17  and  N_18
REMARK    7  A    between atoms: C_19  and  C_21
REMARK                            x       y       z     vdW  Elec       q    Type
REMARK                         _______ _______ _______ _____ _____    ______ ____
ROOT
ATOM      1  C   UNL     1      48.717   6.651  13.907  0.00  0.00    +0.000 A 
ATOM      2  C   UNL     1      49.773   7.302  14.559  0.00  0.00    +0.000 A 
ATOM      3  C   UNL     1      50.650   8.127  13.847  0.00  0.00    +0.000 A 
ATOM      4  C   UNL     1      50.479   8.331  12.472  0.00  0.00    +0.000 A 
ATOM      5  C   UNL     1      49.441   7.656  11.816  0.00  0.00    +0.000 A 
ATOM      6  C   UNL     1      48.563   6.834  12.528  0.00  0.00    +0.000 A 
ENDROOT
BRANCH   1   7
ATOM      7  C   UNL     1      47.772   5.764  14.670  0.00  0.00    +0.000 C 
BRANCH   7  10
ATOM      8  C   UNL     1      46.041   4.421  13.599  0.00  0.00    +0.000 C 
ATOM      9  O   UNL     1      46.747   3.419  13.699  0.00  0.00    +0.000 OA
ATOM     10  N   UNL     1      46.475   5.649  14.034  0.00  0.00    +0.000 N 
ATOM     11  H   UNL     1      45.921   6.488  13.897  0.00  0.00    +0.000 HD
BRANCH   8  17
ATOM     12  C   UNL     1      44.417   5.674  12.127  0.00  0.00    +0.000 C 
ATOM     13  C   UNL     1      45.235   5.691  10.823  0.00  0.00    +0.000 C 
ATOM     14  C   UNL     1      45.088   4.418   9.993  0.00  0.00    +0.000 C 
ATOM     15  C   UNL     1      45.279   3.145  10.813  0.00  0.00    +0.000 C 
ATOM     16  C   UNL     1      44.439   3.131  12.085  0.00  0.00    +0.000 C 
ATOM     17  C   UNL     1      44.651   4.385  12.950  0.00  0.00    +0.000 C 
BRANCH  12  19
ATOM     18  N   UNL     1      41.850   5.981  11.591  0.00  0.00    +0.000 NA
ATOM     19  C   UNL     1      42.978   5.841  11.835  0.00  0.00    +0.000 C 
ENDBRANCH  12  19
ENDBRANCH   8  17
ENDBRANCH   7  10
ENDBRANCH   1   7
BRANCH   4  20
ATOM     20  C   UNL     1      51.402   9.239  11.701  0.00  0.00    +0.000 C 
BRANCH  20  21
ATOM     21  N   UNL     1      51.691   8.712  10.391  0.00  0.00    +0.000 N 
ATOM     22  C   UNL     1      52.880   8.984   9.767  0.00  0.00    +0.000 C 
ATOM     23  O   UNL     1      53.764   9.644  10.309  0.00  0.00    +0.000 OA
ATOM     24  H   UNL     1      50.904   8.375   9.846  0.00  0.00    +0.000 HD
BRANCH  22  25
ATOM     25  C   UNL     1      53.074   8.392   8.437  0.00  0.00    +0.000 A 
ATOM     26  C   UNL     1      52.989   9.195   7.306  0.00  0.00    +0.000 A 
ATOM     27  S   UNL     1      53.297   8.363   5.850  0.00  0.00    +0.000 S 
ATOM     28  C   UNL     1      53.505   6.889   6.674  0.00  0.00    +0.000 A 
ATOM     29  N   UNL     1      53.776   5.740   5.996  0.00  0.00    +0.000 NA
ATOM     30  C   UNL     1      53.876   4.692   6.743  0.00  0.00    +0.000 A 
ATOM     31  N   UNL     1      53.733   4.687   8.106  0.00  0.00    +0.000 N 
ATOM     32  C   UNL     1      53.489   5.826   8.835  0.00  0.00    +0.000 A 
ATOM     33  O   UNL     1      53.411   5.793  10.059  0.00  0.00    +0.000 OA
ATOM     34  C   UNL     1      53.358   7.033   8.042  0.00  0.00    +0.000 A 
ATOM     35  H   UNL     1      53.831   3.831   8.632  0.00  0.00    +0.000 HD
ENDBRANCH  22  25
ENDBRANCH  20  21
ENDBRANCH   4  20
TORSDOF 7
ENDMDL
MODEL 6
REMARK VINA RESULT:    -6.151      6.337      8.049
REMARK INTER + INTRA:          -9.869
REMARK INTER:                  -9.044
REMARK INTRA:                  -0.825
REMARK UNBOUND:                -1.201
REMARK  Name = 
REMARK  7 active torsions:
REMARK  status: ('A' for Active; 'I' for Inactive)
REMARK    1  A    between atoms: C_2  and  C_3
REMARK    2  A    between atoms: C_8  and  C_9
REMARK    3  A    between atoms: N_11  and  C_12
REMARK    4  A    between atoms: C_12  and  C_13
REMARK    5  A    between atoms: C_16  and  C_17
REMARK    6  A    between atoms: C_17  and  N_18
REMARK    7  A    between atoms: C_19  and  C_21
REMARK                            x       y       z     vdW  Elec       q    Type
REMARK                         _______ _______ _______ _____ _____    ______ ____
ROOT
ATOM      1  C   UNL     1      47.992   8.438  12.254  0.00  0.00    +0.000 A 
ATOM      2  C   UNL     1      48.799   7.362  11.858  0.00  0.00    +0.000 A 
ATOM      3  C   UNL     1      50.114   7.576  11.433  0.00  0.00    +0.000 A 
ATOM      4  C   UNL     1      50.655   8.869  11.411  0.00  0.00    +0.000 A 
ATOM      5  C   UNL     1      49.839   9.946  11.779  0.00  0.00    +0.000 A 
ATOM      6  C   UNL     1      48.525   9.731  12.206  0.00  0.00    +0.000 A 
ENDROOT
BRANCH   1   7
ATOM      7  C   UNL     1      46.578   8.210  12.712  0.00  0.00    +0.000 C 
BRANCH   7  10
ATOM      8  C   UNL     1      44.806   7.117  11.442  0.00  0.00    +0.000 C 
ATOM      9  O   UNL     1      44.214   8.190  11.333  0.00  0.00    +0.000 OA
ATOM     10  N   UNL     1      45.987   7.019  12.136  0.00  0.00    +0.000 N 
ATOM     11  H   UNL     1      46.446   6.126  12.282  0.00  0.00    +0.000 HD
BRANCH   8  17
ATOM     12  C   UNL     1      45.204   4.637  11.192  0.00  0.00    +0.000 C 
ATOM     13  C   UNL     1      45.120   4.226  12.674  0.00  0.00    +0.000 C 
ATOM     14  C   UNL     1      43.691   4.002  13.165  0.00  0.00    +0.000 C 
ATOM     15  C   UNL     1      42.747   5.142  12.796  0.00  0.00    +0.000 C 
ATOM     16  C   UNL     1      42.821   5.516  11.320  0.00  0.00    +0.000 C 
ATOM     17  C   UNL     1      44.256   5.812  10.854  0.00  0.00    +0.000 C 
BRANCH  12  19
ATOM     18  N   UNL     1      44.675   2.575   9.631  0.00  0.00    +0.000 NA
ATOM     19  C   UNL     1      44.916   3.479  10.320  0.00  0.00    +0.000 C 
ENDBRANCH  12  19
ENDBRANCH   8  17
ENDBRANCH   7  10
ENDBRANCH   1   7
BRANCH   4  20
ATOM     20  C   UNL     1      52.079   9.107  10.980  0.00  0.00    +0.000 C 
BRANCH  20  21
ATOM     21  N   UNL     1      52.361   8.480   9.713  0.00  0.00    +0.000 N 
ATOM     22  C   UNL     1      53.521   8.748   9.035  0.00  0.00    +0.000 C 
ATOM     23  O   UNL     1      54.385   9.493   9.492  0.00  0.00    +0.000 OA
ATOM     24  H   UNL     1      51.578   8.060   9.222  0.00  0.00    +0.000 HD
BRANCH  22  25
ATOM     25  C   UNL     1      53.711   8.050   7.757  0.00  0.00    +0.000 A 
ATOM     26  C   UNL     1      53.841   8.783   6.584  0.00  0.00    +0.000 A 
ATOM     27  S   UNL     1      54.113   7.821   5.202  0.00  0.00    +0.000 S 
ATOM     28  C   UNL     1      54.014   6.388   6.114  0.00  0.00    +0.000 A 
ATOM     29  N   UNL     1      54.142   5.171   5.519  0.00  0.00    +0.000 NA
ATOM     30  C   UNL     1      54.013   4.169   6.324  0.00  0.00    +0.000 A 
ATOM     31  N   UNL     1      53.773   4.273   7.669  0.00  0.00    +0.000 N 
ATOM     32  C   UNL     1      53.668   5.480   8.317  0.00  0.00    +0.000 A 
ATOM     33  O   UNL     1      53.497   5.539   9.531  0.00  0.00    +0.000 OA
ATOM     34  C   UNL     1      53.794   6.641   7.456  0.00  0.00    +0.000 A 
ATOM     35  H   UNL     1      53.690   3.448   8.244  0.00  0.00    +0.000 HD
ENDBRANCH  22  25
ENDBRANCH  20  21
ENDBRANCH   4  20
TORSDOF 7
ENDMDL
MODEL 7
REMARK VINA RESULT:    -6.100      3.311      9.961
REMARK INTER + INTRA:          -9.798
REMARK INTER:                  -8.660
REMARK INTRA:                  -1.138
REMARK UNBOUND:                -1.201
REMARK  Name = 
REMARK  7 active torsions:
REMARK  status: ('A' for Active; 'I' for Inactive)
REMARK    1  A    between atoms: C_2  and  C_3
REMARK    2  A    between atoms: C_8  and  C_9
REMARK    3  A    between atoms: N_11  and  C_12
REMARK    4  A    between atoms: C_12  and  C_13
REMARK    5  A    between atoms: C_16  and  C_17
REMARK    6  A    between atoms: C_17  and  N_18
REMARK    7  A    between atoms: C_19  and  C_21
REMARK                            x       y       z     vdW  Elec       q    Type
REMARK                         _______ _______ _______ _____ _____    ______ ____
ROOT
ATOM      1  C   UNL     1      49.509   5.900  18.840  0.00  0.00    +0.000 A 
ATOM      2  C   UNL     1      49.787   5.277  17.616  0.00  0.00    +0.000 A 
ATOM      3  C   UNL     1      49.581   5.954  16.409  0.00  0.00    +0.000 A 
ATOM      4  C   UNL     1      49.108   7.273  16.402  0.00  0.00    +0.000 A 
ATOM      5  C   UNL     1      48.802   7.883  17.626  0.00  0.00    +0.000 A 
ATOM      6  C   UNL     1      49.010   7.208  18.832  0.00  0.00    +0.000 A 
ENDROOT
BRANCH   1   7
ATOM      7  C   UNL     1      49.731   5.175  20.139  0.00  0.00    +0.000 C 
BRANCH   7  10
ATOM      8  C   UNL     1      52.121   4.852  20.501  0.00  0.00    +0.000 C 
ATOM      9  O   UNL     1      52.238   6.032  20.827  0.00  0.00    +0.000 OA
ATOM     10  N   UNL     1      50.910   4.332  20.116  0.00  0.00    +0.000 N 
ATOM     11  H   UNL     1      50.821   3.376  19.787  0.00  0.00    +0.000 HD
BRANCH   8  17
ATOM     12  C   UNL     1      53.281   3.057  19.156  0.00  0.00    +0.000 C 
ATOM     13  C   UNL     1      53.668   3.892  17.921  0.00  0.00    +0.000 C 
ATOM     14  C   UNL     1      54.967   4.675  18.096  0.00  0.00    +0.000 C 
ATOM     15  C   UNL     1      55.018   5.463  19.402  0.00  0.00    +0.000 C 
ATOM     16  C   UNL     1      54.661   4.615  20.618  0.00  0.00    +0.000 C 
ATOM     17  C   UNL     1      53.314   3.889  20.460  0.00  0.00    +0.000 C 
BRANCH  12  19
ATOM     18  N   UNL     1      54.842   0.941  19.380  0.00  0.00    +0.000 NA
ATOM     19  C   UNL     1      54.162   1.877  19.277  0.00  0.00    +0.000 C 
ENDBRANCH  12  19
ENDBRANCH   8  17
ENDBRANCH   7  10
ENDBRANCH   1   7
BRANCH   4  20
ATOM     20  C   UNL     1      48.907   8.019  15.109  0.00  0.00    +0.000 C 
BRANCH  20  21
ATOM     21  N   UNL     1      47.707   7.594  14.432  0.00  0.00    +0.000 N 
ATOM     22  C   UNL     1      47.765   6.738  13.364  0.00  0.00    +0.000 C 
ATOM     23  O   UNL     1      48.826   6.262  12.967  0.00  0.00    +0.000 OA
ATOM     24  H   UNL     1      46.869   8.146  14.589  0.00  0.00    +0.000 HD
BRANCH  22  25
ATOM     25  C   UNL     1      46.483   6.364  12.753  0.00  0.00    +0.000 A 
ATOM     26  C   UNL     1      45.677   7.345  12.188  0.00  0.00    +0.000 A 
ATOM     27  S   UNL     1      44.255   6.734  11.472  0.00  0.00    +0.000 S 
ATOM     28  C   UNL     1      44.640   5.143  11.937  0.00  0.00    +0.000 A 
ATOM     29  N   UNL     1      43.805   4.108  11.646  0.00  0.00    +0.000 NA
ATOM     30  C   UNL     1      44.205   2.962  12.086  0.00  0.00    +0.000 A 
ATOM     31  N   UNL     1      45.364   2.755  12.788  0.00  0.00    +0.000 N 
ATOM     32  C   UNL     1      46.251   3.764  13.078  0.00  0.00    +0.000 A 
ATOM     33  O   UNL     1      47.302   3.538  13.669  0.00  0.00    +0.000 OA
ATOM     34  C   UNL     1      45.844   5.077  12.614  0.00  0.00    +0.000 A 
ATOM     35  H   UNL     1      45.622   1.830  13.097  0.00  0.00    +0.000 HD
ENDBRANCH  22  25
ENDBRANCH  20  21
ENDBRANCH   4  20
TORSDOF 7
ENDMDL
MODEL 8
REMARK VINA RESULT:    -5.951      3.729      5.198
REMARK INTER + INTRA:          -9.587
REMARK INTER:                  -8.369
REMARK INTRA:                  -1.218
REMARK UNBOUND:                -1.201
REMARK  Name = 
REMARK  7 active torsions:
REMARK  status: ('A' for Active; 'I' for Inactive)
REMARK    1  A    between atoms: C_2  and  C_3
REMARK    2  A    between atoms: C_8  and  C_9
REMARK    3  A    between atoms: N_11  and  C_12
REMARK    4  A    between atoms: C_12  and  C_13
REMARK    5  A    between atoms: C_16  and  C_17
REMARK    6  A    between atoms: C_17  and  N_18
REMARK    7  A    between atoms: C_19  and  C_21
REMARK                            x       y       z     vdW  Elec       q    Type
REMARK                         _______ _______ _______ _____ _____    ______ ____
ROOT
ATOM      1  C   UNL     1      48.096   7.495  13.096  0.00  0.00    +0.000 A 
ATOM      2  C   UNL     1      49.347   8.088  13.316  0.00  0.00    +0.000 A 
ATOM      3  C   UNL     1      50.101   7.763  14.448  0.00  0.00    +0.000 A 
ATOM      4  C   UNL     1      49.629   6.824  15.374  0.00  0.00    +0.000 A 
ATOM      5  C   UNL     1      48.366   6.254  15.169  0.00  0.00    +0.000 A 
ATOM      6  C   UNL     1      47.613   6.577  14.036  0.00  0.00    +0.000 A 
ENDROOT
BRANCH   1   7
ATOM      7  C   UNL     1      47.283   7.841  11.879  0.00  0.00    +0.000 C 
BRANCH   7  10
ATOM      8  C   UNL     1      45.116   6.823  11.414  0.00  0.00    +0.000 C 
ATOM      9  O   UNL     1      44.546   7.818  11.860  0.00  0.00    +0.000 OA
ATOM     10  N   UNL     1      46.486   6.728  11.402  0.00  0.00    +0.000 N 
ATOM     11  H   UNL     1      46.959   5.886  11.093  0.00  0.00    +0.000 HD
BRANCH   8  17
ATOM     12  C   UNL     1      45.124   4.308  11.201  0.00  0.00    +0.000 C 
ATOM     13  C   UNL     1      45.049   3.938  12.694  0.00  0.00    +0.000 C 
ATOM     14  C   UNL     1      43.628   3.939  13.254  0.00  0.00    +0.000 C 
ATOM     15  C   UNL     1      42.850   5.203  12.902  0.00  0.00    +0.000 C 
ATOM     16  C   UNL     1      42.909   5.539  11.416  0.00  0.00    +0.000 C 
ATOM     17  C   UNL     1      44.349   5.608  10.879  0.00  0.00    +0.000 C 
BRANCH  12  19
ATOM     18  N   UNL     1      44.227   2.329   9.702  0.00  0.00    +0.000 NA
ATOM     19  C   UNL     1      44.624   3.193  10.368  0.00  0.00    +0.000 C 
ENDBRANCH  12  19
ENDBRANCH   8  17
ENDBRANCH   7  10
ENDBRANCH   1   7
BRANCH   4  20
ATOM     20  C   UNL     1      50.446   6.448  16.583  0.00  0.00    +0.000 C 
BRANCH  20  21
ATOM     21  N   UNL     1      49.802   6.856  17.806  0.00  0.00    +0.000 N 
ATOM     22  C   UNL     1      49.039   5.979  18.530  0.00  0.00    +0.000 C 
ATOM     23  O   UNL     1      48.906   4.803  18.197  0.00  0.00    +0.000 OA
ATOM     24  H   UNL     1      49.707   7.855  17.966  0.00  0.00    +0.000 HD
BRANCH  22  25
ATOM     25  C   UNL     1      48.435   6.497  19.764  0.00  0.00    +0.000 A 
ATOM     26  C   UNL     1      48.405   5.701  20.903  0.00  0.00    +0.000 A 
ATOM     27  S   UNL     1      47.723   6.476  22.261  0.00  0.00    +0.000 S 
ATOM     28  C   UNL     1      47.396   7.883  21.362  0.00  0.00    +0.000 A 
ATOM     29  N   UNL     1      46.782   8.953  21.937  0.00  0.00    +0.000 NA
ATOM     30  C   UNL     1      46.566   9.939  21.131  0.00  0.00    +0.000 A 
ATOM     31  N   UNL     1      46.910   9.954  19.805  0.00  0.00    +0.000 N 
ATOM     32  C   UNL     1      47.558   8.909  19.190  0.00  0.00    +0.000 A 
ATOM     33  O   UNL     1      47.892   8.973  18.011  0.00  0.00    +0.000 OA
ATOM     34  C   UNL     1      47.816   7.770  20.049  0.00  0.00    +0.000 A 
ATOM     35  H   UNL     1      46.719  10.762  19.230  0.00  0.00    +0.000 HD
ENDBRANCH  22  25
ENDBRANCH  20  21
ENDBRANCH   4  20
TORSDOF 7
ENDMDL
MODEL 9
REMARK VINA RESULT:    -5.620      5.944      7.720
REMARK INTER + INTRA:          -9.121
REMARK INTER:                  -8.483
REMARK INTRA:                  -0.638
REMARK UNBOUND:                -1.201
REMARK  Name = 
REMARK  7 active torsions:
REMARK  status: ('A' for Active; 'I' for Inactive)
REMARK    1  A    between atoms: C_2  and  C_3
REMARK    2  A    between atoms: C_8  and  C_9
REMARK    3  A    between atoms: N_11  and  C_12
REMARK    4  A    between atoms: C_12  and  C_13
REMARK    5  A    between atoms: C_16  and  C_17
REMARK    6  A    between atoms: C_17  and  N_18
REMARK    7  A    between atoms: C_19  and  C_21
REMARK                            x       y       z     vdW  Elec       q    Type
REMARK                         _______ _______ _______ _____ _____    ______ ____
ROOT
ATOM      1  C   UNL     1      47.695   8.191  12.856  0.00  0.00    +0.000 A 
ATOM      2  C   UNL     1      48.345   7.225  12.076  0.00  0.00    +0.000 A 
ATOM      3  C   UNL     1      49.690   7.381  11.723  0.00  0.00    +0.000 A 
ATOM      4  C   UNL     1      50.417   8.497  12.159  0.00  0.00    +0.000 A 
ATOM      5  C   UNL     1      49.758   9.475  12.914  0.00  0.00    +0.000 A 
ATOM      6  C   UNL     1      48.415   9.318  13.268  0.00  0.00    +0.000 A 
ENDROOT
BRANCH   1   7
ATOM      7  C   UNL     1      46.250   8.025  13.238  0.00  0.00    +0.000 C 
BRANCH   7  10
ATOM      8  C   UNL     1      44.703   7.149  11.567  0.00  0.00    +0.000 C 
ATOM      9  O   UNL     1      44.377   8.295  11.259  0.00  0.00    +0.000 OA
ATOM     10  N   UNL     1      45.617   6.909  12.564  0.00  0.00    +0.000 N 
ATOM     11  H   UNL     1      45.842   5.966  12.864  0.00  0.00    +0.000 HD
BRANCH   8  17
ATOM     12  C   UNL     1      45.075   4.722  10.982  0.00  0.00    +0.000 C 
ATOM     13  C   UNL     1      45.166   4.140  12.406  0.00  0.00    +0.000 C 
ATOM     14  C   UNL     1      43.806   3.837  13.030  0.00  0.00    +0.000 C 
ATOM     15  C   UNL     1      42.823   4.997  12.910  0.00  0.00    +0.000 C 
ATOM     16  C   UNL     1      42.722   5.541  11.489  0.00  0.00    +0.000 C 
ATOM     17  C   UNL     1      44.091   5.913  10.897  0.00  0.00    +0.000 C 
BRANCH  12  19
ATOM     18  N   UNL     1      44.373   2.837   9.273  0.00  0.00    +0.000 NA
ATOM     19  C   UNL     1      44.690   3.669  10.020  0.00  0.00    +0.000 C 
ENDBRANCH  12  19
ENDBRANCH   8  17
ENDBRANCH   7  10
ENDBRANCH   1   7
BRANCH   4  20
ATOM     20  C   UNL     1      51.873   8.661  11.806  0.00  0.00    +0.000 C 
BRANCH  20  21
ATOM     21  N   UNL     1      52.170   8.105  10.510  0.00  0.00    +0.000 N 
ATOM     22  C   UNL     1      53.329   7.408  10.290  0.00  0.00    +0.000 C 
ATOM     23  O   UNL     1      54.138   7.187  11.188  0.00  0.00    +0.000 OA
ATOM     24  H   UNL     1      51.645   8.469   9.721  0.00  0.00    +0.000 HD
BRANCH  22  25
ATOM     25  C   UNL     1      53.529   6.879   8.934  0.00  0.00    +0.000 A 
ATOM     26  C   UNL     1      53.755   5.520   8.752  0.00  0.00    +0.000 A 
ATOM     27  S   UNL     1      53.908   5.065   7.115  0.00  0.00    +0.000 S 
ATOM     28  C   UNL     1      53.729   6.675   6.595  0.00  0.00    +0.000 A 
ATOM     29  N   UNL     1      53.786   6.993   5.273  0.00  0.00    +0.000 NA
ATOM     30  C   UNL     1      53.668   8.255   5.024  0.00  0.00    +0.000 A 
ATOM     31  N   UNL     1      53.496   9.227   5.974  0.00  0.00    +0.000 N 
ATOM     32  C   UNL     1      53.403   8.949   7.317  0.00  0.00    +0.000 A 
ATOM     33  O   UNL     1      53.204   9.838   8.139  0.00  0.00    +0.000 OA
ATOM     34  C   UNL     1      53.539   7.545   7.654  0.00  0.00    +0.000 A 
ATOM     35  H   UNL     1      53.403  10.197   5.711  0.00  0.00    +0.000 HD
ENDBRANCH  22  25
ENDBRANCH  20  21
ENDBRANCH   4  20
TORSDOF 7
ENDMDL
