MODEL 1
REMARK VINA RESULT:    -8.170      0.000      0.000
REMARK INTER + INTRA:         -11.574
REMARK INTER:                 -10.558
REMARK INTRA:                  -1.016
REMARK UNBOUND:                -1.016
REMARK  Name = 
REMARK  7 active torsions:
REMARK  status: ('A' for Active; 'I' for Inactive)
REMARK    1  A    between atoms: C_1  and  C_2
REMARK    2  A    between atoms: N_4  and  C_5
REMARK    3  A    between atoms: C_9  and  C_10
REMARK    4  A    between atoms: C_10  and  C_11
REMARK    5  A    between atoms: C_11  and  N_12
REMARK    6  A    between atoms: C_16  and  C_17
REMARK    7  A    between atoms: C_24  and  C_25
REMARK                            x       y       z     vdW  Elec       q    Type
REMARK                         _______ _______ _______ _____ _____    ______ ____
ROOT
ATOM      1  C   UNL     1      46.645   6.614  13.308  0.00  0.00    +0.000 A 
ATOM      2  C   UNL     1      47.318   5.415  13.587  0.00  0.00    +0.000 A 
ATOM      3  C   UNL     1      46.701   4.169  13.438  0.00  0.00    +0.000 A 
ATOM      4  C   UNL     1      45.379   4.089  13.013  0.00  0.00    +0.000 A 
ATOM      5  C   UNL     1      44.672   5.256  12.720  0.00  0.00    +0.000 A 
ATOM      6  C   UNL     1      45.319   6.498  12.860  0.00  0.00    +0.000 A 
ENDROOT
BRANCH   1  10
ATOM      7  C   UNL     1      49.870   7.665  11.644  0.00  0.00    +0.000 C 
ATOM      8  C   UNL     1      49.557   8.620  12.799  0.00  0.00    +0.000 C 
ATOM      9  C   UNL     1      48.677   7.955  13.890  0.00  0.00    +0.000 C 
ATOM     10  N   UNL     1      47.275   7.835  13.469  0.00  0.00    +0.000 N 
ATOM     11  C   UNL     1      46.674   9.067  12.931  0.00  0.00    +0.000 C 
ATOM     12  C   UNL     1      47.592   9.708  11.849  0.00  0.00    +0.000 C 
ATOM     13  C   UNL     1      47.035  11.065  11.416  0.00  0.00    +0.000 C 
ATOM     14  N   UNL     1      48.993   9.900  12.301  0.00  0.00    +0.000 NA
ATOM     15  H   UNL     1      48.979  10.554  13.084  0.00  0.00    +0.000 HD
ENDBRANCH   1  10
BRANCH   5  16
ATOM     16  C   UNL     1      43.209   5.201  12.338  0.00  0.00    +0.000 C 
BRANCH  16  17
ATOM     17  C   UNL     1      43.016   4.434  11.025  0.00  0.00    +0.000 C 
BRANCH  17  18
ATOM     18  N   UNL     1      43.867   4.978   9.958  0.00  0.00    +0.000 N 
ATOM     19  C   UNL     1      44.647   3.985   9.331  0.00  0.00    +0.000 A 
ATOM     20  C   UNL     1      45.510   4.352   8.300  0.00  0.00    +0.000 A 
ATOM     21  C   UNL     1      46.274   3.369   7.659  0.00  0.00    +0.000 A 
ATOM     22  C   UNL     1      46.162   2.036   8.056  0.00  0.00    +0.000 A 
ATOM     23  C   UNL     1      45.274   1.762   9.080  0.00  0.00    +0.000 A 
ATOM     24  N   UNL     1      44.524   2.698   9.711  0.00  0.00    +0.000 NA
ATOM     25  H   UNL     1      44.485   5.711  10.293  0.00  0.00    +0.000 HD
BRANCH  22  26
ATOM     26  C   UNL     1      46.974   0.994   7.382  0.00  0.00    +0.000 C 
ATOM     27  N   UNL     1      47.858   1.367   6.407  0.00  0.00    +0.000 N 
ATOM     28  O   UNL     1      46.862  -0.188   7.685  0.00  0.00    +0.000 OA
ATOM     29  H   UNL     1      48.034   2.305   6.086  0.00  0.00    +0.000 HD
ATOM     30  H   UNL     1      48.394   0.625   5.975  0.00  0.00    +0.000 HD
ENDBRANCH  22  26
ENDBRANCH  17  18
ENDBRANCH  16  17
ENDBRANCH   5  16
TORSDOF 5
ENDMDL
MODEL 2
REMARK VINA RESULT:    -7.595      1.338      2.185
REMARK INTER + INTRA:         -10.831
REMARK INTER:                  -9.965
REMARK INTRA:                  -0.865
REMARK UNBOUND:                -1.016
REMARK  Name = 
REMARK  7 active torsions:
REMARK  status: ('A' for Active; 'I' for Inactive)
REMARK    1  A    between atoms: C_1  and  C_2
REMARK    2  A    between atoms: N_4  and  C_5
REMARK    3  A    between atoms: C_9  and  C_10
REMARK    4  A    between atoms: C_10  and  C_11
REMARK    5  A    between atoms: C_11  and  N_12
REMARK    6  A    between atoms: C_16  and  C_17
REMARK    7  A    between atoms: C_24  and  C_25
REMARK                            x       y       z     vdW  Elec       q    Type
REMARK                         _______ _______ _______ _____ _____    ______ ____
ROOT
ATOM      1  C   UNL     1      47.124   6.902  12.513  0.00  0.00    +0.000 A 
ATOM      2  C   UNL     1      47.637   5.989  13.448  0.00  0.00    +0.000 A 
ATOM      3  C   UNL     1      46.896   4.890  13.892  0.00  0.00    +0.000 A 
ATOM      4  C   UNL     1      45.605   4.679  13.417  0.00  0.00    +0.000 A 
ATOM      5  C   UNL     1      45.057   5.558  12.483  0.00  0.00    +0.000 A 
ATOM      6  C   UNL     1      45.828   6.647  12.037  0.00  0.00    +0.000 A 
ENDROOT
BRANCH   1  10
ATOM      7  C   UNL     1      48.752   9.463  14.764  0.00  0.00    +0.000 C 
ATOM      8  C   UNL     1      48.721   9.992  13.328  0.00  0.00    +0.000 C 
ATOM      9  C   UNL     1      47.573   9.365  12.494  0.00  0.00    +0.000 C 
ATOM     10  N   UNL     1      47.876   7.985  12.093  0.00  0.00    +0.000 N 
ATOM     11  C   UNL     1      49.198   7.786  11.475  0.00  0.00    +0.000 C 
ATOM     12  C   UNL     1      50.318   8.440  12.335  0.00  0.00    +0.000 C 
ATOM     13  C   UNL     1      51.660   8.366  11.605  0.00  0.00    +0.000 C 
ATOM     14  N   UNL     1      50.050   9.858  12.678  0.00  0.00    +0.000 NA
ATOM     15  H   UNL     1      50.018  10.387  11.806  0.00  0.00    +0.000 HD
ENDBRANCH   1  10
BRANCH   5  16
ATOM     16  C   UNL     1      43.626   5.398  12.015  0.00  0.00    +0.000 C 
BRANCH  16  17
ATOM     17  C   UNL     1      43.578   4.941  10.554  0.00  0.00    +0.000 C 
BRANCH  17  18
ATOM     18  N   UNL     1      43.919   3.517  10.427  0.00  0.00    +0.000 N 
ATOM     19  C   UNL     1      44.775   3.262   9.337  0.00  0.00    +0.000 A 
ATOM     20  C   UNL     1      45.181   1.953   9.086  0.00  0.00    +0.000 A 
ATOM     21  C   UNL     1      46.047   1.693   8.016  0.00  0.00    +0.000 A 
ATOM     22  C   UNL     1      46.494   2.745   7.216  0.00  0.00    +0.000 A 
ATOM     23  C   UNL     1      46.047   4.012   7.544  0.00  0.00    +0.000 A 
ATOM     24  N   UNL     1      45.213   4.284   8.575  0.00  0.00    +0.000 NA
ATOM     25  H   UNL     1      43.095   2.929  10.337  0.00  0.00    +0.000 HD
BRANCH  22  26
ATOM     26  C   UNL     1      47.405   2.472   6.079  0.00  0.00    +0.000 C 
ATOM     27  N   UNL     1      48.755   2.598   6.263  0.00  0.00    +0.000 N 
ATOM     28  O   UNL     1      46.967   2.139   4.984  0.00  0.00    +0.000 OA
ATOM     29  H   UNL     1      49.220   2.858   7.118  0.00  0.00    +0.000 HD
ATOM     30  H   UNL     1      49.342   2.400   5.462  0.00  0.00    +0.000 HD
ENDBRANCH  22  26
ENDBRANCH  17  18
ENDBRANCH  16  17
ENDBRANCH   5  16
TORSDOF 5
ENDMDL
MODEL 3
REMARK VINA RESULT:    -7.207      1.827      3.273
REMARK INTER + INTRA:         -10.330
REMARK INTER:                  -9.544
REMARK INTRA:                  -0.786
REMARK UNBOUND:                -1.016
REMARK  Name = 
REMARK  7 active torsions:
REMARK  status: ('A' for Active; 'I' for Inactive)
REMARK    1  A    between atoms: C_1  and  C_2
REMARK    2  A    between atoms: N_4  and  C_5
REMARK    3  A    between atoms: C_9  and  C_10
REMARK    4  A    between atoms: C_10  and  C_11
REMARK    5  A    between atoms: C_11  and  N_12
REMARK    6  A    between atoms: C_16  and  C_17
REMARK    7  A    between atoms: C_24  and  C_25
REMARK                            x       y       z     vdW  Elec       q    Type
REMARK                         _______ _______ _______ _____ _____    ______ ____
ROOT
ATOM      1  C   UNL     1      46.996   6.829  13.301  0.00  0.00    +0.000 A 
ATOM      2  C   UNL     1      46.929   8.086  12.679  0.00  0.00    +0.000 A 
ATOM      3  C   UNL     1      45.794   8.505  11.978  0.00  0.00    +0.000 A 
ATOM      4  C   UNL     1      44.689   7.666  11.870  0.00  0.00    +0.000 A 
ATOM      5  C   UNL     1      44.710   6.409  12.477  0.00  0.00    +0.000 A 
ATOM      6  C   UNL     1      45.856   6.016  13.193  0.00  0.00    +0.000 A 
ENDROOT
BRANCH   1  10
ATOM      7  C   UNL     1      48.905   8.928  15.797  0.00  0.00    +0.000 C 
ATOM      8  C   UNL     1      49.765   7.736  15.369  0.00  0.00    +0.000 C 
ATOM      9  C   UNL     1      49.381   7.209  13.961  0.00  0.00    +0.000 C 
ATOM     10  N   UNL     1      48.132   6.436  13.985  0.00  0.00    +0.000 N 
ATOM     11  C   UNL     1      48.062   5.390  15.019  0.00  0.00    +0.000 C 
ATOM     12  C   UNL     1      48.466   5.956  16.411  0.00  0.00    +0.000 C 
ATOM     13  C   UNL     1      48.543   4.827  17.442  0.00  0.00    +0.000 C 
ATOM     14  N   UNL     1      49.765   6.673  16.405  0.00  0.00    +0.000 NA
ATOM     15  H   UNL     1      50.488   5.999  16.152  0.00  0.00    +0.000 HD
ENDBRANCH   1  10
BRANCH   5  16
ATOM     16  C   UNL     1      43.555   5.446  12.303  0.00  0.00    +0.000 C 
BRANCH  16  17
ATOM     17  C   UNL     1      43.400   5.038  10.834  0.00  0.00    +0.000 C 
BRANCH  17  18
ATOM     18  N   UNL     1      43.642   3.600  10.651  0.00  0.00    +0.000 N 
ATOM     19  C   UNL     1      44.577   3.336   9.631  0.00  0.00    +0.000 A 
ATOM     20  C   UNL     1      44.904   2.013   9.336  0.00  0.00    +0.000 A 
ATOM     21  C   UNL     1      45.848   1.743   8.337  0.00  0.00    +0.000 A 
ATOM     22  C   UNL     1      46.450   2.797   7.650  0.00  0.00    +0.000 A 
ATOM     23  C   UNL     1      46.073   4.076   8.014  0.00  0.00    +0.000 A 
ATOM     24  N   UNL     1      45.165   4.359   8.979  0.00  0.00    +0.000 NA
ATOM     25  H   UNL     1      42.788   3.089  10.447  0.00  0.00    +0.000 HD
BRANCH  22  26
ATOM     26  C   UNL     1      47.445   2.512   6.588  0.00  0.00    +0.000 C 
ATOM     27  N   UNL     1      47.327   3.143   5.380  0.00  0.00    +0.000 N 
ATOM     28  O   UNL     1      48.364   1.723   6.777  0.00  0.00    +0.000 OA
ATOM     29  H   UNL     1      46.618   3.810   5.120  0.00  0.00    +0.000 HD
ATOM     30  H   UNL     1      48.028   2.922   4.683  0.00  0.00    +0.000 HD
ENDBRANCH  22  26
ENDBRANCH  17  18
ENDBRANCH  16  17
ENDBRANCH   5  16
TORSDOF 5
ENDMDL
MODEL 4
REMARK VINA RESULT:    -7.065      3.262      7.630
REMARK INTER + INTRA:         -10.147
REMARK INTER:                  -9.259
REMARK INTRA:                  -0.888
REMARK UNBOUND:                -1.016
REMARK  Name = 
REMARK  7 active torsions:
REMARK  status: ('A' for Active; 'I' for Inactive)
REMARK    1  A    between atoms: C_1  and  C_2
REMARK    2  A    between atoms: N_4  and  C_5
REMARK    3  A    between atoms: C_9  and  C_10
REMARK    4  A    between atoms: C_10  and  C_11
REMARK    5  A    between atoms: C_11  and  N_12
REMARK    6  A    between atoms: C_16  and  C_17
REMARK    7  A    between atoms: C_24  and  C_25
REMARK                            x       y       z     vdW  Elec       q    Type
REMARK                         _______ _______ _______ _____ _____    ______ ____
ROOT
ATOM      1  C   UNL     1      45.725   6.960  11.775  0.00  0.00    +0.000 A 
ATOM      2  C   UNL     1      44.778   7.960  11.503  0.00  0.00    +0.000 A 
ATOM      3  C   UNL     1      45.055   9.315  11.708  0.00  0.00    +0.000 A 
ATOM      4  C   UNL     1      46.293   9.710  12.206  0.00  0.00    +0.000 A 
ATOM      5  C   UNL     1      47.266   8.749  12.486  0.00  0.00    +0.000 A 
ATOM      6  C   UNL     1      46.972   7.393  12.253  0.00  0.00    +0.000 A 
ENDROOT
BRANCH   1  10
ATOM      7  C   UNL     1      42.265   5.442  11.829  0.00  0.00    +0.000 C 
ATOM      8  C   UNL     1      43.312   4.329  11.920  0.00  0.00    +0.000 C 
ATOM      9  C   UNL     1      44.651   4.828  12.527  0.00  0.00    +0.000 C 
ATOM     10  N   UNL     1      45.425   5.625  11.567  0.00  0.00    +0.000 N 
ATOM     11  C   UNL     1      45.600   5.014  10.239  0.00  0.00    +0.000 C 
ATOM     12  C   UNL     1      44.239   4.517   9.672  0.00  0.00    +0.000 C 
ATOM     13  C   UNL     1      44.456   3.744   8.370  0.00  0.00    +0.000 C 
ATOM     14  N   UNL     1      43.488   3.648  10.612  0.00  0.00    +0.000 NA
ATOM     15  H   UNL     1      44.049   2.812  10.775  0.00  0.00    +0.000 HD
ENDBRANCH   1  10
BRANCH   5  16
ATOM     16  C   UNL     1      48.589   9.144  13.106  0.00  0.00    +0.000 C 
BRANCH  16  17
ATOM     17  C   UNL     1      49.416   7.905  13.465  0.00  0.00    +0.000 C 
BRANCH  17  18
ATOM     18  N   UNL     1      49.798   7.911  14.884  0.00  0.00    +0.000 N 
ATOM     19  C   UNL     1      49.230   6.838  15.600  0.00  0.00    +0.000 A 
ATOM     20  C   UNL     1      49.499   6.715  16.962  0.00  0.00    +0.000 A 
ATOM     21  C   UNL     1      48.954   5.641  17.677  0.00  0.00    +0.000 A 
ATOM     22  C   UNL     1      48.152   4.707  17.021  0.00  0.00    +0.000 A 
ATOM     23  C   UNL     1      47.947   4.903  15.667  0.00  0.00    +0.000 A 
ATOM     24  N   UNL     1      48.466   5.933  14.957  0.00  0.00    +0.000 NA
ATOM     25  H   UNL     1      49.547   8.779  15.348  0.00  0.00    +0.000 HD
BRANCH  22  26
ATOM     26  C   UNL     1      47.569   3.573  17.777  0.00  0.00    +0.000 C 
ATOM     27  N   UNL     1      48.202   3.132  18.907  0.00  0.00    +0.000 N 
ATOM     28  O   UNL     1      46.537   3.028  17.403  0.00  0.00    +0.000 OA
ATOM     29  H   UNL     1      49.047   3.508  19.305  0.00  0.00    +0.000 HD
ATOM     30  H   UNL     1      47.769   2.357  19.394  0.00  0.00    +0.000 HD
ENDBRANCH  22  26
ENDBRANCH  17  18
ENDBRANCH  16  17
ENDBRANCH   5  16
TORSDOF 5
ENDMDL
MODEL 5
REMARK VINA RESULT:    -6.861      3.898      6.394
REMARK INTER + INTRA:          -9.882
REMARK INTER:                  -8.946
REMARK INTRA:                  -0.936
REMARK UNBOUND:                -1.016
REMARK  Name = 
REMARK  7 active torsions:
REMARK  status: ('A' for Active; 'I' for Inactive)
REMARK    1  A    between atoms: C_1  and  C_2
REMARK    2  A    between atoms: N_4  and  C_5
REMARK    3  A    between atoms: C_9  and  C_10
REMARK    4  A    between atoms: C_10  and  C_11
REMARK    5  A    between atoms: C_11  and  N_12
REMARK    6  A    between atoms: C_16  and  C_17
REMARK    7  A    between atoms: C_24  and  C_25
REMARK                            x       y       z     vdW  Elec       q    Type
REMARK                         _______ _______ _______ _____ _____    ______ ____
ROOT
ATOM      1  C   UNL     1      49.331   6.196  16.572  0.00  0.00    +0.000 A 
ATOM      2  C   UNL     1      50.722   6.217  16.756  0.00  0.00    +0.000 A 
ATOM      3  C   UNL     1      51.562   6.994  15.953  0.00  0.00    +0.000 A 
ATOM      4  C   UNL     1      51.030   7.769  14.928  0.00  0.00    +0.000 A 
ATOM      5  C   UNL     1      49.651   7.782  14.712  0.00  0.00    +0.000 A 
ATOM      6  C   UNL     1      48.823   7.006  15.545  0.00  0.00    +0.000 A 
ENDROOT
BRANCH   1  10
ATOM      7  C   UNL     1      49.899   2.553  17.399  0.00  0.00    +0.000 C 
ATOM      8  C   UNL     1      48.465   2.941  17.766  0.00  0.00    +0.000 C 
ATOM      9  C   UNL     1      47.947   4.140  16.927  0.00  0.00    +0.000 C 
ATOM     10  N   UNL     1      48.521   5.414  17.377  0.00  0.00    +0.000 N 
ATOM     11  C   UNL     1      48.441   5.662  18.827  0.00  0.00    +0.000 C 
ATOM     12  C   UNL     1      48.957   4.433  19.630  0.00  0.00    +0.000 C 
ATOM     13  C   UNL     1      48.720   4.639  21.128  0.00  0.00    +0.000 C 
ATOM     14  N   UNL     1      48.322   3.153  19.228  0.00  0.00    +0.000 NA
ATOM     15  H   UNL     1      47.326   3.225  19.431  0.00  0.00    +0.000 HD
ENDBRANCH   1  10
BRANCH   5  16
ATOM     16  C   UNL     1      49.056   8.551  13.552  0.00  0.00    +0.000 C 
BRANCH  16  17
ATOM     17  C   UNL     1      47.539   8.344  13.481  0.00  0.00    +0.000 C 
BRANCH  17  18
ATOM     18  N   UNL     1      47.110   8.003  12.117  0.00  0.00    +0.000 N 
ATOM     19  C   UNL     1      46.391   6.791  12.065  0.00  0.00    +0.000 A 
ATOM     20  C   UNL     1      45.923   6.334  10.835  0.00  0.00    +0.000 A 
ATOM     21  C   UNL     1      45.192   5.141  10.776  0.00  0.00    +0.000 A 
ATOM     22  C   UNL     1      44.939   4.425  11.947  0.00  0.00    +0.000 A 
ATOM     23  C   UNL     1      45.433   4.959  13.123  0.00  0.00    +0.000 A 
ATOM     24  N   UNL     1      46.140   6.112  13.201  0.00  0.00    +0.000 NA
ATOM     25  H   UNL     1      47.890   7.945  11.470  0.00  0.00    +0.000 HD
BRANCH  22  26
ATOM     26  C   UNL     1      44.170   3.159  11.887  0.00  0.00    +0.000 C 
ATOM     27  N   UNL     1      44.087   2.487  10.699  0.00  0.00    +0.000 N 
ATOM     28  O   UNL     1      43.610   2.712  12.881  0.00  0.00    +0.000 OA
ATOM     29  H   UNL     1      44.512   2.759   9.827  0.00  0.00    +0.000 HD
ATOM     30  H   UNL     1      43.555   1.625  10.702  0.00  0.00    +0.000 HD
ENDBRANCH  22  26
ENDBRANCH  17  18
ENDBRANCH  16  17
ENDBRANCH   5  16
TORSDOF 5
ENDMDL
MODEL 6
REMARK VINA RESULT:    -6.700      4.022      6.766
REMARK INTER + INTRA:          -9.675
REMARK INTER:                  -8.568
REMARK INTRA:                  -1.107
REMARK UNBOUND:                -1.016
REMARK  Name = 
REMARK  7 active torsions:
REMARK  status: ('A' for Active; 'I' for Inactive)
REMARK    1  A    between atoms: C_1  and  C_2
REMARK    2  A    between atoms: N_4  and  C_5
REMARK    3  A    between atoms: C_9  and  C_10
REMARK    4  A    between atoms: C_10  and  C_11
REMARK    5  A    between atoms: C_11  and  N_12
REMARK    6  A    between atoms: C_16  and  C_17
REMARK    7  A    between atoms: C_24  and  C_25
REMARK                            x       y       z     vdW  Elec       q    Type
REMARK                         _______ _______ _______ _____ _____    ______ ____
ROOT
ATOM      1  C   UNL     1      48.846   6.952  17.655  0.00  0.00    +0.000 A 
ATOM      2  C   UNL     1      48.190   8.014  18.296  0.00  0.00    +0.000 A 
ATOM      3  C   UNL     1      47.885   9.205  17.630  0.00  0.00    +0.000 A 
ATOM      4  C   UNL     1      48.241   9.372  16.295  0.00  0.00    +0.000 A 
ATOM      5  C   UNL     1      48.891   8.340  15.617  0.00  0.00    +0.000 A 
ATOM      6  C   UNL     1      49.171   7.143  16.302  0.00  0.00    +0.000 A 
ENDROOT
BRANCH   1  10
ATOM      7  C   UNL     1      47.686   3.485  16.699  0.00  0.00    +0.000 C 
ATOM      8  C   UNL     1      48.208   3.470  18.139  0.00  0.00    +0.000 C 
ATOM      9  C   UNL     1      48.104   4.862  18.816  0.00  0.00    +0.000 C 
ATOM     10  N   UNL     1      49.141   5.785  18.337  0.00  0.00    +0.000 N 
ATOM     11  C   UNL     1      50.513   5.251  18.351  0.00  0.00    +0.000 C 
ATOM     12  C   UNL     1      50.571   3.850  17.674  0.00  0.00    +0.000 C 
ATOM     13  C   UNL     1      51.963   3.238  17.837  0.00  0.00    +0.000 C 
ATOM     14  N   UNL     1      49.573   2.892  18.210  0.00  0.00    +0.000 NA
ATOM     15  H   UNL     1      49.789   2.739  19.195  0.00  0.00    +0.000 HD
ENDBRANCH   1  10
BRANCH   5  16
ATOM     16  C   UNL     1      49.363   8.527  14.191  0.00  0.00    +0.000 C 
BRANCH  16  17
ATOM     17  C   UNL     1      49.323   7.201  13.424  0.00  0.00    +0.000 C 
BRANCH  17  18
ATOM     18  N   UNL     1      48.413   7.276  12.272  0.00  0.00    +0.000 N 
ATOM     19  C   UNL     1      47.278   6.456  12.427  0.00  0.00    +0.000 A 
ATOM     20  C   UNL     1      46.325   6.418  11.411  0.00  0.00    +0.000 A 
ATOM     21  C   UNL     1      45.185   5.620  11.565  0.00  0.00    +0.000 A 
ATOM     22  C   UNL     1      45.014   4.874  12.732  0.00  0.00    +0.000 A 
ATOM     23  C   UNL     1      46.004   4.980  13.691  0.00  0.00    +0.000 A 
ATOM     24  N   UNL     1      47.113   5.748  13.562  0.00  0.00    +0.000 NA
ATOM     25  H   UNL     1      48.873   7.032  11.401  0.00  0.00    +0.000 HD
BRANCH  22  26
ATOM     26  C   UNL     1      43.810   4.024  12.895  0.00  0.00    +0.000 C 
ATOM     27  N   UNL     1      43.889   2.693  12.589  0.00  0.00    +0.000 N 
ATOM     28  O   UNL     1      42.752   4.497  13.295  0.00  0.00    +0.000 OA
ATOM     29  H   UNL     1      44.705   2.202  12.261  0.00  0.00    +0.000 HD
ATOM     30  H   UNL     1      43.045   2.149  12.717  0.00  0.00    +0.000 HD
ENDBRANCH  22  26
ENDBRANCH  17  18
ENDBRANCH  16  17
ENDBRANCH   5  16
TORSDOF 5
ENDMDL
MODEL 7
REMARK VINA RESULT:    -6.618      2.869      7.352
REMARK INTER + INTRA:          -9.568
REMARK INTER:                  -9.021
REMARK INTRA:                  -0.548
REMARK UNBOUND:                -1.016
REMARK  Name = 
REMARK  7 active torsions:
REMARK  status: ('A' for Active; 'I' for Inactive)
REMARK    1  A    between atoms: C_1  and  C_2
REMARK    2  A    between atoms: N_4  and  C_5
REMARK    3  A    between atoms: C_9  and  C_10
REMARK    4  A    between atoms: C_10  and  C_11
REMARK    5  A    between atoms: C_11  and  N_12
REMARK    6  A    between atoms: C_16  and  C_17
REMARK    7  A    between atoms: C_24  and  C_25
REMARK                            x       y       z     vdW  Elec       q    Type
REMARK                         _______ _______ _______ _____ _____    ______ ____
ROOT
ATOM      1  C   UNL     1      44.450   3.562  10.112  0.00  0.00    +0.000 A 
ATOM      2  C   UNL     1      43.783   2.923  11.169  0.00  0.00    +0.000 A 
ATOM      3  C   UNL     1      43.635   3.526  12.421  0.00  0.00    +0.000 A 
ATOM      4  C   UNL     1      44.165   4.791  12.656  0.00  0.00    +0.000 A 
ATOM      5  C   UNL     1      44.832   5.465  11.632  0.00  0.00    +0.000 A 
ATOM      6  C   UNL     1      44.953   4.846  10.374  0.00  0.00    +0.000 A 
ENDROOT
BRANCH   1  10
ATOM      7  C   UNL     1      47.104   4.336   7.536  0.00  0.00    +0.000 C 
ATOM      8  C   UNL     1      45.987   3.515   6.886  0.00  0.00    +0.000 C 
ATOM      9  C   UNL     1      44.629   3.687   7.618  0.00  0.00    +0.000 C 
ATOM     10  N   UNL     1      44.588   2.942   8.882  0.00  0.00    +0.000 N 
ATOM     11  C   UNL     1      45.008   1.533   8.795  0.00  0.00    +0.000 C 
ATOM     12  C   UNL     1      46.366   1.404   8.045  0.00  0.00    +0.000 C 
ATOM     13  C   UNL     1      46.711  -0.070   7.821  0.00  0.00    +0.000 C 
ATOM     14  N   UNL     1      46.385   2.093   6.731  0.00  0.00    +0.000 NA
ATOM     15  H   UNL     1      45.689   1.644   6.136  0.00  0.00    +0.000 HD
ENDBRANCH   1  10
BRANCH   5  16
ATOM     16  C   UNL     1      45.489   6.804  11.886  0.00  0.00    +0.000 C 
BRANCH  16  17
ATOM     17  C   UNL     1      47.016   6.675  11.874  0.00  0.00    +0.000 C 
BRANCH  17  18
ATOM     18  N   UNL     1      47.600   7.110  13.150  0.00  0.00    +0.000 N 
ATOM     19  C   UNL     1      47.681   6.063  14.091  0.00  0.00    +0.000 A 
ATOM     20  C   UNL     1      48.210   6.326  15.353  0.00  0.00    +0.000 A 
ATOM     21  C   UNL     1      48.312   5.288  16.288  0.00  0.00    +0.000 A 
ATOM     22  C   UNL     1      47.886   4.004  15.945  0.00  0.00    +0.000 A 
ATOM     23  C   UNL     1      47.384   3.833  14.668  0.00  0.00    +0.000 A 
ATOM     24  N   UNL     1      47.280   4.823  13.750  0.00  0.00    +0.000 NA
ATOM     25  H   UNL     1      47.087   7.881  13.567  0.00  0.00    +0.000 HD
BRANCH  22  26
ATOM     26  C   UNL     1      47.987   2.904  16.934  0.00  0.00    +0.000 C 
ATOM     27  N   UNL     1      46.958   2.702  17.812  0.00  0.00    +0.000 N 
ATOM     28  O   UNL     1      48.977   2.182  16.976  0.00  0.00    +0.000 OA
ATOM     29  H   UNL     1      46.101   3.229  17.861  0.00  0.00    +0.000 HD
ATOM     30  H   UNL     1      47.067   1.939  18.469  0.00  0.00    +0.000 HD
ENDBRANCH  22  26
ENDBRANCH  17  18
ENDBRANCH  16  17
ENDBRANCH   5  16
TORSDOF 5
ENDMDL
MODEL 8
REMARK VINA RESULT:    -6.308      5.197      8.978
REMARK INTER + INTRA:          -9.168
REMARK INTER:                  -8.549
REMARK INTRA:                  -0.619
REMARK UNBOUND:                -1.016
REMARK  Name = 
REMARK  7 active torsions:
REMARK  status: ('A' for Active; 'I' for Inactive)
REMARK    1  A    between atoms: C_1  and  C_2
REMARK    2  A    between atoms: N_4  and  C_5
REMARK    3  A    between atoms: C_9  and  C_10
REMARK    4  A    between atoms: C_10  and  C_11
REMARK    5  A    between atoms: C_11  and  N_12
REMARK    6  A    between atoms: C_16  and  C_17
REMARK    7  A    between atoms: C_24  and  C_25
REMARK                            x       y       z     vdW  Elec       q    Type
REMARK                         _______ _______ _______ _____ _____    ______ ____
ROOT
ATOM      1  C   UNL     1      46.298   5.428  12.762  0.00  0.00    +0.000 A 
ATOM      2  C   UNL     1      46.577   6.332  11.726  0.00  0.00    +0.000 A 
ATOM      3  C   UNL     1      47.579   7.300  11.839  0.00  0.00    +0.000 A 
ATOM      4  C   UNL     1      48.328   7.399  13.007  0.00  0.00    +0.000 A 
ATOM      5  C   UNL     1      48.088   6.517  14.062  0.00  0.00    +0.000 A 
ATOM      6  C   UNL     1      47.087   5.538  13.918  0.00  0.00    +0.000 A 
ENDROOT
BRANCH   1  10
ATOM      7  C   UNL     1      42.842   6.054  11.368  0.00  0.00    +0.000 C 
ATOM      8  C   UNL     1      42.860   4.712  12.104  0.00  0.00    +0.000 C 
ATOM      9  C   UNL     1      43.957   4.656  13.200  0.00  0.00    +0.000 C 
ATOM     10  N   UNL     1      45.297   4.481  12.628  0.00  0.00    +0.000 N 
ATOM     11  C   UNL     1      45.424   3.390  11.646  0.00  0.00    +0.000 C 
ATOM     12  C   UNL     1      44.299   3.475  10.573  0.00  0.00    +0.000 C 
ATOM     13  C   UNL     1      44.345   2.251   9.657  0.00  0.00    +0.000 C 
ATOM     14  N   UNL     1      42.936   3.576  11.151  0.00  0.00    +0.000 NA
ATOM     15  H   UNL     1      42.760   2.721  11.678  0.00  0.00    +0.000 HD
ENDBRANCH   1  10
BRANCH   5  16
ATOM     16  C   UNL     1      48.831   6.657  15.373  0.00  0.00    +0.000 C 
BRANCH  16  17
ATOM     17  C   UNL     1      48.465   5.519  16.332  0.00  0.00    +0.000 C 
BRANCH  17  18
ATOM     18  N   UNL     1      48.826   5.851  17.718  0.00  0.00    +0.000 N 
ATOM     19  C   UNL     1      49.982   5.171  18.152  0.00  0.00    +0.000 A 
ATOM     20  C   UNL     1      50.444   5.380  19.450  0.00  0.00    +0.000 A 
ATOM     21  C   UNL     1      51.603   4.724  19.883  0.00  0.00    +0.000 A 
ATOM     22  C   UNL     1      52.281   3.870  19.012  0.00  0.00    +0.000 A 
ATOM     23  C   UNL     1      51.757   3.729  17.741  0.00  0.00    +0.000 A 
ATOM     24  N   UNL     1      50.640   4.358  17.302  0.00  0.00    +0.000 NA
ATOM     25  H   UNL     1      48.072   5.657  18.370  0.00  0.00    +0.000 HD
BRANCH  22  26
ATOM     26  C   UNL     1      53.505   3.169  19.470  0.00  0.00    +0.000 C 
ATOM     27  N   UNL     1      54.464   3.875  20.143  0.00  0.00    +0.000 N 
ATOM     28  O   UNL     1      53.667   1.974  19.253  0.00  0.00    +0.000 OA
ATOM     29  H   UNL     1      54.430   4.853  20.380  0.00  0.00    +0.000 HD
ATOM     30  H   UNL     1      55.282   3.358  20.440  0.00  0.00    +0.000 HD
ENDBRANCH  22  26
ENDBRANCH  17  18
ENDBRANCH  16  17
ENDBRANCH   5  16
TORSDOF 5
ENDMDL
MODEL 9
REMARK VINA RESULT:    -6.063      4.109      6.846
REMARK INTER + INTRA:          -8.852
REMARK INTER:                  -8.155
REMARK INTRA:                  -0.697
REMARK UNBOUND:                -1.016
REMARK  Name = 
REMARK  7 active torsions:
REMARK  status: ('A' for Active; 'I' for Inactive)
REMARK    1  A    between atoms: C_1  and  C_2
REMARK    2  A    between atoms: N_4  and  C_5
REMARK    3  A    between atoms: C_9  and  C_10
REMARK    4  A    between atoms: C_10  and  C_11
REMARK    5  A    between atoms: C_11  and  N_12
REMARK    6  A    between atoms: C_16  and  C_17
REMARK    7  A    between atoms: C_24  and  C_25
REMARK                            x       y       z     vdW  Elec       q    Type
REMARK                         _______ _______ _______ _____ _____    ______ ____
ROOT
ATOM      1  C   UNL     1      51.278   6.434  16.942  0.00  0.00    +0.000 A 
ATOM      2  C   UNL     1      52.487   7.142  17.027  0.00  0.00    +0.000 A 
ATOM      3  C   UNL     1      52.797   8.183  16.147  0.00  0.00    +0.000 A 
ATOM      4  C   UNL     1      51.904   8.539  15.141  0.00  0.00    +0.000 A 
ATOM      5  C   UNL     1      50.688   7.866  15.023  0.00  0.00    +0.000 A 
ATOM      6  C   UNL     1      50.389   6.834  15.931  0.00  0.00    +0.000 A 
ENDROOT
BRANCH   1  10
ATOM      7  C   UNL     1      47.977   4.617  17.224  0.00  0.00    +0.000 C 
ATOM      8  C   UNL     1      48.831   4.317  18.458  0.00  0.00    +0.000 C 
ATOM      9  C   UNL     1      49.859   5.443  18.750  0.00  0.00    +0.000 C 
ATOM     10  N   UNL     1      50.995   5.404  17.822  0.00  0.00    +0.000 N 
ATOM     11  C   UNL     1      51.632   4.085  17.663  0.00  0.00    +0.000 C 
ATOM     12  C   UNL     1      50.568   2.984  17.384  0.00  0.00    +0.000 C 
ATOM     13  C   UNL     1      51.222   1.602  17.381  0.00  0.00    +0.000 C 
ATOM     14  N   UNL     1      49.456   2.973  18.367  0.00  0.00    +0.000 NA
ATOM     15  H   UNL     1      49.853   2.757  19.281  0.00  0.00    +0.000 HD
ENDBRANCH   1  10
BRANCH   5  16
ATOM     16  C   UNL     1      49.737   8.178  13.888  0.00  0.00    +0.000 C 
BRANCH  16  17
ATOM     17  C   UNL     1      48.864   6.963  13.556  0.00  0.00    +0.000 C 
BRANCH  17  18
ATOM     18  N   UNL     1      48.047   7.202  12.358  0.00  0.00    +0.000 N 
ATOM     19  C   UNL     1      46.998   6.271  12.225  0.00  0.00    +0.000 A 
ATOM     20  C   UNL     1      46.140   6.367  11.131  0.00  0.00    +0.000 A 
ATOM     21  C   UNL     1      45.084   5.457  11.002  0.00  0.00    +0.000 A 
ATOM     22  C   UNL     1      44.900   4.467  11.968  0.00  0.00    +0.000 A 
ATOM     23  C   UNL     1      45.793   4.452  13.024  0.00  0.00    +0.000 A 
ATOM     24  N   UNL     1      46.819   5.324  13.168  0.00  0.00    +0.000 NA
ATOM     25  H   UNL     1      48.600   7.191  11.506  0.00  0.00    +0.000 HD
BRANCH  22  26
ATOM     26  C   UNL     1      43.786   3.499  11.830  0.00  0.00    +0.000 C 
ATOM     27  N   UNL     1      43.814   2.344  12.562  0.00  0.00    +0.000 N 
ATOM     28  O   UNL     1      42.848   3.718  11.071  0.00  0.00    +0.000 OA
ATOM     29  H   UNL     1      44.528   2.067  13.216  0.00  0.00    +0.000 HD
ATOM     30  H   UNL     1      43.032   1.712  12.440  0.00  0.00    +0.000 HD
ENDBRANCH  22  26
ENDBRANCH  17  18
ENDBRANCH  16  17
ENDBRANCH   5  16
TORSDOF 5
ENDMDL
