MODEL 1
REMARK VINA RESULT:    -7.731      0.000      0.000
REMARK INTER + INTRA:         -10.183
REMARK INTER:                  -9.539
REMARK INTRA:                  -0.644
REMARK UNBOUND:                -0.644
REMARK  Name = 
REMARK  5 active torsions:
REMARK  status: ('A' for Active; 'I' for Inactive)
REMARK    1  A    between atoms: C_1  and  C_2
REMARK    2  A    between atoms: C_7  and  N_8
REMARK    3  A    between atoms: N_8  and  C_9
REMARK    4  A    between atoms: C_9  and  C_10
REMARK    5  A    between atoms: C_14  and  C_15
REMARK                            x       y       z     vdW  Elec       q    Type
REMARK                         _______ _______ _______ _____ _____    ______ ____
ROOT
ATOM      1  C   UNL     1      43.901   5.015  10.939  0.00  0.00    +0.000 C 
ATOM      2  C   UNL     1      42.867   3.994  11.452  0.00  0.00    +0.000 C 
ATOM      3  C   UNL     1      42.599   5.443  11.594  0.00  0.00    +0.000 C 
ENDROOT
BRANCH   1   4
ATOM      4  C   UNL     1      45.143   5.211  11.811  0.00  0.00    +0.000 A 
ATOM      5  C   UNL     1      45.628   4.187  12.633  0.00  0.00    +0.000 A 
ATOM      6  C   UNL     1      46.817   4.341  13.337  0.00  0.00    +0.000 A 
ATOM      7  C   UNL     1      47.555   5.523  13.217  0.00  0.00    +0.000 A 
ATOM      8  C   UNL     1      47.124   6.572  12.394  0.00  0.00    +0.000 A 
ATOM      9  C   UNL     1      45.892   6.403  11.741  0.00  0.00    +0.000 A 
BRANCH   8  10
ATOM     10  C   UNL     1      47.982   7.747  12.111  0.00  0.00    +0.000 A 
ATOM     11  C   UNL     1      49.339   7.577  11.787  0.00  0.00    +0.000 A 
ATOM     12  C   UNL     1      50.149   8.653  11.436  0.00  0.00    +0.000 A 
ATOM     13  C   UNL     1      49.619   9.939  11.395  0.00  0.00    +0.000 A 
ATOM     14  C   UNL     1      48.277  10.141  11.712  0.00  0.00    +0.000 A 
ATOM     15  C   UNL     1      47.470   9.058  12.076  0.00  0.00    +0.000 A 
ENDBRANCH   8  10
ENDBRANCH   1   4
BRANCH   1  16
ATOM     16  N   UNL     1      44.243   4.807   9.533  0.00  0.00    +0.000 N 
ATOM     17  H   UNL     1      43.567   5.157   8.856  0.00  0.00    +0.000 HD
BRANCH  16  24
ATOM     18  C   UNL     1      44.220   1.691   9.525  0.00  0.00    +0.000 C 
ATOM     19  C   UNL     1      45.163   2.591   8.803  0.00  0.00    +0.000 A 
ATOM     20  C   UNL     1      46.203   1.977   8.076  0.00  0.00    +0.000 A 
ATOM     21  C   UNL     1      47.097   2.736   7.341  0.00  0.00    +0.000 A 
ATOM     22  C   UNL     1      46.918   4.095   7.344  0.00  0.00    +0.000 A 
ATOM     23  N   UNL     1      45.950   4.717   8.055  0.00  0.00    +0.000 NA
ATOM     24  C   UNL     1      45.083   3.981   8.803  0.00  0.00    +0.000 A 
ENDBRANCH  16  24
ENDBRANCH   1  16
TORSDOF 4
ENDMDL
MODEL 2
REMARK VINA RESULT:    -7.662      2.732      6.833
REMARK INTER + INTRA:         -10.097
REMARK INTER:                  -8.991
REMARK INTRA:                  -1.106
REMARK UNBOUND:                -0.644
REMARK  Name = 
REMARK  5 active torsions:
REMARK  status: ('A' for Active; 'I' for Inactive)
REMARK    1  A    between atoms: C_1  and  C_2
REMARK    2  A    between atoms: C_7  and  N_8
REMARK    3  A    between atoms: N_8  and  C_9
REMARK    4  A    between atoms: C_9  and  C_10
REMARK    5  A    between atoms: C_14  and  C_15
REMARK                            x       y       z     vdW  Elec       q    Type
REMARK                         _______ _______ _______ _____ _____    ______ ____
ROOT
ATOM      1  C   UNL     1      45.630   7.607  11.995  0.00  0.00    +0.000 C 
ATOM      2  C   UNL     1      46.552   7.473  13.222  0.00  0.00    +0.000 C 
ATOM      3  C   UNL     1      47.142   7.545  11.866  0.00  0.00    +0.000 C 
ENDROOT
BRANCH   1   4
ATOM      4  C   UNL     1      44.904   6.334  11.555  0.00  0.00    +0.000 A 
ATOM      5  C   UNL     1      43.581   6.079  11.936  0.00  0.00    +0.000 A 
ATOM      6  C   UNL     1      42.898   4.973  11.443  0.00  0.00    +0.000 A 
ATOM      7  C   UNL     1      43.524   4.107  10.541  0.00  0.00    +0.000 A 
ATOM      8  C   UNL     1      44.841   4.326  10.113  0.00  0.00    +0.000 A 
ATOM      9  C   UNL     1      45.518   5.422  10.674  0.00  0.00    +0.000 A 
BRANCH   8  10
ATOM     10  C   UNL     1      45.451   3.530   9.022  0.00  0.00    +0.000 A 
ATOM     11  C   UNL     1      46.070   4.169   7.934  0.00  0.00    +0.000 A 
ATOM     12  C   UNL     1      46.723   3.450   6.936  0.00  0.00    +0.000 A 
ATOM     13  C   UNL     1      46.779   2.062   7.003  0.00  0.00    +0.000 A 
ATOM     14  C   UNL     1      46.174   1.398   8.069  0.00  0.00    +0.000 A 
ATOM     15  C   UNL     1      45.509   2.124   9.062  0.00  0.00    +0.000 A 
ENDBRANCH   8  10
ENDBRANCH   1   4
BRANCH   1  16
ATOM     16  N   UNL     1      44.725   8.750  12.098  0.00  0.00    +0.000 N 
ATOM     17  H   UNL     1      43.995   8.675  12.805  0.00  0.00    +0.000 HD
BRANCH  16  24
ATOM     18  C   UNL     1      46.301  11.405  11.678  0.00  0.00    +0.000 C 
ATOM     19  C   UNL     1      44.967  11.047  11.121  0.00  0.00    +0.000 A 
ATOM     20  C   UNL     1      44.304  12.035  10.363  0.00  0.00    +0.000 A 
ATOM     21  C   UNL     1      43.081  11.772   9.772  0.00  0.00    +0.000 A 
ATOM     22  C   UNL     1      42.556  10.518   9.946  0.00  0.00    +0.000 A 
ATOM     23  N   UNL     1      43.150   9.559  10.692  0.00  0.00    +0.000 NA
ATOM     24  C   UNL     1      44.340   9.817  11.300  0.00  0.00    +0.000 A 
ENDBRANCH  16  24
ENDBRANCH   1  16
TORSDOF 4
ENDMDL
MODEL 3
REMARK VINA RESULT:    -7.530      2.384      6.430
REMARK INTER + INTRA:          -9.935
REMARK INTER:                  -8.787
REMARK INTRA:                  -1.147
REMARK UNBOUND:                -0.644
REMARK  Name = 
REMARK  5 active torsions:
REMARK  status: ('A' for Active; 'I' for Inactive)
REMARK    1  A    between atoms: C_1  and  C_2
REMARK    2  A    between atoms: C_7  and  N_8
REMARK    3  A    between atoms: N_8  and  C_9
REMARK    4  A    between atoms: C_9  and  C_10
REMARK    5  A    between atoms: C_14  and  C_15
REMARK                            x       y       z     vdW  Elec       q    Type
REMARK                         _______ _______ _______ _____ _____    ______ ____
ROOT
ATOM      1  C   UNL     1      46.229   7.219  12.550  0.00  0.00    +0.000 C 
ATOM      2  C   UNL     1      46.649   8.501  11.807  0.00  0.00    +0.000 C 
ATOM      3  C   UNL     1      45.641   8.579  12.887  0.00  0.00    +0.000 C 
ENDROOT
BRANCH   1   4
ATOM      4  C   UNL     1      45.278   6.286  11.798  0.00  0.00    +0.000 A 
ATOM      5  C   UNL     1      43.889   6.419  11.903  0.00  0.00    +0.000 A 
ATOM      6  C   UNL     1      43.037   5.636  11.132  0.00  0.00    +0.000 A 
ATOM      7  C   UNL     1      43.564   4.713  10.223  0.00  0.00    +0.000 A 
ATOM      8  C   UNL     1      44.947   4.553  10.066  0.00  0.00    +0.000 A 
ATOM      9  C   UNL     1      45.776   5.321  10.900  0.00  0.00    +0.000 A 
BRANCH   8  10
ATOM     10  C   UNL     1      45.518   3.719   8.982  0.00  0.00    +0.000 A 
ATOM     11  C   UNL     1      46.161   4.319   7.885  0.00  0.00    +0.000 A 
ATOM     12  C   UNL     1      46.779   3.562   6.893  0.00  0.00    +0.000 A 
ATOM     13  C   UNL     1      46.775   2.173   6.975  0.00  0.00    +0.000 A 
ATOM     14  C   UNL     1      46.145   1.548   8.049  0.00  0.00    +0.000 A 
ATOM     15  C   UNL     1      45.515   2.312   9.036  0.00  0.00    +0.000 A 
ENDBRANCH   8  10
ENDBRANCH   1   4
BRANCH   1  16
ATOM     16  N   UNL     1      47.369   6.502  13.118  0.00  0.00    +0.000 N 
ATOM     17  H   UNL     1      48.085   6.212  12.454  0.00  0.00    +0.000 HD
BRANCH  16  24
ATOM     18  C   UNL     1      46.511   3.575  13.756  0.00  0.00    +0.000 C 
ATOM     19  C   UNL     1      47.247   4.517  14.646  0.00  0.00    +0.000 A 
ATOM     20  C   UNL     1      47.545   4.066  15.948  0.00  0.00    +0.000 A 
ATOM     21  C   UNL     1      48.263   4.859  16.825  0.00  0.00    +0.000 A 
ATOM     22  C   UNL     1      48.677   6.084  16.370  0.00  0.00    +0.000 A 
ATOM     23  N   UNL     1      48.382   6.559  15.138  0.00  0.00    +0.000 NA
ATOM     24  C   UNL     1      47.652   5.797  14.278  0.00  0.00    +0.000 A 
ENDBRANCH  16  24
ENDBRANCH   1  16
TORSDOF 4
ENDMDL
MODEL 4
REMARK VINA RESULT:    -7.401      2.463      6.777
REMARK INTER + INTRA:          -9.776
REMARK INTER:                  -8.755
REMARK INTRA:                  -1.020
REMARK UNBOUND:                -0.644
REMARK  Name = 
REMARK  5 active torsions:
REMARK  status: ('A' for Active; 'I' for Inactive)
REMARK    1  A    between atoms: C_1  and  C_2
REMARK    2  A    between atoms: C_7  and  N_8
REMARK    3  A    between atoms: N_8  and  C_9
REMARK    4  A    between atoms: C_9  and  C_10
REMARK    5  A    between atoms: C_14  and  C_15
REMARK                            x       y       z     vdW  Elec       q    Type
REMARK                         _______ _______ _______ _____ _____    ______ ____
ROOT
ATOM      1  C   UNL     1      46.428   6.981  12.806  0.00  0.00    +0.000 C 
ATOM      2  C   UNL     1      46.991   8.203  12.057  0.00  0.00    +0.000 C 
ATOM      3  C   UNL     1      45.960   8.396  13.101  0.00  0.00    +0.000 C 
ENDROOT
BRANCH   1   4
ATOM      4  C   UNL     1      45.417   6.127  12.037  0.00  0.00    +0.000 A 
ATOM      5  C   UNL     1      44.039   6.320  12.181  0.00  0.00    +0.000 A 
ATOM      6  C   UNL     1      43.134   5.612  11.397  0.00  0.00    +0.000 A 
ATOM      7  C   UNL     1      43.597   4.707  10.437  0.00  0.00    +0.000 A 
ATOM      8  C   UNL     1      44.967   4.489  10.240  0.00  0.00    +0.000 A 
ATOM      9  C   UNL     1      45.850   5.180  11.087  0.00  0.00    +0.000 A 
BRANCH   8  10
ATOM     10  C   UNL     1      45.475   3.679   9.108  0.00  0.00    +0.000 A 
ATOM     11  C   UNL     1      46.045   4.302   7.984  0.00  0.00    +0.000 A 
ATOM     12  C   UNL     1      46.605   3.567   6.943  0.00  0.00    +0.000 A 
ATOM     13  C   UNL     1      46.614   2.177   6.999  0.00  0.00    +0.000 A 
ATOM     14  C   UNL     1      46.055   1.529   8.099  0.00  0.00    +0.000 A 
ATOM     15  C   UNL     1      45.484   2.271   9.137  0.00  0.00    +0.000 A 
ENDBRANCH   8  10
ENDBRANCH   1   4
BRANCH   1  16
ATOM     16  N   UNL     1      47.476   6.171  13.424  0.00  0.00    +0.000 N 
ATOM     17  H   UNL     1      48.055   5.631  12.783  0.00  0.00    +0.000 HD
BRANCH  16  24
ATOM     18  C   UNL     1      49.091   7.563  15.697  0.00  0.00    +0.000 C 
ATOM     19  C   UNL     1      48.512   6.190  15.708  0.00  0.00    +0.000 A 
ATOM     20  C   UNL     1      48.764   5.399  16.848  0.00  0.00    +0.000 A 
ATOM     21  C   UNL     1      48.229   4.129  16.960  0.00  0.00    +0.000 A 
ATOM     22  C   UNL     1      47.440   3.686  15.931  0.00  0.00    +0.000 A 
ATOM     23  N   UNL     1      47.203   4.407  14.811  0.00  0.00    +0.000 NA
ATOM     24  C   UNL     1      47.749   5.647  14.679  0.00  0.00    +0.000 A 
ENDBRANCH  16  24
ENDBRANCH   1  16
TORSDOF 4
ENDMDL
MODEL 5
REMARK VINA RESULT:    -7.363      1.607      3.434
REMARK INTER + INTRA:          -9.728
REMARK INTER:                  -9.168
REMARK INTRA:                  -0.560
REMARK UNBOUND:                -0.644
REMARK  Name = 
REMARK  5 active torsions:
REMARK  status: ('A' for Active; 'I' for Inactive)
REMARK    1  A    between atoms: C_1  and  C_2
REMARK    2  A    between atoms: C_7  and  N_8
REMARK    3  A    between atoms: N_8  and  C_9
REMARK    4  A    between atoms: C_9  and  C_10
REMARK    5  A    between atoms: C_14  and  C_15
REMARK                            x       y       z     vdW  Elec       q    Type
REMARK                         _______ _______ _______ _____ _____    ______ ____
ROOT
ATOM      1  C   UNL     1      44.063   5.045  10.971  0.00  0.00    +0.000 C 
ATOM      2  C   UNL     1      43.380   3.945  11.807  0.00  0.00    +0.000 C 
ATOM      3  C   UNL     1      42.840   5.323  11.829  0.00  0.00    +0.000 C 
ENDROOT
BRANCH   1   4
ATOM      4  C   UNL     1      45.372   5.603  11.535  0.00  0.00    +0.000 A 
ATOM      5  C   UNL     1      45.992   6.723  10.970  0.00  0.00    +0.000 A 
ATOM      6  C   UNL     1      47.121   7.284  11.556  0.00  0.00    +0.000 A 
ATOM      7  C   UNL     1      47.643   6.741  12.734  0.00  0.00    +0.000 A 
ATOM      8  C   UNL     1      47.051   5.630  13.350  0.00  0.00    +0.000 A 
ATOM      9  C   UNL     1      45.945   5.057  12.701  0.00  0.00    +0.000 A 
BRANCH   8  10
ATOM     10  C   UNL     1      47.476   5.161  14.690  0.00  0.00    +0.000 A 
ATOM     11  C   UNL     1      48.318   5.953  15.489  0.00  0.00    +0.000 A 
ATOM     12  C   UNL     1      48.668   5.577  16.783  0.00  0.00    +0.000 A 
ATOM     13  C   UNL     1      48.177   4.391  17.320  0.00  0.00    +0.000 A 
ATOM     14  C   UNL     1      47.340   3.582  16.552  0.00  0.00    +0.000 A 
ATOM     15  C   UNL     1      47.001   3.958  15.249  0.00  0.00    +0.000 A 
ENDBRANCH   8  10
ENDBRANCH   1   4
BRANCH   1  16
ATOM     16  N   UNL     1      44.180   4.685   9.560  0.00  0.00    +0.000 N 
ATOM     17  H   UNL     1      43.334   4.793   9.003  0.00  0.00    +0.000 HD
BRANCH  16  24
ATOM     18  C   UNL     1      44.247   1.574   9.389  0.00  0.00    +0.000 C 
ATOM     19  C   UNL     1      45.149   2.537   8.699  0.00  0.00    +0.000 A 
ATOM     20  C   UNL     1      46.193   1.993   7.922  0.00  0.00    +0.000 A 
ATOM     21  C   UNL     1      47.050   2.815   7.213  0.00  0.00    +0.000 A 
ATOM     22  C   UNL     1      46.833   4.166   7.290  0.00  0.00    +0.000 A 
ATOM     23  N   UNL     1      45.861   4.722   8.049  0.00  0.00    +0.000 NA
ATOM     24  C   UNL     1      45.030   3.922   8.773  0.00  0.00    +0.000 A 
ENDBRANCH  16  24
ENDBRANCH   1  16
TORSDOF 4
ENDMDL
MODEL 6
REMARK VINA RESULT:    -6.874      1.657      6.188
REMARK INTER + INTRA:          -9.125
REMARK INTER:                  -8.010
REMARK INTRA:                  -1.115
REMARK UNBOUND:                -0.644
REMARK  Name = 
REMARK  5 active torsions:
REMARK  status: ('A' for Active; 'I' for Inactive)
REMARK    1  A    between atoms: C_1  and  C_2
REMARK    2  A    between atoms: C_7  and  N_8
REMARK    3  A    between atoms: N_8  and  C_9
REMARK    4  A    between atoms: C_9  and  C_10
REMARK    5  A    between atoms: C_14  and  C_15
REMARK                            x       y       z     vdW  Elec       q    Type
REMARK                         _______ _______ _______ _____ _____    ______ ____
ROOT
ATOM      1  C   UNL     1      44.441   5.690  11.569  0.00  0.00    +0.000 C 
ATOM      2  C   UNL     1      43.285   6.594  11.099  0.00  0.00    +0.000 C 
ATOM      3  C   UNL     1      43.240   5.991  12.449  0.00  0.00    +0.000 C 
ENDROOT
BRANCH   1   4
ATOM      4  C   UNL     1      44.464   4.273  10.991  0.00  0.00    +0.000 A 
ATOM      5  C   UNL     1      43.576   3.287  11.438  0.00  0.00    +0.000 A 
ATOM      6  C   UNL     1      43.535   2.037  10.831  0.00  0.00    +0.000 A 
ATOM      7  C   UNL     1      44.374   1.755   9.748  0.00  0.00    +0.000 A 
ATOM      8  C   UNL     1      45.269   2.712   9.250  0.00  0.00    +0.000 A 
ATOM      9  C   UNL     1      45.322   3.944   9.922  0.00  0.00    +0.000 A 
BRANCH   8  10
ATOM     10  C   UNL     1      46.026   2.495   7.995  0.00  0.00    +0.000 A 
ATOM     11  C   UNL     1      46.120   3.516   7.034  0.00  0.00    +0.000 A 
ATOM     12  C   UNL     1      46.892   3.372   5.883  0.00  0.00    +0.000 A 
ATOM     13  C   UNL     1      47.599   2.194   5.664  0.00  0.00    +0.000 A 
ATOM     14  C   UNL     1      47.526   1.163   6.598  0.00  0.00    +0.000 A 
ATOM     15  C   UNL     1      46.740   1.307   7.746  0.00  0.00    +0.000 A 
ENDBRANCH   8  10
ENDBRANCH   1   4
BRANCH   1  16
ATOM     16  N   UNL     1      45.742   6.347  11.468  0.00  0.00    +0.000 N 
ATOM     17  H   UNL     1      46.149   6.384  10.535  0.00  0.00    +0.000 HD
BRANCH  16  24
ATOM     18  C   UNL     1      46.945   4.545  13.708  0.00  0.00    +0.000 C 
ATOM     19  C   UNL     1      47.319   5.949  13.377  0.00  0.00    +0.000 A 
ATOM     20  C   UNL     1      48.285   6.564  14.200  0.00  0.00    +0.000 A 
ATOM     21  C   UNL     1      48.722   7.850  13.939  0.00  0.00    +0.000 A 
ATOM     22  C   UNL     1      48.188   8.486  12.849  0.00  0.00    +0.000 A 
ATOM     23  N   UNL     1      47.238   7.936  12.058  0.00  0.00    +0.000 NA
ATOM     24  C   UNL     1      46.781   6.682  12.324  0.00  0.00    +0.000 A 
ENDBRANCH  16  24
ENDBRANCH   1  16
TORSDOF 4
ENDMDL
MODEL 7
REMARK VINA RESULT:    -6.854      3.153      7.420
REMARK INTER + INTRA:          -9.100
REMARK INTER:                  -8.079
REMARK INTRA:                  -1.021
REMARK UNBOUND:                -0.644
REMARK  Name = 
REMARK  5 active torsions:
REMARK  status: ('A' for Active; 'I' for Inactive)
REMARK    1  A    between atoms: C_1  and  C_2
REMARK    2  A    between atoms: C_7  and  N_8
REMARK    3  A    between atoms: N_8  and  C_9
REMARK    4  A    between atoms: C_9  and  C_10
REMARK    5  A    between atoms: C_14  and  C_15
REMARK                            x       y       z     vdW  Elec       q    Type
REMARK                         _______ _______ _______ _____ _____    ______ ____
ROOT
ATOM      1  C   UNL     1      48.898   7.923  12.627  0.00  0.00    +0.000 C 
ATOM      2  C   UNL     1      49.879   7.781  11.448  0.00  0.00    +0.000 C 
ATOM      3  C   UNL     1      49.533   9.128  11.954  0.00  0.00    +0.000 C 
ENDROOT
BRANCH   1   4
ATOM      4  C   UNL     1      47.417   7.721  12.298  0.00  0.00    +0.000 A 
ATOM      5  C   UNL     1      46.484   8.751  12.466  0.00  0.00    +0.000 A 
ATOM      6  C   UNL     1      45.163   8.590  12.062  0.00  0.00    +0.000 A 
ATOM      7  C   UNL     1      44.755   7.394  11.463  0.00  0.00    +0.000 A 
ATOM      8  C   UNL     1      45.652   6.338  11.255  0.00  0.00    +0.000 A 
ATOM      9  C   UNL     1      46.964   6.516  11.725  0.00  0.00    +0.000 A 
BRANCH   8  10
ATOM     10  C   UNL     1      45.283   5.145  10.458  0.00  0.00    +0.000 A 
ATOM     11  C   UNL     1      45.656   5.046   9.107  0.00  0.00    +0.000 A 
ATOM     12  C   UNL     1      45.397   3.904   8.355  0.00  0.00    +0.000 A 
ATOM     13  C   UNL     1      44.755   2.817   8.941  0.00  0.00    +0.000 A 
ATOM     14  C   UNL     1      44.371   2.883  10.278  0.00  0.00    +0.000 A 
ATOM     15  C   UNL     1      44.623   4.038  11.026  0.00  0.00    +0.000 A 
ENDBRANCH   8  10
ENDBRANCH   1   4
BRANCH   1  16
ATOM     16  N   UNL     1      49.312   7.150  13.796  0.00  0.00    +0.000 N 
ATOM     17  H   UNL     1      49.791   6.273  13.601  0.00  0.00    +0.000 HD
BRANCH  16  24
ATOM     18  C   UNL     1      48.941   9.564  15.733  0.00  0.00    +0.000 C 
ATOM     19  C   UNL     1      48.857   8.114  16.067  0.00  0.00    +0.000 A 
ATOM     20  C   UNL     1      48.644   7.781  17.420  0.00  0.00    +0.000 A 
ATOM     21  C   UNL     1      48.510   6.461  17.812  0.00  0.00    +0.000 A 
ATOM     22  C   UNL     1      48.582   5.504  16.833  0.00  0.00    +0.000 A 
ATOM     23  N   UNL     1      48.816   5.788  15.531  0.00  0.00    +0.000 NA
ATOM     24  C   UNL     1      48.977   7.082  15.141  0.00  0.00    +0.000 A 
ENDBRANCH  16  24
ENDBRANCH   1  16
TORSDOF 4
ENDMDL
MODEL 8
REMARK VINA RESULT:    -6.714      2.993      6.842
REMARK INTER + INTRA:          -8.928
REMARK INTER:                  -7.751
REMARK INTRA:                  -1.177
REMARK UNBOUND:                -0.644
REMARK  Name = 
REMARK  5 active torsions:
REMARK  status: ('A' for Active; 'I' for Inactive)
REMARK    1  A    between atoms: C_1  and  C_2
REMARK    2  A    between atoms: C_7  and  N_8
REMARK    3  A    between atoms: N_8  and  C_9
REMARK    4  A    between atoms: C_9  and  C_10
REMARK    5  A    between atoms: C_14  and  C_15
REMARK                            x       y       z     vdW  Elec       q    Type
REMARK                         _______ _______ _______ _____ _____    ______ ____
ROOT
ATOM      1  C   UNL     1      47.947   7.726  13.682  0.00  0.00    +0.000 C 
ATOM      2  C   UNL     1      49.108   8.502  13.031  0.00  0.00    +0.000 C 
ATOM      3  C   UNL     1      48.313   9.139  14.104  0.00  0.00    +0.000 C 
ENDROOT
BRANCH   1   4
ATOM      4  C   UNL     1      46.661   7.624  12.859  0.00  0.00    +0.000 A 
ATOM      5  C   UNL     1      45.835   8.735  12.654  0.00  0.00    +0.000 A 
ATOM      6  C   UNL     1      44.728   8.655  11.817  0.00  0.00    +0.000 A 
ATOM      7  C   UNL     1      44.437   7.460  11.151  0.00  0.00    +0.000 A 
ATOM      8  C   UNL     1      45.242   6.323  11.307  0.00  0.00    +0.000 A 
ATOM      9  C   UNL     1      46.319   6.424  12.203  0.00  0.00    +0.000 A 
BRANCH   8  10
ATOM     10  C   UNL     1      45.058   5.114  10.471  0.00  0.00    +0.000 A 
ATOM     11  C   UNL     1      45.565   5.069   9.161  0.00  0.00    +0.000 A 
ATOM     12  C   UNL     1      45.480   3.919   8.380  0.00  0.00    +0.000 A 
ATOM     13  C   UNL     1      44.884   2.772   8.895  0.00  0.00    +0.000 A 
ATOM     14  C   UNL     1      44.370   2.785  10.189  0.00  0.00    +0.000 A 
ATOM     15  C   UNL     1      44.447   3.945  10.966  0.00  0.00    +0.000 A 
ENDBRANCH   8  10
ENDBRANCH   1   4
BRANCH   1  16
ATOM     16  N   UNL     1      48.367   6.431  14.211  0.00  0.00    +0.000 N 
ATOM     17  H   UNL     1      48.769   5.784  13.534  0.00  0.00    +0.000 HD
BRANCH  16  24
ATOM     18  C   UNL     1      46.944   3.659  14.246  0.00  0.00    +0.000 C 
ATOM     19  C   UNL     1      47.421   4.445  15.418  0.00  0.00    +0.000 A 
ATOM     20  C   UNL     1      47.154   3.915  16.696  0.00  0.00    +0.000 A 
ATOM     21  C   UNL     1      47.600   4.558  17.837  0.00  0.00    +0.000 A 
ATOM     22  C   UNL     1      48.315   5.715  17.667  0.00  0.00    +0.000 A 
ATOM     23  N   UNL     1      48.562   6.267  16.457  0.00  0.00    +0.000 NA
ATOM     24  C   UNL     1      48.103   5.656  15.331  0.00  0.00    +0.000 A 
ENDBRANCH  16  24
ENDBRANCH   1  16
TORSDOF 4
ENDMDL
MODEL 9
REMARK VINA RESULT:    -6.617      3.380      4.774
REMARK INTER + INTRA:          -8.808
REMARK INTER:                  -8.553
REMARK INTRA:                  -0.255
REMARK UNBOUND:                -0.644
REMARK  Name = 
REMARK  5 active torsions:
REMARK  status: ('A' for Active; 'I' for Inactive)
REMARK    1  A    between atoms: C_1  and  C_2
REMARK    2  A    between atoms: C_7  and  N_8
REMARK    3  A    between atoms: N_8  and  C_9
REMARK    4  A    between atoms: C_9  and  C_10
REMARK    5  A    between atoms: C_14  and  C_15
REMARK                            x       y       z     vdW  Elec       q    Type
REMARK                         _______ _______ _______ _____ _____    ______ ____
ROOT
ATOM      1  C   UNL     1      45.295   6.254  11.738  0.00  0.00    +0.000 C 
ATOM      2  C   UNL     1      46.576   5.561  12.239  0.00  0.00    +0.000 C 
ATOM      3  C   UNL     1      45.376   5.595  13.104  0.00  0.00    +0.000 C 
ENDROOT
BRANCH   1   4
ATOM      4  C   UNL     1      45.300   7.784  11.771  0.00  0.00    +0.000 A 
ATOM      5  C   UNL     1      46.423   8.502  12.199  0.00  0.00    +0.000 A 
ATOM      6  C   UNL     1      46.454   9.890  12.122  0.00  0.00    +0.000 A 
ATOM      7  C   UNL     1      45.361  10.587  11.597  0.00  0.00    +0.000 A 
ATOM      8  C   UNL     1      44.219   9.916  11.139  0.00  0.00    +0.000 A 
ATOM      9  C   UNL     1      44.201   8.519  11.282  0.00  0.00    +0.000 A 
BRANCH   8  10
ATOM     10  C   UNL     1      43.138  10.622  10.412  0.00  0.00    +0.000 A 
ATOM     11  C   UNL     1      41.794  10.440  10.781  0.00  0.00    +0.000 A 
ATOM     12  C   UNL     1      40.763  11.151  10.172  0.00  0.00    +0.000 A 
ATOM     13  C   UNL     1      41.051  12.075   9.173  0.00  0.00    +0.000 A 
ATOM     14  C   UNL     1      42.374  12.277   8.783  0.00  0.00    +0.000 A 
ATOM     15  C   UNL     1      43.405  11.552   9.389  0.00  0.00    +0.000 A 
ENDBRANCH   8  10
ENDBRANCH   1   4
BRANCH   1  16
ATOM     16  N   UNL     1      44.845   5.733  10.449  0.00  0.00    +0.000 N 
ATOM     17  H   UNL     1      44.007   6.167  10.063  0.00  0.00    +0.000 HD
BRANCH  16  24
ATOM     18  C   UNL     1      43.771   2.889  11.135  0.00  0.00    +0.000 C 
ATOM     19  C   UNL     1      44.628   3.278   9.980  0.00  0.00    +0.000 A 
ATOM     20  C   UNL     1      45.058   2.243   9.125  0.00  0.00    +0.000 A 
ATOM     21  C   UNL     1      45.820   2.521   8.004  0.00  0.00    +0.000 A 
ATOM     22  C   UNL     1      46.124   3.835   7.761  0.00  0.00    +0.000 A 
ATOM     23  N   UNL     1      45.755   4.848   8.578  0.00  0.00    +0.000 NA
ATOM     24  C   UNL     1      45.028   4.581   9.698  0.00  0.00    +0.000 A 
ENDBRANCH  16  24
ENDBRANCH   1  16
TORSDOF 4
ENDMDL
