MODEL 1
REMARK VINA RESULT:    -7.975      0.000      0.000
REMARK INTER + INTRA:         -10.612
REMARK INTER:                 -10.306
REMARK INTRA:                  -0.306
REMARK UNBOUND:                -0.306
REMARK  Name = 
REMARK  5 active torsions:
REMARK  status: ('A' for Active; 'I' for Inactive)
REMARK    1  A    between atoms: C_2  and  C_4
REMARK    2  A    between atoms: C_8  and  O_9
REMARK    3  A    between atoms: O_9  and  C_10
REMARK    4  A    between atoms: C_10  and  C_11
REMARK    5  A    between atoms: C_16  and  C_17
REMARK                            x       y       z     vdW  Elec       q    Type
REMARK                         _______ _______ _______ _____ _____    ______ ____
ROOT
ATOM      1  C   UNL     1      46.656   5.010  13.635  0.00  0.00    +0.000 A 
ATOM      2  C   UNL     1      47.577   5.995  13.270  0.00  0.00    +0.000 A 
ATOM      3  C   UNL     1      47.423   6.659  12.063  0.00  0.00    +0.000 A 
ATOM      4  F   UNL     1      48.286   7.628  11.728  0.00  0.00    +0.000 F 
ATOM      5  C   UNL     1      46.371   6.358  11.200  0.00  0.00    +0.000 A 
ATOM      6  C   UNL     1      45.452   5.347  11.512  0.00  0.00    +0.000 A 
ATOM      7  C   UNL     1      45.615   4.683  12.745  0.00  0.00    +0.000 A 
ENDROOT
BRANCH   6   8
ATOM      8  C   UNL     1      44.260   4.985  10.626  0.00  0.00    +0.000 C 
ATOM      9  C   UNL     1      43.131   4.271  11.390  0.00  0.00    +0.000 C 
ATOM     10  C   UNL     1      43.463   2.804  11.659  0.00  0.00    +0.000 C 
ATOM     11  N   UNL     1      43.744   2.063  10.429  0.00  0.00    +0.000 NA
ATOM     12  C   UNL     1      44.815   2.681   9.648  0.00  0.00    +0.000 C 
ATOM     13  C   UNL     1      44.565   4.165   9.357  0.00  0.00    +0.000 C 
ATOM     14  H   UNL     1      42.901   2.013   9.864  0.00  0.00    +0.000 HD
ENDBRANCH   6   8
BRANCH   1  15
ATOM     15  C   UNL     1      46.753   4.336  14.982  0.00  0.00    +0.000 C 
BRANCH  15  16
ATOM     16  O   UNL     1      47.504   3.126  14.873  0.00  0.00    +0.000 OA
BRANCH  16  21
ATOM     17  C   UNL     1      48.998   3.609  18.142  0.00  0.00    +0.000 A 
ATOM     18  C   UNL     1      49.997   2.635  18.113  0.00  0.00    +0.000 A 
ATOM     19  C   UNL     1      50.103   1.859  16.978  0.00  0.00    +0.000 A 
ATOM     20  N   UNL     1      49.304   1.997  15.903  0.00  0.00    +0.000 NA
ATOM     21  C   UNL     1      48.333   2.938  15.963  0.00  0.00    +0.000 A 
ATOM     22  C   UNL     1      48.130   3.753  17.059  0.00  0.00    +0.000 A 
BRANCH  17  24
ATOM     23  N   UNL     1      48.607   3.910  20.522  0.00  0.00    +0.000 N 
ATOM     24  C   UNL     1      48.830   4.501  19.310  0.00  0.00    +0.000 C 
ATOM     25  O   UNL     1      48.917   5.720  19.205  0.00  0.00    +0.000 OA
ATOM     26  H   UNL     1      48.605   4.527  21.325  0.00  0.00    +0.000 HD
ATOM     27  H   UNL     1      48.784   2.930  20.690  0.00  0.00    +0.000 HD
ENDBRANCH  17  24
ENDBRANCH  16  21
ENDBRANCH  15  16
ENDBRANCH   1  15
TORSDOF 5
ENDMDL
MODEL 2
REMARK VINA RESULT:    -7.307      2.500      3.090
REMARK INTER + INTRA:          -9.749
REMARK INTER:                  -8.930
REMARK INTRA:                  -0.819
REMARK UNBOUND:                -0.306
REMARK  Name = 
REMARK  5 active torsions:
REMARK  status: ('A' for Active; 'I' for Inactive)
REMARK    1  A    between atoms: C_2  and  C_4
REMARK    2  A    between atoms: C_8  and  O_9
REMARK    3  A    between atoms: O_9  and  C_10
REMARK    4  A    between atoms: C_10  and  C_11
REMARK    5  A    between atoms: C_16  and  C_17
REMARK                            x       y       z     vdW  Elec       q    Type
REMARK                         _______ _______ _______ _____ _____    ______ ____
ROOT
ATOM      1  C   UNL     1      47.381   7.256  12.347  0.00  0.00    +0.000 A 
ATOM      2  C   UNL     1      46.890   8.553  12.512  0.00  0.00    +0.000 A 
ATOM      3  C   UNL     1      45.576   8.835  12.170  0.00  0.00    +0.000 A 
ATOM      4  F   UNL     1      45.095  10.070  12.362  0.00  0.00    +0.000 F 
ATOM      5  C   UNL     1      44.736   7.850  11.655  0.00  0.00    +0.000 A 
ATOM      6  C   UNL     1      45.204   6.548  11.436  0.00  0.00    +0.000 A 
ATOM      7  C   UNL     1      46.540   6.272  11.792  0.00  0.00    +0.000 A 
ENDROOT
BRANCH   6   8
ATOM      8  C   UNL     1      44.329   5.414  10.901  0.00  0.00    +0.000 C 
ATOM      9  C   UNL     1      42.939   5.357  11.560  0.00  0.00    +0.000 C 
ATOM     10  C   UNL     1      42.995   4.745  12.958  0.00  0.00    +0.000 C 
ATOM     11  N   UNL     1      43.572   3.400  12.953  0.00  0.00    +0.000 NA
ATOM     12  C   UNL     1      44.901   3.375  12.345  0.00  0.00    +0.000 C 
ATOM     13  C   UNL     1      44.931   3.996  10.944  0.00  0.00    +0.000 C 
ATOM     14  H   UNL     1      42.956   2.770  12.446  0.00  0.00    +0.000 HD
ENDBRANCH   6   8
BRANCH   1  15
ATOM     15  C   UNL     1      48.780   6.907  12.794  0.00  0.00    +0.000 C 
BRANCH  15  16
ATOM     16  O   UNL     1      49.136   7.676  13.943  0.00  0.00    +0.000 OA
BRANCH  16  21
ATOM     17  C   UNL     1      48.493   5.384  16.679  0.00  0.00    +0.000 A 
ATOM     18  C   UNL     1      49.757   5.326  17.267  0.00  0.00    +0.000 A 
ATOM     19  C   UNL     1      50.766   6.070  16.691  0.00  0.00    +0.000 A 
ATOM     20  N   UNL     1      50.593   6.848  15.606  0.00  0.00    +0.000 NA
ATOM     21  C   UNL     1      49.361   6.874  15.046  0.00  0.00    +0.000 A 
ATOM     22  C   UNL     1      48.289   6.152  15.531  0.00  0.00    +0.000 A 
BRANCH  17  24
ATOM     23  N   UNL     1      46.779   5.133  18.384  0.00  0.00    +0.000 N 
ATOM     24  C   UNL     1      47.349   4.637  17.245  0.00  0.00    +0.000 C 
ATOM     25  O   UNL     1      46.906   3.630  16.701  0.00  0.00    +0.000 OA
ATOM     26  H   UNL     1      45.931   4.675  18.694  0.00  0.00    +0.000 HD
ATOM     27  H   UNL     1      46.942   6.076  18.707  0.00  0.00    +0.000 HD
ENDBRANCH  17  24
ENDBRANCH  16  21
ENDBRANCH  15  16
ENDBRANCH   1  15
TORSDOF 5
ENDMDL
MODEL 3
REMARK VINA RESULT:    -7.287      1.505      2.092
REMARK INTER + INTRA:          -9.723
REMARK INTER:                  -9.527
REMARK INTRA:                  -0.196
REMARK UNBOUND:                -0.306
REMARK  Name = 
REMARK  5 active torsions:
REMARK  status: ('A' for Active; 'I' for Inactive)
REMARK    1  A    between atoms: C_2  and  C_4
REMARK    2  A    between atoms: C_8  and  O_9
REMARK    3  A    between atoms: O_9  and  C_10
REMARK    4  A    between atoms: C_10  and  C_11
REMARK    5  A    between atoms: C_16  and  C_17
REMARK                            x       y       z     vdW  Elec       q    Type
REMARK                         _______ _______ _______ _____ _____    ______ ____
ROOT
ATOM      1  C   UNL     1      46.781   4.646  13.615  0.00  0.00    +0.000 A 
ATOM      2  C   UNL     1      47.340   5.924  13.695  0.00  0.00    +0.000 A 
ATOM      3  C   UNL     1      46.906   6.914  12.828  0.00  0.00    +0.000 A 
ATOM      4  F   UNL     1      47.418   8.148  12.927  0.00  0.00    +0.000 F 
ATOM      5  C   UNL     1      45.927   6.659  11.870  0.00  0.00    +0.000 A 
ATOM      6  C   UNL     1      45.373   5.380  11.731  0.00  0.00    +0.000 A 
ATOM      7  C   UNL     1      45.818   4.382  12.622  0.00  0.00    +0.000 A 
ENDROOT
BRANCH   6   8
ATOM      8  C   UNL     1      44.277   5.039  10.721  0.00  0.00    +0.000 C 
ATOM      9  C   UNL     1      43.081   4.300  11.351  0.00  0.00    +0.000 C 
ATOM     10  C   UNL     1      43.393   2.828  11.612  0.00  0.00    +0.000 C 
ATOM     11  N   UNL     1      43.799   2.122  10.396  0.00  0.00    +0.000 NA
ATOM     12  C   UNL     1      44.939   2.764   9.742  0.00  0.00    +0.000 C 
ATOM     13  C   UNL     1      44.710   4.254   9.468  0.00  0.00    +0.000 C 
ATOM     14  H   UNL     1      43.016   2.084   9.749  0.00  0.00    +0.000 HD
ENDBRANCH   6   8
BRANCH   1  15
ATOM     15  C   UNL     1      47.175   3.577  14.605  0.00  0.00    +0.000 C 
BRANCH  15  16
ATOM     16  O   UNL     1      46.679   3.903  15.904  0.00  0.00    +0.000 OA
BRANCH  16  21
ATOM     17  C   UNL     1      49.778   3.200  17.651  0.00  0.00    +0.000 A 
ATOM     18  C   UNL     1      49.705   4.130  18.687  0.00  0.00    +0.000 A 
ATOM     19  C   UNL     1      48.600   4.956  18.730  0.00  0.00    +0.000 A 
ATOM     20  N   UNL     1      47.595   4.904  17.836  0.00  0.00    +0.000 NA
ATOM     21  C   UNL     1      47.698   4.003  16.831  0.00  0.00    +0.000 A 
ATOM     22  C   UNL     1      48.770   3.145  16.686  0.00  0.00    +0.000 A 
BRANCH  17  24
ATOM     23  N   UNL     1      52.000   2.495  18.339  0.00  0.00    +0.000 N 
ATOM     24  C   UNL     1      50.915   2.259  17.542  0.00  0.00    +0.000 C 
ATOM     25  O   UNL     1      50.877   1.289  16.793  0.00  0.00    +0.000 OA
ATOM     26  H   UNL     1      52.720   1.783  18.335  0.00  0.00    +0.000 HD
ATOM     27  H   UNL     1      51.964   3.114  19.136  0.00  0.00    +0.000 HD
ENDBRANCH  17  24
ENDBRANCH  16  21
ENDBRANCH  15  16
ENDBRANCH   1  15
TORSDOF 5
ENDMDL
MODEL 4
REMARK VINA RESULT:    -7.022      1.587      2.088
REMARK INTER + INTRA:          -9.381
REMARK INTER:                  -9.067
REMARK INTRA:                  -0.315
REMARK UNBOUND:                -0.306
REMARK  Name = 
REMARK  5 active torsions:
REMARK  status: ('A' for Active; 'I' for Inactive)
REMARK    1  A    between atoms: C_2  and  C_4
REMARK    2  A    between atoms: C_8  and  O_9
REMARK    3  A    between atoms: O_9  and  C_10
REMARK    4  A    between atoms: C_10  and  C_11
REMARK    5  A    between atoms: C_16  and  C_17
REMARK                            x       y       z     vdW  Elec       q    Type
REMARK                         _______ _______ _______ _____ _____    ______ ____
ROOT
ATOM      1  C   UNL     1      46.785   5.286  13.734  0.00  0.00    +0.000 A 
ATOM      2  C   UNL     1      47.701   6.182  13.179  0.00  0.00    +0.000 A 
ATOM      3  C   UNL     1      47.447   6.733  11.932  0.00  0.00    +0.000 A 
ATOM      4  F   UNL     1      48.309   7.620  11.415  0.00  0.00    +0.000 F 
ATOM      5  C   UNL     1      46.298   6.405  11.216  0.00  0.00    +0.000 A 
ATOM      6  C   UNL     1      45.376   5.478  11.721  0.00  0.00    +0.000 A 
ATOM      7  C   UNL     1      45.643   4.928  12.992  0.00  0.00    +0.000 A 
ENDROOT
BRANCH   6   8
ATOM      8  C   UNL     1      44.084   5.094  11.002  0.00  0.00    +0.000 C 
ATOM      9  C   UNL     1      43.089   4.339  11.904  0.00  0.00    +0.000 C 
ATOM     10  C   UNL     1      43.493   2.879  12.102  0.00  0.00    +0.000 C 
ATOM     11  N   UNL     1      43.621   2.161  10.833  0.00  0.00    +0.000 NA
ATOM     12  C   UNL     1      44.557   2.818   9.922  0.00  0.00    +0.000 C 
ATOM     13  C   UNL     1      44.231   4.297   9.691  0.00  0.00    +0.000 C 
ATOM     14  H   UNL     1      42.709   2.094  10.389  0.00  0.00    +0.000 HD
ENDBRANCH   6   8
BRANCH   1  15
ATOM     15  C   UNL     1      46.998   4.741  15.126  0.00  0.00    +0.000 C 
BRANCH  15  16
ATOM     16  O   UNL     1      48.375   4.845  15.489  0.00  0.00    +0.000 OA
BRANCH  16  21
ATOM     17  C   UNL     1      48.709   5.413  19.055  0.00  0.00    +0.000 A 
ATOM     18  C   UNL     1      48.800   6.804  19.085  0.00  0.00    +0.000 A 
ATOM     19  C   UNL     1      48.749   7.477  17.881  0.00  0.00    +0.000 A 
ATOM     20  N   UNL     1      48.609   6.863  16.691  0.00  0.00    +0.000 NA
ATOM     21  C   UNL     1      48.539   5.512  16.688  0.00  0.00    +0.000 A 
ATOM     22  C   UNL     1      48.601   4.745  17.834  0.00  0.00    +0.000 A 
BRANCH  17  24
ATOM     23  N   UNL     1      48.406   3.291  20.202  0.00  0.00    +0.000 N 
ATOM     24  C   UNL     1      48.732   4.615  20.301  0.00  0.00    +0.000 C 
ATOM     25  O   UNL     1      49.058   5.110  21.375  0.00  0.00    +0.000 OA
ATOM     26  H   UNL     1      48.534   2.737  21.040  0.00  0.00    +0.000 HD
ATOM     27  H   UNL     1      48.387   2.801  19.320  0.00  0.00    +0.000 HD
ENDBRANCH  17  24
ENDBRANCH  16  21
ENDBRANCH  15  16
ENDBRANCH   1  15
TORSDOF 5
ENDMDL
MODEL 5
REMARK VINA RESULT:    -6.768      2.268      3.040
REMARK INTER + INTRA:          -9.052
REMARK INTER:                  -8.851
REMARK INTRA:                  -0.201
REMARK UNBOUND:                -0.306
REMARK  Name = 
REMARK  5 active torsions:
REMARK  status: ('A' for Active; 'I' for Inactive)
REMARK    1  A    between atoms: C_2  and  C_4
REMARK    2  A    between atoms: C_8  and  O_9
REMARK    3  A    between atoms: O_9  and  C_10
REMARK    4  A    between atoms: C_10  and  C_11
REMARK    5  A    between atoms: C_16  and  C_17
REMARK                            x       y       z     vdW  Elec       q    Type
REMARK                         _______ _______ _______ _____ _____    ______ ____
ROOT
ATOM      1  C   UNL     1      47.550   5.416  14.817  0.00  0.00    +0.000 A 
ATOM      2  C   UNL     1      48.136   6.356  13.967  0.00  0.00    +0.000 A 
ATOM      3  C   UNL     1      47.597   6.567  12.707  0.00  0.00    +0.000 A 
ATOM      4  F   UNL     1      48.138   7.494  11.905  0.00  0.00    +0.000 F 
ATOM      5  C   UNL     1      46.485   5.852  12.267  0.00  0.00    +0.000 A 
ATOM      6  C   UNL     1      45.895   4.871  13.075  0.00  0.00    +0.000 A 
ATOM      7  C   UNL     1      46.448   4.670  14.356  0.00  0.00    +0.000 A 
ENDROOT
BRANCH   6   8
ATOM      8  C   UNL     1      44.658   4.071  12.666  0.00  0.00    +0.000 C 
ATOM      9  C   UNL     1      44.775   3.449  11.262  0.00  0.00    +0.000 C 
ATOM     10  C   UNL     1      44.554   4.482  10.160  0.00  0.00    +0.000 C 
ATOM     11  N   UNL     1      43.256   5.149  10.276  0.00  0.00    +0.000 NA
ATOM     12  C   UNL     1      43.074   5.772  11.586  0.00  0.00    +0.000 C 
ATOM     13  C   UNL     1      43.303   4.800  12.748  0.00  0.00    +0.000 C 
ATOM     14  H   UNL     1      42.513   4.474  10.116  0.00  0.00    +0.000 HD
ENDBRANCH   6   8
BRANCH   1  15
ATOM     15  C   UNL     1      48.065   5.233  16.224  0.00  0.00    +0.000 C 
BRANCH  15  16
ATOM     16  O   UNL     1      48.477   3.880  16.424  0.00  0.00    +0.000 OA
BRANCH  16  21
ATOM     17  C   UNL     1      51.577   2.499  17.702  0.00  0.00    +0.000 A 
ATOM     18  C   UNL     1      52.091   3.606  18.377  0.00  0.00    +0.000 A 
ATOM     19  C   UNL     1      51.353   4.771  18.354  0.00  0.00    +0.000 A 
ATOM     20  N   UNL     1      50.168   4.890  17.725  0.00  0.00    +0.000 NA
ATOM     21  C   UNL     1      49.699   3.806  17.065  0.00  0.00    +0.000 A 
ATOM     22  C   UNL     1      50.369   2.600  17.010  0.00  0.00    +0.000 A 
BRANCH  17  24
ATOM     23  N   UNL     1      51.615   0.113  18.168  0.00  0.00    +0.000 N 
ATOM     24  C   UNL     1      52.291   1.203  17.696  0.00  0.00    +0.000 C 
ATOM     25  O   UNL     1      53.432   1.101  17.258  0.00  0.00    +0.000 OA
ATOM     26  H   UNL     1      52.076  -0.781  18.053  0.00  0.00    +0.000 HD
ATOM     27  H   UNL     1      50.612   0.107  18.290  0.00  0.00    +0.000 HD
ENDBRANCH  17  24
ENDBRANCH  16  21
ENDBRANCH  15  16
ENDBRANCH   1  15
TORSDOF 5
ENDMDL
MODEL 6
REMARK VINA RESULT:    -6.755      2.470      7.536
REMARK INTER + INTRA:          -9.035
REMARK INTER:                  -8.357
REMARK INTRA:                  -0.679
REMARK UNBOUND:                -0.306
REMARK  Name = 
REMARK  5 active torsions:
REMARK  status: ('A' for Active; 'I' for Inactive)
REMARK    1  A    between atoms: C_2  and  C_4
REMARK    2  A    between atoms: C_8  and  O_9
REMARK    3  A    between atoms: O_9  and  C_10
REMARK    4  A    between atoms: C_10  and  C_11
REMARK    5  A    between atoms: C_16  and  C_17
REMARK                            x       y       z     vdW  Elec       q    Type
REMARK                         _______ _______ _______ _____ _____    ______ ____
ROOT
ATOM      1  C   UNL     1      47.893   6.259  13.975  0.00  0.00    +0.000 A 
ATOM      2  C   UNL     1      48.946   7.174  13.899  0.00  0.00    +0.000 A 
ATOM      3  C   UNL     1      49.809   7.311  14.974  0.00  0.00    +0.000 A 
ATOM      4  F   UNL     1      50.840   8.163  14.888  0.00  0.00    +0.000 F 
ATOM      5  C   UNL     1      49.643   6.561  16.136  0.00  0.00    +0.000 A 
ATOM      6  C   UNL     1      48.575   5.665  16.267  0.00  0.00    +0.000 A 
ATOM      7  C   UNL     1      47.706   5.529  15.165  0.00  0.00    +0.000 A 
ENDROOT
BRANCH   6   8
ATOM      8  C   UNL     1      48.350   4.792  17.501  0.00  0.00    +0.000 C 
ATOM      9  C   UNL     1      49.606   4.646  18.379  0.00  0.00    +0.000 C 
ATOM     10  C   UNL     1      50.609   3.661  17.781  0.00  0.00    +0.000 C 
ATOM     11  N   UNL     1      50.025   2.336  17.567  0.00  0.00    +0.000 NA
ATOM     12  C   UNL     1      48.825   2.393  16.733  0.00  0.00    +0.000 C 
ATOM     13  C   UNL     1      47.778   3.381  17.257  0.00  0.00    +0.000 C 
ATOM     14  H   UNL     1      49.794   1.919  18.464  0.00  0.00    +0.000 HD
ENDBRANCH   6   8
BRANCH   1  15
ATOM     15  C   UNL     1      46.993   6.030  12.785  0.00  0.00    +0.000 C 
BRANCH  15  16
ATOM     16  O   UNL     1      45.642   5.864  13.215  0.00  0.00    +0.000 OA
BRANCH  16  21
ATOM     17  C   UNL     1      44.682   3.654  10.505  0.00  0.00    +0.000 A 
ATOM     18  C   UNL     1      43.734   2.858  11.147  0.00  0.00    +0.000 A 
ATOM     19  C   UNL     1      43.477   3.115  12.479  0.00  0.00    +0.000 A 
ATOM     20  N   UNL     1      44.084   4.091  13.180  0.00  0.00    +0.000 NA
ATOM     21  C   UNL     1      45.011   4.838  12.537  0.00  0.00    +0.000 A 
ATOM     22  C   UNL     1      45.355   4.651  11.214  0.00  0.00    +0.000 A 
BRANCH  17  24
ATOM     23  N   UNL     1      45.415   2.221   8.684  0.00  0.00    +0.000 N 
ATOM     24  C   UNL     1      45.001   3.464   9.073  0.00  0.00    +0.000 C 
ATOM     25  O   UNL     1      44.870   4.372   8.259  0.00  0.00    +0.000 OA
ATOM     26  H   UNL     1      45.521   2.078   7.687  0.00  0.00    +0.000 HD
ATOM     27  H   UNL     1      45.288   1.401   9.259  0.00  0.00    +0.000 HD
ENDBRANCH  17  24
ENDBRANCH  16  21
ENDBRANCH  15  16
ENDBRANCH   1  15
TORSDOF 5
ENDMDL
MODEL 7
REMARK VINA RESULT:    -6.702      2.770      4.626
REMARK INTER + INTRA:          -8.967
REMARK INTER:                  -8.293
REMARK INTRA:                  -0.674
REMARK UNBOUND:                -0.306
REMARK  Name = 
REMARK  5 active torsions:
REMARK  status: ('A' for Active; 'I' for Inactive)
REMARK    1  A    between atoms: C_2  and  C_4
REMARK    2  A    between atoms: C_8  and  O_9
REMARK    3  A    between atoms: O_9  and  C_10
REMARK    4  A    between atoms: C_10  and  C_11
REMARK    5  A    between atoms: C_16  and  C_17
REMARK                            x       y       z     vdW  Elec       q    Type
REMARK                         _______ _______ _______ _____ _____    ______ ____
ROOT
ATOM      1  C   UNL     1      46.682   4.739  13.506  0.00  0.00    +0.000 A 
ATOM      2  C   UNL     1      45.780   4.531  12.460  0.00  0.00    +0.000 A 
ATOM      3  C   UNL     1      45.576   5.533  11.525  0.00  0.00    +0.000 A 
ATOM      4  F   UNL     1      44.738   5.321  10.502  0.00  0.00    +0.000 F 
ATOM      5  C   UNL     1      46.247   6.751  11.612  0.00  0.00    +0.000 A 
ATOM      6  C   UNL     1      47.127   7.014  12.670  0.00  0.00    +0.000 A 
ATOM      7  C   UNL     1      47.331   5.984  13.612  0.00  0.00    +0.000 A 
ENDROOT
BRANCH   6   8
ATOM      8  C   UNL     1      47.916   8.316  12.811  0.00  0.00    +0.000 C 
ATOM      9  C   UNL     1      48.844   8.595  11.615  0.00  0.00    +0.000 C 
ATOM     10  C   UNL     1      50.111   7.743  11.664  0.00  0.00    +0.000 C 
ATOM     11  N   UNL     1      50.864   7.939  12.903  0.00  0.00    +0.000 NA
ATOM     12  C   UNL     1      50.047   7.685  14.089  0.00  0.00    +0.000 C 
ATOM     13  C   UNL     1      48.742   8.488  14.100  0.00  0.00    +0.000 C 
ATOM     14  H   UNL     1      51.220   8.891  12.936  0.00  0.00    +0.000 HD
ENDBRANCH   6   8
BRANCH   1  15
ATOM     15  C   UNL     1      46.985   3.631  14.485  0.00  0.00    +0.000 C 
BRANCH  15  16
ATOM     16  O   UNL     1      46.437   3.943  15.766  0.00  0.00    +0.000 OA
BRANCH  16  21
ATOM     17  C   UNL     1      49.488   3.169  17.566  0.00  0.00    +0.000 A 
ATOM     18  C   UNL     1      49.330   3.971  18.696  0.00  0.00    +0.000 A 
ATOM     19  C   UNL     1      48.188   4.743  18.780  0.00  0.00    +0.000 A 
ATOM     20  N   UNL     1      47.225   4.753  17.839  0.00  0.00    +0.000 NA
ATOM     21  C   UNL     1      47.411   3.977  16.746  0.00  0.00    +0.000 A 
ATOM     22  C   UNL     1      48.525   3.185  16.556  0.00  0.00    +0.000 A 
BRANCH  17  24
ATOM     23  N   UNL     1      51.780   2.599  18.143  0.00  0.00    +0.000 N 
ATOM     24  C   UNL     1      50.669   2.293  17.407  0.00  0.00    +0.000 C 
ATOM     25  O   UNL     1      50.648   1.312  16.670  0.00  0.00    +0.000 OA
ATOM     26  H   UNL     1      52.538   1.929  18.106  0.00  0.00    +0.000 HD
ATOM     27  H   UNL     1      51.751   3.226  18.934  0.00  0.00    +0.000 HD
ENDBRANCH  17  24
ENDBRANCH  16  21
ENDBRANCH  15  16
ENDBRANCH   1  15
TORSDOF 5
ENDMDL
MODEL 8
REMARK VINA RESULT:    -6.589      3.023      7.633
REMARK INTER + INTRA:          -8.821
REMARK INTER:                  -7.901
REMARK INTRA:                  -0.920
REMARK UNBOUND:                -0.306
REMARK  Name = 
REMARK  5 active torsions:
REMARK  status: ('A' for Active; 'I' for Inactive)
REMARK    1  A    between atoms: C_2  and  C_4
REMARK    2  A    between atoms: C_8  and  O_9
REMARK    3  A    between atoms: O_9  and  C_10
REMARK    4  A    between atoms: C_10  and  C_11
REMARK    5  A    between atoms: C_16  and  C_17
REMARK                            x       y       z     vdW  Elec       q    Type
REMARK                         _______ _______ _______ _____ _____    ______ ____
ROOT
ATOM      1  C   UNL     1      49.179   7.360  15.479  0.00  0.00    +0.000 A 
ATOM      2  C   UNL     1      48.557   8.399  16.175  0.00  0.00    +0.000 A 
ATOM      3  C   UNL     1      48.527   8.370  17.560  0.00  0.00    +0.000 A 
ATOM      4  F   UNL     1      47.961   9.384  18.229  0.00  0.00    +0.000 F 
ATOM      5  C   UNL     1      49.097   7.319  18.275  0.00  0.00    +0.000 A 
ATOM      6  C   UNL     1      49.693   6.238  17.612  0.00  0.00    +0.000 A 
ATOM      7  C   UNL     1      49.723   6.281  16.203  0.00  0.00    +0.000 A 
ENDROOT
BRANCH   6   8
ATOM      8  C   UNL     1      50.362   5.068  18.333  0.00  0.00    +0.000 C 
ATOM      9  C   UNL     1      49.995   3.698  17.735  0.00  0.00    +0.000 C 
ATOM     10  C   UNL     1      48.598   3.247  18.156  0.00  0.00    +0.000 C 
ATOM     11  N   UNL     1      48.449   3.184  19.611  0.00  0.00    +0.000 NA
ATOM     12  C   UNL     1      48.776   4.457  20.253  0.00  0.00    +0.000 C 
ATOM     13  C   UNL     1      50.158   4.988  19.859  0.00  0.00    +0.000 C 
ATOM     14  H   UNL     1      49.052   2.455  19.982  0.00  0.00    +0.000 HD
ENDBRANCH   6   8
BRANCH   1  15
ATOM     15  C   UNL     1      49.301   7.413  13.975  0.00  0.00    +0.000 C 
BRANCH  15  16
ATOM     16  O   UNL     1      48.816   6.200  13.399  0.00  0.00    +0.000 OA
BRANCH  16  21
ATOM     17  C   UNL     1      45.374   5.190  12.863  0.00  0.00    +0.000 A 
ATOM     18  C   UNL     1      44.819   6.393  12.428  0.00  0.00    +0.000 A 
ATOM     19  C   UNL     1      45.651   7.492  12.347  0.00  0.00    +0.000 A 
ATOM     20  N   UNL     1      46.961   7.458  12.656  0.00  0.00    +0.000 NA
ATOM     21  C   UNL     1      47.471   6.282  13.091  0.00  0.00    +0.000 A 
ATOM     22  C   UNL     1      46.721   5.132  13.227  0.00  0.00    +0.000 A 
BRANCH  17  24
ATOM     23  N   UNL     1      45.088   2.817  12.420  0.00  0.00    +0.000 N 
ATOM     24  C   UNL     1      44.560   3.959  12.956  0.00  0.00    +0.000 C 
ATOM     25  O   UNL     1      43.470   3.950  13.518  0.00  0.00    +0.000 OA
ATOM     26  H   UNL     1      44.570   1.964  12.591  0.00  0.00    +0.000 HD
ATOM     27  H   UNL     1      46.066   2.728  12.188  0.00  0.00    +0.000 HD
ENDBRANCH  17  24
ENDBRANCH  16  21
ENDBRANCH  15  16
ENDBRANCH   1  15
TORSDOF 5
ENDMDL
MODEL 9
REMARK VINA RESULT:    -6.562      2.054      2.442
REMARK INTER + INTRA:          -8.786
REMARK INTER:                  -8.232
REMARK INTRA:                  -0.554
REMARK UNBOUND:                -0.306
REMARK  Name = 
REMARK  5 active torsions:
REMARK  status: ('A' for Active; 'I' for Inactive)
REMARK    1  A    between atoms: C_2  and  C_4
REMARK    2  A    between atoms: C_8  and  O_9
REMARK    3  A    between atoms: O_9  and  C_10
REMARK    4  A    between atoms: C_10  and  C_11
REMARK    5  A    between atoms: C_16  and  C_17
REMARK                            x       y       z     vdW  Elec       q    Type
REMARK                         _______ _______ _______ _____ _____    ______ ____
ROOT
ATOM      1  C   UNL     1      46.926   7.267  13.126  0.00  0.00    +0.000 A 
ATOM      2  C   UNL     1      46.585   8.616  12.998  0.00  0.00    +0.000 A 
ATOM      3  C   UNL     1      45.482   8.971  12.239  0.00  0.00    +0.000 A 
ATOM      4  F   UNL     1      45.135  10.262  12.144  0.00  0.00    +0.000 F 
ATOM      5  C   UNL     1      44.708   8.010  11.592  0.00  0.00    +0.000 A 
ATOM      6  C   UNL     1      45.042   6.652  11.662  0.00  0.00    +0.000 A 
ATOM      7  C   UNL     1      46.163   6.301  12.442  0.00  0.00    +0.000 A 
ENDROOT
BRANCH   6   8
ATOM      8  C   UNL     1      44.222   5.544  11.001  0.00  0.00    +0.000 C 
ATOM      9  C   UNL     1      42.861   5.309  11.681  0.00  0.00    +0.000 C 
ATOM     10  C   UNL     1      43.001   4.521  12.983  0.00  0.00    +0.000 C 
ATOM     11  N   UNL     1      43.660   3.229  12.782  0.00  0.00    +0.000 NA
ATOM     12  C   UNL     1      44.967   3.373  12.142  0.00  0.00    +0.000 C 
ATOM     13  C   UNL     1      44.911   4.175  10.838  0.00  0.00    +0.000 C 
ATOM     14  H   UNL     1      43.068   2.633  12.210  0.00  0.00    +0.000 HD
ENDBRANCH   6   8
BRANCH   1  15
ATOM     15  C   UNL     1      48.070   6.850  14.018  0.00  0.00    +0.000 C 
BRANCH  15  16
ATOM     16  O   UNL     1      48.105   5.428  14.140  0.00  0.00    +0.000 OA
BRANCH  16  21
ATOM     17  C   UNL     1      48.386   5.452  17.755  0.00  0.00    +0.000 A 
ATOM     18  C   UNL     1      47.797   4.226  18.066  0.00  0.00    +0.000 A 
ATOM     19  C   UNL     1      47.328   3.456  17.021  0.00  0.00    +0.000 A 
ATOM     20  N   UNL     1      47.416   3.823  15.728  0.00  0.00    +0.000 NA
ATOM     21  C   UNL     1      47.977   5.024  15.455  0.00  0.00    +0.000 A 
ATOM     22  C   UNL     1      48.459   5.877  16.427  0.00  0.00    +0.000 A 
BRANCH  17  24
ATOM     23  N   UNL     1      50.293   6.332  18.978  0.00  0.00    +0.000 N 
ATOM     24  C   UNL     1      48.937   6.328  18.812  0.00  0.00    +0.000 C 
ATOM     25  O   UNL     1      48.212   7.047  19.493  0.00  0.00    +0.000 OA
ATOM     26  H   UNL     1      50.661   7.018  19.626  0.00  0.00    +0.000 HD
ATOM     27  H   UNL     1      50.927   5.964  18.283  0.00  0.00    +0.000 HD
ENDBRANCH  17  24
ENDBRANCH  16  21
ENDBRANCH  15  16
ENDBRANCH   1  15
TORSDOF 5
ENDMDL
