MODEL 1
REMARK VINA RESULT:    -6.752      0.000      0.000
REMARK INTER + INTRA:          -9.753
REMARK INTER:                  -8.726
REMARK INTRA:                  -1.027
REMARK UNBOUND:                -1.027
REMARK  Name = 
REMARK  7 active torsions:
REMARK  status: ('A' for Active; 'I' for Inactive)
REMARK    1  A    between atoms: C_1  and  C_2
REMARK    2  A    between atoms: C_6  and  C_7
REMARK    3  A    between atoms: C_7  and  C_8
REMARK    4  A    between atoms: C_11  and  C_12
REMARK    5  A    between atoms: C_12  and  N_13
REMARK    6  A    between atoms: N_13  and  C_14
REMARK    7  A    between atoms: C_15  and  C_17
REMARK                            x       y       z     vdW  Elec       q    Type
REMARK                         _______ _______ _______ _____ _____    ______ ____
ROOT
ATOM      1  C   UNL     1      49.493   7.379  14.543  0.00  0.00    +0.000 C 
ENDROOT
BRANCH   1   5
ATOM      2  C   UNL     1      45.773   5.908  13.214  0.00  0.00    +0.000 A 
ATOM      3  C   UNL     1      46.686   5.083  13.863  0.00  0.00    +0.000 A 
ATOM      4  N   UNL     1      47.909   5.509  14.262  0.00  0.00    +0.000 NA
ATOM      5  C   UNL     1      48.195   6.816  14.009  0.00  0.00    +0.000 A 
ATOM      6  C   UNL     1      47.286   7.635  13.348  0.00  0.00    +0.000 A 
ATOM      7  N   UNL     1      46.073   7.200  12.926  0.00  0.00    +0.000 NA
BRANCH   2   8
ATOM      8  C   UNL     1      44.374   5.437  12.922  0.00  0.00    +0.000 C 
BRANCH   8  14
ATOM      9  C   UNL     1      45.710   4.318   8.344  0.00  0.00    +0.000 C 
ATOM     10  C   UNL     1      44.975   3.957   9.596  0.00  0.00    +0.000 A 
ATOM     11  C   UNL     1      44.273   2.761   9.696  0.00  0.00    +0.000 A 
ATOM     12  N   UNL     1      43.582   2.405  10.801  0.00  0.00    +0.000 NA
ATOM     13  C   UNL     1      43.626   3.295  11.820  0.00  0.00    +0.000 A 
ATOM     14  C   UNL     1      44.327   4.497  11.745  0.00  0.00    +0.000 A 
ATOM     15  N   UNL     1      45.015   4.843  10.624  0.00  0.00    +0.000 NA
ENDBRANCH   8  14
ENDBRANCH   2   8
ENDBRANCH   1   5
BRANCH   1  16
ATOM     16  N   UNL     1      49.448   7.606  15.992  0.00  0.00    +0.000 N 
ATOM     17  C   UNL     1      48.796   8.832  16.430  0.00  0.00    +0.000 C 
ATOM     18  C   UNL     1      50.133   6.703  16.811  0.00  0.00    +0.000 C 
ATOM     19  O   UNL     1      50.720   5.739  16.320  0.00  0.00    +0.000 OA
BRANCH  18  20
ATOM     20  C   UNL     1      50.109   6.871  18.272  0.00  0.00    +0.000 A 
ATOM     21  C   UNL     1      51.044   7.589  19.000  0.00  0.00    +0.000 A 
ATOM     22  S   UNL     1      50.689   7.686  20.667  0.00  0.00    +0.000 S 
ATOM     23  C   UNL     1      49.213   6.868  20.457  0.00  0.00    +0.000 A 
ATOM     24  N   UNL     1      48.353   6.698  21.495  0.00  0.00    +0.000 NA
ATOM     25  C   UNL     1      47.251   6.107  21.176  0.00  0.00    +0.000 A 
ATOM     26  N   UNL     1      46.946   5.639  19.920  0.00  0.00    +0.000 N 
ATOM     27  C   UNL     1      47.832   5.693  18.865  0.00  0.00    +0.000 A 
ATOM     28  O   UNL     1      47.604   5.097  17.818  0.00  0.00    +0.000 OA
ATOM     29  C   UNL     1      49.039   6.449  19.151  0.00  0.00    +0.000 A 
ATOM     30  H   UNL     1      46.094   5.127  19.754  0.00  0.00    +0.000 HD
ENDBRANCH  18  20
ENDBRANCH   1  16
TORSDOF 5
ENDMDL
MODEL 2
REMARK VINA RESULT:    -6.719      3.168      3.693
REMARK INTER + INTRA:          -9.711
REMARK INTER:                  -9.021
REMARK INTRA:                  -0.690
REMARK UNBOUND:                -1.027
REMARK  Name = 
REMARK  7 active torsions:
REMARK  status: ('A' for Active; 'I' for Inactive)
REMARK    1  A    between atoms: C_1  and  C_2
REMARK    2  A    between atoms: C_6  and  C_7
REMARK    3  A    between atoms: C_7  and  C_8
REMARK    4  A    between atoms: C_11  and  C_12
REMARK    5  A    between atoms: C_12  and  N_13
REMARK    6  A    between atoms: N_13  and  C_14
REMARK    7  A    between atoms: C_15  and  C_17
REMARK                            x       y       z     vdW  Elec       q    Type
REMARK                         _______ _______ _______ _____ _____    ______ ____
ROOT
ATOM      1  C   UNL     1      48.867   7.119  16.627  0.00  0.00    +0.000 C 
ENDROOT
BRANCH   1   5
ATOM      2  C   UNL     1      47.319   6.741  12.725  0.00  0.00    +0.000 A 
ATOM      3  C   UNL     1      47.548   5.625  13.523  0.00  0.00    +0.000 A 
ATOM      4  N   UNL     1      48.088   5.705  14.763  0.00  0.00    +0.000 NA
ATOM      5  C   UNL     1      48.380   6.958  15.204  0.00  0.00    +0.000 A 
ATOM      6  C   UNL     1      48.163   8.072  14.400  0.00  0.00    +0.000 A 
ATOM      7  N   UNL     1      47.647   7.988  13.149  0.00  0.00    +0.000 NA
BRANCH   2   8
ATOM      8  C   UNL     1      46.582   6.621  11.418  0.00  0.00    +0.000 C 
BRANCH   8  14
ATOM      9  C   UNL     1      44.143   2.582  10.104  0.00  0.00    +0.000 C 
ATOM     10  C   UNL     1      44.225   3.824  10.932  0.00  0.00    +0.000 A 
ATOM     11  C   UNL     1      43.209   4.164  11.819  0.00  0.00    +0.000 A 
ATOM     12  N   UNL     1      43.235   5.286  12.571  0.00  0.00    +0.000 NA
ATOM     13  C   UNL     1      44.332   6.062  12.411  0.00  0.00    +0.000 A 
ATOM     14  C   UNL     1      45.365   5.740  11.533  0.00  0.00    +0.000 A 
ATOM     15  N   UNL     1      45.323   4.609  10.778  0.00  0.00    +0.000 NA
ENDBRANCH   8  14
ENDBRANCH   2   8
ENDBRANCH   1   5
BRANCH   1  16
ATOM     16  N   UNL     1      50.126   6.406  16.870  0.00  0.00    +0.000 N 
ATOM     17  C   UNL     1      51.258   6.800  16.043  0.00  0.00    +0.000 C 
ATOM     18  C   UNL     1      50.103   5.339  17.774  0.00  0.00    +0.000 C 
ATOM     19  O   UNL     1      49.062   5.044  18.361  0.00  0.00    +0.000 OA
BRANCH  18  20
ATOM     20  C   UNL     1      51.339   4.599  18.071  0.00  0.00    +0.000 A 
ATOM     21  C   UNL     1      52.418   5.115  18.771  0.00  0.00    +0.000 A 
ATOM     22  S   UNL     1      53.664   3.980  19.043  0.00  0.00    +0.000 S 
ATOM     23  C   UNL     1      52.755   2.729  18.335  0.00  0.00    +0.000 A 
ATOM     24  N   UNL     1      53.213   1.449  18.327  0.00  0.00    +0.000 NA
ATOM     25  C   UNL     1      52.393   0.599  17.804  0.00  0.00    +0.000 A 
ATOM     26  N   UNL     1      51.175   0.919  17.254  0.00  0.00    +0.000 N 
ATOM     27  C   UNL     1      50.721   2.216  17.142  0.00  0.00    +0.000 A 
ATOM     28  O   UNL     1      49.726   2.482  16.477  0.00  0.00    +0.000 OA
ATOM     29  C   UNL     1      51.560   3.192  17.818  0.00  0.00    +0.000 A 
ATOM     30  H   UNL     1      50.613   0.215  16.802  0.00  0.00    +0.000 HD
ENDBRANCH  18  20
ENDBRANCH   1  16
TORSDOF 5
ENDMDL
MODEL 3
REMARK VINA RESULT:    -6.264      1.347      2.028
REMARK INTER + INTRA:          -9.122
REMARK INTER:                  -8.230
REMARK INTRA:                  -0.892
REMARK UNBOUND:                -1.027
REMARK  Name = 
REMARK  7 active torsions:
REMARK  status: ('A' for Active; 'I' for Inactive)
REMARK    1  A    between atoms: C_1  and  C_2
REMARK    2  A    between atoms: C_6  and  C_7
REMARK    3  A    between atoms: C_7  and  C_8
REMARK    4  A    between atoms: C_11  and  C_12
REMARK    5  A    between atoms: C_12  and  N_13
REMARK    6  A    between atoms: N_13  and  C_14
REMARK    7  A    between atoms: C_15  and  C_17
REMARK                            x       y       z     vdW  Elec       q    Type
REMARK                         _______ _______ _______ _____ _____    ______ ____
ROOT
ATOM      1  C   UNL     1      49.320   7.024  14.782  0.00  0.00    +0.000 C 
ENDROOT
BRANCH   1   5
ATOM      2  C   UNL     1      45.822   6.364  12.523  0.00  0.00    +0.000 A 
ATOM      3  C   UNL     1      46.436   5.331  13.223  0.00  0.00    +0.000 A 
ATOM      4  N   UNL     1      47.586   5.495  13.921  0.00  0.00    +0.000 NA
ATOM      5  C   UNL     1      48.108   6.752  13.919  0.00  0.00    +0.000 A 
ATOM      6  C   UNL     1      47.500   7.781  13.207  0.00  0.00    +0.000 A 
ATOM      7  N   UNL     1      46.363   7.608  12.488  0.00  0.00    +0.000 NA
BRANCH   2   8
ATOM      8  C   UNL     1      44.472   6.174  11.888  0.00  0.00    +0.000 C 
BRANCH   8  14
ATOM      9  C   UNL     1      45.850   3.715   7.882  0.00  0.00    +0.000 C 
ATOM     10  C   UNL     1      45.082   3.760   9.165  0.00  0.00    +0.000 A 
ATOM     11  C   UNL     1      44.340   2.667   9.595  0.00  0.00    +0.000 A 
ATOM     12  N   UNL     1      43.618   2.673  10.737  0.00  0.00    +0.000 NA
ATOM     13  C   UNL     1      43.673   3.822  11.449  0.00  0.00    +0.000 A 
ATOM     14  C   UNL     1      44.415   4.930  11.041  0.00  0.00    +0.000 A 
ATOM     15  N   UNL     1      45.133   4.910   9.885  0.00  0.00    +0.000 NA
ENDBRANCH   8  14
ENDBRANCH   2   8
ENDBRANCH   1   5
BRANCH   1  16
ATOM     16  N   UNL     1      48.966   7.238  16.189  0.00  0.00    +0.000 N 
ATOM     17  C   UNL     1      48.598   8.598  16.559  0.00  0.00    +0.000 C 
ATOM     18  C   UNL     1      49.129   6.163  17.069  0.00  0.00    +0.000 C 
ATOM     19  O   UNL     1      49.524   5.074  16.655  0.00  0.00    +0.000 OA
BRANCH  18  20
ATOM     20  C   UNL     1      48.773   6.314  18.488  0.00  0.00    +0.000 A 
ATOM     21  C   UNL     1      47.550   5.960  19.037  0.00  0.00    +0.000 A 
ATOM     22  S   UNL     1      47.475   6.160  20.731  0.00  0.00    +0.000 S 
ATOM     23  C   UNL     1      49.111   6.619  20.805  0.00  0.00    +0.000 A 
ATOM     24  N   UNL     1      49.721   6.845  21.998  0.00  0.00    +0.000 NA
ATOM     25  C   UNL     1      50.976   7.134  21.902  0.00  0.00    +0.000 A 
ATOM     26  N   UNL     1      51.667   7.253  20.720  0.00  0.00    +0.000 N 
ATOM     27  C   UNL     1      51.063   7.140  19.485  0.00  0.00    +0.000 A 
ATOM     28  O   UNL     1      51.663   7.442  18.459  0.00  0.00    +0.000 OA
ATOM     29  C   UNL     1      49.678   6.706  19.547  0.00  0.00    +0.000 A 
ATOM     30  H   UNL     1      52.631   7.546  20.714  0.00  0.00    +0.000 HD
ENDBRANCH  18  20
ENDBRANCH   1  16
TORSDOF 5
ENDMDL
MODEL 4
REMARK VINA RESULT:    -6.071      1.026      1.432
REMARK INTER + INTRA:          -8.873
REMARK INTER:                  -8.168
REMARK INTRA:                  -0.704
REMARK UNBOUND:                -1.027
REMARK  Name = 
REMARK  7 active torsions:
REMARK  status: ('A' for Active; 'I' for Inactive)
REMARK    1  A    between atoms: C_1  and  C_2
REMARK    2  A    between atoms: C_6  and  C_7
REMARK    3  A    between atoms: C_7  and  C_8
REMARK    4  A    between atoms: C_11  and  C_12
REMARK    5  A    between atoms: C_12  and  N_13
REMARK    6  A    between atoms: N_13  and  C_14
REMARK    7  A    between atoms: C_15  and  C_17
REMARK                            x       y       z     vdW  Elec       q    Type
REMARK                         _______ _______ _______ _____ _____    ______ ____
ROOT
ATOM      1  C   UNL     1      49.495   8.030  14.508  0.00  0.00    +0.000 C 
ENDROOT
BRANCH   1   5
ATOM      2  C   UNL     1      45.813   7.142  12.659  0.00  0.00    +0.000 A 
ATOM      3  C   UNL     1      46.156   8.447  12.995  0.00  0.00    +0.000 A 
ATOM      4  N   UNL     1      47.310   8.764  13.631  0.00  0.00    +0.000 NA
ATOM      5  C   UNL     1      48.140   7.723  13.912  0.00  0.00    +0.000 A 
ATOM      6  C   UNL     1      47.788   6.417  13.587  0.00  0.00    +0.000 A 
ATOM      7  N   UNL     1      46.621   6.099  12.974  0.00  0.00    +0.000 NA
BRANCH   2   8
ATOM      8  C   UNL     1      44.596   6.852  11.822  0.00  0.00    +0.000 C 
BRANCH   8  14
ATOM      9  C   UNL     1      44.473   2.520   9.539  0.00  0.00    +0.000 C 
ATOM     10  C   UNL     1      44.205   3.340  10.761  0.00  0.00    +0.000 A 
ATOM     11  C   UNL     1      43.657   2.767  11.903  0.00  0.00    +0.000 A 
ATOM     12  N   UNL     1      43.382   3.475  13.021  0.00  0.00    +0.000 NA
ATOM     13  C   UNL     1      43.687   4.792  12.959  0.00  0.00    +0.000 A 
ATOM     14  C   UNL     1      44.242   5.387  11.827  0.00  0.00    +0.000 A 
ATOM     15  N   UNL     1      44.509   4.662  10.708  0.00  0.00    +0.000 NA
ENDBRANCH   8  14
ENDBRANCH   2   8
ENDBRANCH   1   5
BRANCH   1  16
ATOM     16  N   UNL     1      49.465   8.067  15.973  0.00  0.00    +0.000 N 
ATOM     17  C   UNL     1      48.807   9.219  16.574  0.00  0.00    +0.000 C 
ATOM     18  C   UNL     1      50.168   7.072  16.662  0.00  0.00    +0.000 C 
ATOM     19  O   UNL     1      50.757   6.187  16.044  0.00  0.00    +0.000 OA
BRANCH  18  20
ATOM     20  C   UNL     1      50.158   7.048  18.132  0.00  0.00    +0.000 A 
ATOM     21  C   UNL     1      51.096   7.675  18.938  0.00  0.00    +0.000 A 
ATOM     22  S   UNL     1      50.759   7.552  20.607  0.00  0.00    +0.000 S 
ATOM     23  C   UNL     1      49.288   6.753  20.307  0.00  0.00    +0.000 A 
ATOM     24  N   UNL     1      48.442   6.440  21.323  0.00  0.00    +0.000 NA
ATOM     25  C   UNL     1      47.341   5.884  20.941  0.00  0.00    +0.000 A 
ATOM     26  N   UNL     1      47.025   5.581  19.638  0.00  0.00    +0.000 N 
ATOM     27  C   UNL     1      47.899   5.781  18.590  0.00  0.00    +0.000 A 
ATOM     28  O   UNL     1      47.665   5.323  17.476  0.00  0.00    +0.000 OA
ATOM     29  C   UNL     1      49.103   6.505  18.960  0.00  0.00    +0.000 A 
ATOM     30  H   UNL     1      46.176   5.086  19.415  0.00  0.00    +0.000 HD
ENDBRANCH  18  20
ENDBRANCH   1  16
TORSDOF 5
ENDMDL
MODEL 5
REMARK VINA RESULT:    -5.999      2.931      4.246
REMARK INTER + INTRA:          -8.780
REMARK INTER:                  -8.220
REMARK INTRA:                  -0.560
REMARK UNBOUND:                -1.027
REMARK  Name = 
REMARK  7 active torsions:
REMARK  status: ('A' for Active; 'I' for Inactive)
REMARK    1  A    between atoms: C_1  and  C_2
REMARK    2  A    between atoms: C_6  and  C_7
REMARK    3  A    between atoms: C_7  and  C_8
REMARK    4  A    between atoms: C_11  and  C_12
REMARK    5  A    between atoms: C_12  and  N_13
REMARK    6  A    between atoms: N_13  and  C_14
REMARK    7  A    between atoms: C_15  and  C_17
REMARK                            x       y       z     vdW  Elec       q    Type
REMARK                         _______ _______ _______ _____ _____    ______ ____
ROOT
ATOM      1  C   UNL     1      48.253   3.751  17.691  0.00  0.00    +0.000 C 
ENDROOT
BRANCH   1   5
ATOM      2  C   UNL     1      47.203   5.316  13.920  0.00  0.00    +0.000 A 
ATOM      3  C   UNL     1      47.024   3.969  14.219  0.00  0.00    +0.000 A 
ATOM      4  N   UNL     1      47.393   3.422  15.403  0.00  0.00    +0.000 NA
ATOM      5  C   UNL     1      47.939   4.278  16.309  0.00  0.00    +0.000 A 
ATOM      6  C   UNL     1      48.129   5.622  16.003  0.00  0.00    +0.000 A 
ATOM      7  N   UNL     1      47.783   6.162  14.808  0.00  0.00    +0.000 NA
BRANCH   2   8
ATOM      8  C   UNL     1      46.645   5.909  12.655  0.00  0.00    +0.000 C 
BRANCH   8  14
ATOM      9  C   UNL     1      44.287   2.752   9.746  0.00  0.00    +0.000 C 
ATOM     10  C   UNL     1      44.256   3.731  10.876  0.00  0.00    +0.000 A 
ATOM     11  C   UNL     1      43.074   4.010  11.552  0.00  0.00    +0.000 A 
ATOM     12  N   UNL     1      42.999   4.901  12.565  0.00  0.00    +0.000 NA
ATOM     13  C   UNL     1      44.166   5.504  12.890  0.00  0.00    +0.000 A 
ATOM     14  C   UNL     1      45.365   5.237  12.231  0.00  0.00    +0.000 A 
ATOM     15  N   UNL     1      45.423   4.340  11.209  0.00  0.00    +0.000 NA
ENDBRANCH   8  14
ENDBRANCH   2   8
ENDBRANCH   1   5
BRANCH   1  16
ATOM     16  N   UNL     1      49.573   4.179  18.165  0.00  0.00    +0.000 N 
ATOM     17  C   UNL     1      49.590   5.312  19.081  0.00  0.00    +0.000 C 
ATOM     18  C   UNL     1      50.696   3.555  17.611  0.00  0.00    +0.000 C 
ATOM     19  O   UNL     1      50.561   2.657  16.781  0.00  0.00    +0.000 OA
BRANCH  18  20
ATOM     20  C   UNL     1      52.044   3.932  18.061  0.00  0.00    +0.000 A 
ATOM     21  C   UNL     1      52.809   3.203  18.958  0.00  0.00    +0.000 A 
ATOM     22  S   UNL     1      54.372   3.842  19.205  0.00  0.00    +0.000 S 
ATOM     23  C   UNL     1      54.123   5.052  18.036  0.00  0.00    +0.000 A 
ATOM     24  N   UNL     1      55.123   5.901  17.683  0.00  0.00    +0.000 NA
ATOM     25  C   UNL     1      54.804   6.731  16.746  0.00  0.00    +0.000 A 
ATOM     26  N   UNL     1      53.566   6.812  16.157  0.00  0.00    +0.000 N 
ATOM     27  C   UNL     1      52.493   6.045  16.560  0.00  0.00    +0.000 A 
ATOM     28  O   UNL     1      51.361   6.278  16.149  0.00  0.00    +0.000 OA
ATOM     29  C   UNL     1      52.835   5.022  17.532  0.00  0.00    +0.000 A 
ATOM     30  H   UNL     1      53.365   7.528  15.477  0.00  0.00    +0.000 HD
ENDBRANCH  18  20
ENDBRANCH   1  16
TORSDOF 5
ENDMDL
MODEL 6
REMARK VINA RESULT:    -5.984      1.880      2.471
REMARK INTER + INTRA:          -8.761
REMARK INTER:                  -8.371
REMARK INTRA:                  -0.390
REMARK UNBOUND:                -1.027
REMARK  Name = 
REMARK  7 active torsions:
REMARK  status: ('A' for Active; 'I' for Inactive)
REMARK    1  A    between atoms: C_1  and  C_2
REMARK    2  A    between atoms: C_6  and  C_7
REMARK    3  A    between atoms: C_7  and  C_8
REMARK    4  A    between atoms: C_11  and  C_12
REMARK    5  A    between atoms: C_12  and  N_13
REMARK    6  A    between atoms: N_13  and  C_14
REMARK    7  A    between atoms: C_15  and  C_17
REMARK                            x       y       z     vdW  Elec       q    Type
REMARK                         _______ _______ _______ _____ _____    ______ ____
ROOT
ATOM      1  C   UNL     1      48.038   4.381  15.687  0.00  0.00    +0.000 C 
ENDROOT
BRANCH   1   5
ATOM      2  C   UNL     1      45.979   5.871  12.324  0.00  0.00    +0.000 A 
ATOM      3  C   UNL     1      47.312   6.193  12.556  0.00  0.00    +0.000 A 
ATOM      4  N   UNL     1      47.992   5.771  13.650  0.00  0.00    +0.000 NA
ATOM      5  C   UNL     1      47.296   4.983  14.515  0.00  0.00    +0.000 A 
ATOM      6  C   UNL     1      45.959   4.674  14.288  0.00  0.00    +0.000 A 
ATOM      7  N   UNL     1      45.273   5.119  13.206  0.00  0.00    +0.000 NA
BRANCH   2   8
ATOM      8  C   UNL     1      45.309   6.235  11.027  0.00  0.00    +0.000 C 
BRANCH   8  14
ATOM      9  C   UNL     1      46.380   3.677   6.990  0.00  0.00    +0.000 C 
ATOM     10  C   UNL     1      45.601   3.813   8.259  0.00  0.00    +0.000 A 
ATOM     11  C   UNL     1      44.691   2.837   8.651  0.00  0.00    +0.000 A 
ATOM     12  N   UNL     1      43.955   2.930   9.779  0.00  0.00    +0.000 NA
ATOM     13  C   UNL     1      44.170   4.043  10.519  0.00  0.00    +0.000 A 
ATOM     14  C   UNL     1      45.081   5.031  10.150  0.00  0.00    +0.000 A 
ATOM     15  N   UNL     1      45.812   4.926   9.008  0.00  0.00    +0.000 NA
ENDBRANCH   8  14
ENDBRANCH   2   8
ENDBRANCH   1   5
BRANCH   1  16
ATOM     16  N   UNL     1      48.420   5.388  16.683  0.00  0.00    +0.000 N 
ATOM     17  C   UNL     1      49.592   6.193  16.366  0.00  0.00    +0.000 C 
ATOM     18  C   UNL     1      47.714   5.407  17.890  0.00  0.00    +0.000 C 
ATOM     19  O   UNL     1      46.786   4.621  18.080  0.00  0.00    +0.000 OA
BRANCH  18  20
ATOM     20  C   UNL     1      48.042   6.406  18.919  0.00  0.00    +0.000 A 
ATOM     21  C   UNL     1      47.369   7.604  19.096  0.00  0.00    +0.000 A 
ATOM     22  S   UNL     1      47.917   8.506  20.438  0.00  0.00    +0.000 S 
ATOM     23  C   UNL     1      48.997   7.274  20.896  0.00  0.00    +0.000 A 
ATOM     24  N   UNL     1      49.724   7.369  22.040  0.00  0.00    +0.000 NA
ATOM     25  C   UNL     1      50.459   6.337  22.285  0.00  0.00    +0.000 A 
ATOM     26  N   UNL     1      50.561   5.234  21.472  0.00  0.00    +0.000 N 
ATOM     27  C   UNL     1      49.926   5.143  20.250  0.00  0.00    +0.000 A 
ATOM     28  O   UNL     1      50.191   4.236  19.468  0.00  0.00    +0.000 OA
ATOM     29  C   UNL     1      49.002   6.232  19.987  0.00  0.00    +0.000 A 
ATOM     30  H   UNL     1      51.205   4.490  21.690  0.00  0.00    +0.000 HD
ENDBRANCH  18  20
ENDBRANCH   1  16
TORSDOF 5
ENDMDL
MODEL 7
REMARK VINA RESULT:    -5.823      5.690      8.910
REMARK INTER + INTRA:          -8.552
REMARK INTER:                  -7.639
REMARK INTRA:                  -0.913
REMARK UNBOUND:                -1.027
REMARK  Name = 
REMARK  7 active torsions:
REMARK  status: ('A' for Active; 'I' for Inactive)
REMARK    1  A    between atoms: C_1  and  C_2
REMARK    2  A    between atoms: C_6  and  C_7
REMARK    3  A    between atoms: C_7  and  C_8
REMARK    4  A    between atoms: C_11  and  C_12
REMARK    5  A    between atoms: C_12  and  N_13
REMARK    6  A    between atoms: N_13  and  C_14
REMARK    7  A    between atoms: C_15  and  C_17
REMARK                            x       y       z     vdW  Elec       q    Type
REMARK                         _______ _______ _______ _____ _____    ______ ____
ROOT
ATOM      1  C   UNL     1      46.391   8.979  12.693  0.00  0.00    +0.000 C 
ENDROOT
BRANCH   1   5
ATOM      2  C   UNL     1      48.824  11.676  10.553  0.00  0.00    +0.000 A 
ATOM      3  C   UNL     1      47.457  11.892  10.694  0.00  0.00    +0.000 A 
ATOM      4  N   UNL     1      46.637  11.023  11.335  0.00  0.00    +0.000 NA
ATOM      5  C   UNL     1      47.234   9.919  11.860  0.00  0.00    +0.000 A 
ATOM      6  C   UNL     1      48.599   9.699  11.705  0.00  0.00    +0.000 A 
ATOM      7  N   UNL     1      49.413  10.555  11.042  0.00  0.00    +0.000 NA
BRANCH   2   8
ATOM      8  C   UNL     1      49.719  12.734   9.967  0.00  0.00    +0.000 C 
BRANCH   8  14
ATOM      9  C   UNL     1      48.735  11.998   5.225  0.00  0.00    +0.000 C 
ATOM     10  C   UNL     1      49.729  12.050   6.341  0.00  0.00    +0.000 A 
ATOM     11  C   UNL     1      51.077  11.796   6.113  0.00  0.00    +0.000 A 
ATOM     12  N   UNL     1      52.005  11.815   7.095  0.00  0.00    +0.000 NA
ATOM     13  C   UNL     1      51.533  12.111   8.328  0.00  0.00    +0.000 A 
ATOM     14  C   UNL     1      50.188  12.375   8.580  0.00  0.00    +0.000 A 
ATOM     15  N   UNL     1      49.264  12.347   7.582  0.00  0.00    +0.000 NA
ENDBRANCH   8  14
ENDBRANCH   2   8
ENDBRANCH   1   5
BRANCH   1  16
ATOM     16  N   UNL     1      45.685   7.989  11.873  0.00  0.00    +0.000 N 
ATOM     17  C   UNL     1      44.356   8.366  11.413  0.00  0.00    +0.000 C 
ATOM     18  C   UNL     1      46.286   6.736  11.708  0.00  0.00    +0.000 C 
ATOM     19  O   UNL     1      47.383   6.502  12.212  0.00  0.00    +0.000 OA
BRANCH  18  20
ATOM     20  C   UNL     1      45.632   5.710  10.882  0.00  0.00    +0.000 A 
ATOM     21  C   UNL     1      45.877   5.510   9.533  0.00  0.00    +0.000 A 
ATOM     22  S   UNL     1      45.040   4.176   8.874  0.00  0.00    +0.000 S 
ATOM     23  C   UNL     1      44.409   3.750  10.396  0.00  0.00    +0.000 A 
ATOM     24  N   UNL     1      43.668   2.622  10.555  0.00  0.00    +0.000 NA
ATOM     25  C   UNL     1      43.302   2.399  11.774  0.00  0.00    +0.000 A 
ATOM     26  N   UNL     1      43.579   3.221  12.839  0.00  0.00    +0.000 N 
ATOM     27  C   UNL     1      44.233   4.429  12.705  0.00  0.00    +0.000 A 
ATOM     28  O   UNL     1      44.291   5.222  13.638  0.00  0.00    +0.000 OA
ATOM     29  C   UNL     1      44.759   4.665  11.371  0.00  0.00    +0.000 A 
ATOM     30  H   UNL     1      43.207   3.022  13.754  0.00  0.00    +0.000 HD
ENDBRANCH  18  20
ENDBRANCH   1  16
TORSDOF 5
ENDMDL
MODEL 8
REMARK VINA RESULT:    -5.789      2.487      3.093
REMARK INTER + INTRA:          -8.508
REMARK INTER:                  -8.380
REMARK INTRA:                  -0.128
REMARK UNBOUND:                -1.027
REMARK  Name = 
REMARK  7 active torsions:
REMARK  status: ('A' for Active; 'I' for Inactive)
REMARK    1  A    between atoms: C_1  and  C_2
REMARK    2  A    between atoms: C_6  and  C_7
REMARK    3  A    between atoms: C_7  and  C_8
REMARK    4  A    between atoms: C_11  and  C_12
REMARK    5  A    between atoms: C_12  and  N_13
REMARK    6  A    between atoms: N_13  and  C_14
REMARK    7  A    between atoms: C_15  and  C_17
REMARK                            x       y       z     vdW  Elec       q    Type
REMARK                         _______ _______ _______ _____ _____    ______ ____
ROOT
ATOM      1  C   UNL     1      47.290   8.317  13.138  0.00  0.00    +0.000 C 
ENDROOT
BRANCH   1   5
ATOM      2  C   UNL     1      44.475   5.783  11.289  0.00  0.00    +0.000 A 
ATOM      3  C   UNL     1      44.320   7.165  11.278  0.00  0.00    +0.000 A 
ATOM      4  N   UNL     1      45.179   8.007  11.902  0.00  0.00    +0.000 NA
ATOM      5  C   UNL     1      46.233   7.422  12.533  0.00  0.00    +0.000 A 
ATOM      6  C   UNL     1      46.378   6.039  12.554  0.00  0.00    +0.000 A 
ATOM      7  N   UNL     1      45.504   5.196  11.952  0.00  0.00    +0.000 NA
BRANCH   2   8
ATOM      8  C   UNL     1      43.584   4.897  10.461  0.00  0.00    +0.000 C 
BRANCH   8  14
ATOM      9  C   UNL     1      46.729   4.038   6.805  0.00  0.00    +0.000 C 
ATOM     10  C   UNL     1      45.874   3.519   7.917  0.00  0.00    +0.000 A 
ATOM     11  C   UNL     1      45.817   2.159   8.203  0.00  0.00    +0.000 A 
ATOM     12  N   UNL     1      45.044   1.647   9.185  0.00  0.00    +0.000 NA
ATOM     13  C   UNL     1      44.328   2.555   9.889  0.00  0.00    +0.000 A 
ATOM     14  C   UNL     1      44.374   3.923   9.625  0.00  0.00    +0.000 A 
ATOM     15  N   UNL     1      45.153   4.423   8.629  0.00  0.00    +0.000 NA
ENDBRANCH   8  14
ENDBRANCH   2   8
ENDBRANCH   1   5
BRANCH   1  16
ATOM     16  N   UNL     1      48.385   7.555  13.747  0.00  0.00    +0.000 N 
ATOM     17  C   UNL     1      49.048   6.584  12.888  0.00  0.00    +0.000 C 
ATOM     18  C   UNL     1      48.617   7.733  15.115  0.00  0.00    +0.000 C 
ATOM     19  O   UNL     1      47.938   8.529  15.762  0.00  0.00    +0.000 OA
BRANCH  18  20
ATOM     20  C   UNL     1      49.713   7.008  15.776  0.00  0.00    +0.000 A 
ATOM     21  C   UNL     1      50.989   7.513  15.968  0.00  0.00    +0.000 A 
ATOM     22  S   UNL     1      52.012   6.475  16.857  0.00  0.00    +0.000 S 
ATOM     23  C   UNL     1      50.750   5.363  17.115  0.00  0.00    +0.000 A 
ATOM     24  N   UNL     1      50.931   4.268  17.899  0.00  0.00    +0.000 NA
ATOM     25  C   UNL     1      49.872   3.544  18.047  0.00  0.00    +0.000 A 
ATOM     26  N   UNL     1      48.659   3.796  17.452  0.00  0.00    +0.000 N 
ATOM     27  C   UNL     1      48.462   4.832  16.564  0.00  0.00    +0.000 A 
ATOM     28  O   UNL     1      47.429   4.912  15.907  0.00  0.00    +0.000 OA
ATOM     29  C   UNL     1      49.594   5.736  16.456  0.00  0.00    +0.000 A 
ATOM     30  H   UNL     1      47.891   3.153  17.556  0.00  0.00    +0.000 HD
ENDBRANCH  18  20
ENDBRANCH   1  16
TORSDOF 5
ENDMDL
MODEL 9
REMARK VINA RESULT:    -5.718      2.377      3.053
REMARK INTER + INTRA:          -8.417
REMARK INTER:                  -7.626
REMARK INTRA:                  -0.791
REMARK UNBOUND:                -1.027
REMARK  Name = 
REMARK  7 active torsions:
REMARK  status: ('A' for Active; 'I' for Inactive)
REMARK    1  A    between atoms: C_1  and  C_2
REMARK    2  A    between atoms: C_6  and  C_7
REMARK    3  A    between atoms: C_7  and  C_8
REMARK    4  A    between atoms: C_11  and  C_12
REMARK    5  A    between atoms: C_12  and  N_13
REMARK    6  A    between atoms: N_13  and  C_14
REMARK    7  A    between atoms: C_15  and  C_17
REMARK                            x       y       z     vdW  Elec       q    Type
REMARK                         _______ _______ _______ _____ _____    ______ ____
ROOT
ATOM      1  C   UNL     1      48.988   5.041  17.136  0.00  0.00    +0.000 C 
ENDROOT
BRANCH   1   5
ATOM      2  C   UNL     1      47.175   6.067  13.471  0.00  0.00    +0.000 A 
ATOM      3  C   UNL     1      46.974   4.819  14.052  0.00  0.00    +0.000 A 
ATOM      4  N   UNL     1      47.577   4.438  15.205  0.00  0.00    +0.000 NA
ATOM      5  C   UNL     1      48.388   5.364  15.785  0.00  0.00    +0.000 A 
ATOM      6  C   UNL     1      48.598   6.606  15.195  0.00  0.00    +0.000 A 
ATOM      7  N   UNL     1      48.015   6.975  14.028  0.00  0.00    +0.000 NA
BRANCH   2   8
ATOM      8  C   UNL     1      46.373   6.502  12.275  0.00  0.00    +0.000 C 
BRANCH   8  14
ATOM      9  C   UNL     1      44.334   2.784   9.824  0.00  0.00    +0.000 C 
ATOM     10  C   UNL     1      44.239   3.831  10.887  0.00  0.00    +0.000 A 
ATOM     11  C   UNL     1      43.091   3.967  11.660  0.00  0.00    +0.000 A 
ATOM     12  N   UNL     1      42.958   4.911  12.617  0.00  0.00    +0.000 NA
ATOM     13  C   UNL     1      44.030   5.719  12.784  0.00  0.00    +0.000 A 
ATOM     14  C   UNL     1      45.193   5.599  12.025  0.00  0.00    +0.000 A 
ATOM     15  N   UNL     1      45.311   4.646  11.061  0.00  0.00    +0.000 NA
ENDBRANCH   8  14
ENDBRANCH   2   8
ENDBRANCH   1   5
BRANCH   1  16
ATOM     16  N   UNL     1      48.370   5.813  18.219  0.00  0.00    +0.000 N 
ATOM     17  C   UNL     1      46.976   5.509  18.511  0.00  0.00    +0.000 C 
ATOM     18  C   UNL     1      49.122   6.845  18.791  0.00  0.00    +0.000 C 
ATOM     19  O   UNL     1      50.271   7.063  18.408  0.00  0.00    +0.000 OA
BRANCH  18  20
ATOM     20  C   UNL     1      48.560   7.641  19.893  0.00  0.00    +0.000 A 
ATOM     21  C   UNL     1      48.657   7.307  21.235  0.00  0.00    +0.000 A 
ATOM     22  S   UNL     1      47.995   8.481  22.283  0.00  0.00    +0.000 S 
ATOM     23  C   UNL     1      47.657   9.529  20.986  0.00  0.00    +0.000 A 
ATOM     24  N   UNL     1      47.159  10.774  21.203  0.00  0.00    +0.000 NA
ATOM     25  C   UNL     1      47.003  11.475  20.130  0.00  0.00    +0.000 A 
ATOM     26  N   UNL     1      47.265  11.030  18.856  0.00  0.00    +0.000 N 
ATOM     27  C   UNL     1      47.667   9.739  18.582  0.00  0.00    +0.000 A 
ATOM     28  O   UNL     1      47.705   9.321  17.429  0.00  0.00    +0.000 OA
ATOM     29  C   UNL     1      47.962   8.952  19.767  0.00  0.00    +0.000 A 
ATOM     30  H   UNL     1      47.059  11.606  18.056  0.00  0.00    +0.000 HD
ENDBRANCH  18  20
ENDBRANCH   1  16
TORSDOF 5
ENDMDL
