MODEL 1
REMARK VINA RESULT:    -8.440      0.000      0.000
REMARK INTER + INTRA:         -10.491
REMARK INTER:                  -9.921
REMARK INTRA:                  -0.571
REMARK UNBOUND:                -0.571
REMARK  Name = 
REMARK  3 active torsions:
REMARK  status: ('A' for Active; 'I' for Inactive)
REMARK    1  A    between atoms: C_4  and  C_5
REMARK    2  A    between atoms: C_5  and  N_6
REMARK    3  A    between atoms: C_15  and  C_16
REMARK                            x       y       z     vdW  Elec       q    Type
REMARK                         _______ _______ _______ _____ _____    ______ ____
ROOT
ATOM      1  F   UNL     1      46.835   3.472  14.201  0.00  0.00    +0.000 F 
ATOM      2  C   UNL     1      46.401   4.261  13.210  0.00  0.00    +0.000 A 
ATOM      3  C   UNL     1      45.439   3.793  12.329  0.00  0.00    +0.000 A 
ATOM      4  C   UNL     1      44.947   4.635  11.320  0.00  0.00    +0.000 A 
ATOM      5  C   UNL     1      45.462   5.950  11.202  0.00  0.00    +0.000 A 
ATOM      6  C   UNL     1      46.419   6.432  12.110  0.00  0.00    +0.000 A 
ATOM      7  C   UNL     1      46.885   5.558  13.111  0.00  0.00    +0.000 A 
ENDROOT
BRANCH   6   8
ATOM      8  C   UNL     1      46.908   7.876  12.175  0.00  0.00    +0.000 C 
ATOM      9  C   UNL     1      48.438   7.932  11.977  0.00  0.00    +0.000 C 
ATOM     10  C   UNL     1      49.219   8.136  13.270  0.00  0.00    +0.000 C 
ATOM     11  C   UNL     1      48.641   9.296  14.062  0.00  0.00    +0.000 C 
ATOM     12  N   UNL     1      47.281   8.959  14.475  0.00  0.00    +0.000 NA
ATOM     13  C   UNL     1      46.393   8.782  13.320  0.00  0.00    +0.000 C 
ATOM     14  H   UNL     1      46.919   9.720  15.054  0.00  0.00    +0.000 HD
ENDBRANCH   6   8
BRANCH   4  15
ATOM     15  C   UNL     1      43.818   4.144  10.439  0.00  0.00    +0.000 C 
BRANCH  15  16
ATOM     16  N   UNL     1      44.143   4.281   9.029  0.00  0.00    +0.000 N 
ATOM     17  C   UNL     1      45.110   3.439   8.490  0.00  0.00    +0.000 A 
ATOM     18  C   UNL     1      45.289   2.098   8.862  0.00  0.00    +0.000 A 
ATOM     19  N   UNL     1      46.199   1.255   8.306  0.00  0.00    +0.000 NA
ATOM     20  C   UNL     1      46.936   1.802   7.324  0.00  0.00    +0.000 A 
ATOM     21  F   UNL     1      47.843   1.034   6.708  0.00  0.00    +0.000 F 
ATOM     22  C   UNL     1      46.772   3.120   6.931  0.00  0.00    +0.000 A 
ATOM     23  N   UNL     1      45.871   3.962   7.507  0.00  0.00    +0.000 NA
ATOM     24  H   UNL     1      44.319   5.225   8.705  0.00  0.00    +0.000 HD
ENDBRANCH  15  16
ENDBRANCH   4  15
TORSDOF 3
ENDMDL
MODEL 2
REMARK VINA RESULT:    -7.121      2.336      2.992
REMARK INTER + INTRA:          -8.940
REMARK INTER:                  -8.326
REMARK INTRA:                  -0.614
REMARK UNBOUND:                -0.571
REMARK  Name = 
REMARK  3 active torsions:
REMARK  status: ('A' for Active; 'I' for Inactive)
REMARK    1  A    between atoms: C_4  and  C_5
REMARK    2  A    between atoms: C_5  and  N_6
REMARK    3  A    between atoms: C_15  and  C_16
REMARK                            x       y       z     vdW  Elec       q    Type
REMARK                         _______ _______ _______ _____ _____    ______ ____
ROOT
ATOM      1  F   UNL     1      47.737   6.487  13.944  0.00  0.00    +0.000 F 
ATOM      2  C   UNL     1      46.739   6.795  13.106  0.00  0.00    +0.000 A 
ATOM      3  C   UNL     1      46.043   5.784  12.465  0.00  0.00    +0.000 A 
ATOM      4  C   UNL     1      44.965   6.102  11.624  0.00  0.00    +0.000 A 
ATOM      5  C   UNL     1      44.619   7.462  11.424  0.00  0.00    +0.000 A 
ATOM      6  C   UNL     1      45.311   8.486  12.094  0.00  0.00    +0.000 A 
ATOM      7  C   UNL     1      46.384   8.125  12.931  0.00  0.00    +0.000 A 
ENDROOT
BRANCH   6   8
ATOM      8  C   UNL     1      44.911   9.958  12.081  0.00  0.00    +0.000 C 
ATOM      9  C   UNL     1      43.652  10.163  11.211  0.00  0.00    +0.000 C 
ATOM     10  C   UNL     1      43.946  10.747   9.835  0.00  0.00    +0.000 C 
ATOM     11  C   UNL     1      44.837  11.971   9.955  0.00  0.00    +0.000 C 
ATOM     12  N   UNL     1      46.133  11.564  10.491  0.00  0.00    +0.000 NA
ATOM     13  C   UNL     1      46.011  11.023  11.851  0.00  0.00    +0.000 C 
ATOM     14  H   UNL     1      46.746  12.382  10.518  0.00  0.00    +0.000 HD
ENDBRANCH   6   8
BRANCH   4  15
ATOM     15  C   UNL     1      44.147   4.979  11.021  0.00  0.00    +0.000 C 
BRANCH  15  16
ATOM     16  N   UNL     1      44.243   4.968   9.571  0.00  0.00    +0.000 N 
ATOM     17  C   UNL     1      44.999   3.969   8.967  0.00  0.00    +0.000 A 
ATOM     18  C   UNL     1      45.080   2.648   9.431  0.00  0.00    +0.000 A 
ATOM     19  N   UNL     1      45.777   1.654   8.820  0.00  0.00    +0.000 NA
ATOM     20  C   UNL     1      46.397   2.026   7.686  0.00  0.00    +0.000 A 
ATOM     21  F   UNL     1      47.091   1.102   7.010  0.00  0.00    +0.000 F 
ATOM     22  C   UNL     1      46.325   3.321   7.202  0.00  0.00    +0.000 A 
ATOM     23  N   UNL     1      45.639   4.315   7.831  0.00  0.00    +0.000 NA
ATOM     24  H   UNL     1      44.471   5.855   9.136  0.00  0.00    +0.000 HD
ENDBRANCH  15  16
ENDBRANCH   4  15
TORSDOF 3
ENDMDL
MODEL 3
REMARK VINA RESULT:    -7.101      2.423      3.261
REMARK INTER + INTRA:          -8.918
REMARK INTER:                  -8.235
REMARK INTRA:                  -0.683
REMARK UNBOUND:                -0.571
REMARK  Name = 
REMARK  3 active torsions:
REMARK  status: ('A' for Active; 'I' for Inactive)
REMARK    1  A    between atoms: C_4  and  C_5
REMARK    2  A    between atoms: C_5  and  N_6
REMARK    3  A    between atoms: C_15  and  C_16
REMARK                            x       y       z     vdW  Elec       q    Type
REMARK                         _______ _______ _______ _____ _____    ______ ____
ROOT
ATOM      1  F   UNL     1      46.633   9.096  12.116  0.00  0.00    +0.000 F 
ATOM      2  C   UNL     1      46.361   7.843  12.503  0.00  0.00    +0.000 A 
ATOM      3  C   UNL     1      45.321   7.149  11.907  0.00  0.00    +0.000 A 
ATOM      4  C   UNL     1      45.066   5.820  12.276  0.00  0.00    +0.000 A 
ATOM      5  C   UNL     1      45.864   5.212  13.278  0.00  0.00    +0.000 A 
ATOM      6  C   UNL     1      46.934   5.909  13.865  0.00  0.00    +0.000 A 
ATOM      7  C   UNL     1      47.160   7.240  13.465  0.00  0.00    +0.000 A 
ENDROOT
BRANCH   6   8
ATOM      8  C   UNL     1      47.953   5.294  14.820  0.00  0.00    +0.000 C 
ATOM      9  C   UNL     1      47.405   3.978  15.412  0.00  0.00    +0.000 C 
ATOM     10  C   UNL     1      46.894   4.114  16.841  0.00  0.00    +0.000 C 
ATOM     11  C   UNL     1      47.922   4.818  17.710  0.00  0.00    +0.000 C 
ATOM     12  N   UNL     1      48.097   6.185  17.225  0.00  0.00    +0.000 NA
ATOM     13  C   UNL     1      48.640   6.211  15.861  0.00  0.00    +0.000 C 
ATOM     14  H   UNL     1      48.748   6.669  17.847  0.00  0.00    +0.000 HD
ENDBRANCH   6   8
BRANCH   4  15
ATOM     15  C   UNL     1      43.998   5.043  11.535  0.00  0.00    +0.000 C 
BRANCH  15  16
ATOM     16  N   UNL     1      44.138   5.184  10.095  0.00  0.00    +0.000 N 
ATOM     17  C   UNL     1      44.836   4.203   9.400  0.00  0.00    +0.000 A 
ATOM     18  C   UNL     1      44.804   2.836   9.714  0.00  0.00    +0.000 A 
ATOM     19  N   UNL     1      45.444   1.865   9.011  0.00  0.00    +0.000 NA
ATOM     20  C   UNL     1      46.124   2.310   7.941  0.00  0.00    +0.000 A 
ATOM     21  F   UNL     1      46.768   1.415   7.181  0.00  0.00    +0.000 F 
ATOM     22  C   UNL     1      46.164   3.653   7.603  0.00  0.00    +0.000 A 
ATOM     23  N   UNL     1      45.535   4.620   8.325  0.00  0.00    +0.000 NA
ATOM     24  H   UNL     1      44.445   6.093   9.767  0.00  0.00    +0.000 HD
ENDBRANCH  15  16
ENDBRANCH   4  15
TORSDOF 3
ENDMDL
MODEL 4
REMARK VINA RESULT:    -7.032      2.485      6.905
REMARK INTER + INTRA:          -8.836
REMARK INTER:                  -8.180
REMARK INTRA:                  -0.657
REMARK UNBOUND:                -0.571
REMARK  Name = 
REMARK  3 active torsions:
REMARK  status: ('A' for Active; 'I' for Inactive)
REMARK    1  A    between atoms: C_4  and  C_5
REMARK    2  A    between atoms: C_5  and  N_6
REMARK    3  A    between atoms: C_15  and  C_16
REMARK                            x       y       z     vdW  Elec       q    Type
REMARK                         _______ _______ _______ _____ _____    ______ ____
ROOT
ATOM      1  F   UNL     1      43.673   2.395  12.342  0.00  0.00    +0.000 F 
ATOM      2  C   UNL     1      44.217   3.273  11.490  0.00  0.00    +0.000 A 
ATOM      3  C   UNL     1      44.621   4.516  11.948  0.00  0.00    +0.000 A 
ATOM      4  C   UNL     1      45.235   5.420  11.068  0.00  0.00    +0.000 A 
ATOM      5  C   UNL     1      45.412   5.054   9.710  0.00  0.00    +0.000 A 
ATOM      6  C   UNL     1      45.025   3.783   9.251  0.00  0.00    +0.000 A 
ATOM      7  C   UNL     1      44.415   2.904  10.167  0.00  0.00    +0.000 A 
ENDROOT
BRANCH   6   8
ATOM      8  C   UNL     1      45.325   3.231   7.861  0.00  0.00    +0.000 C 
ATOM      9  C   UNL     1      45.468   1.694   7.916  0.00  0.00    +0.000 C 
ATOM     10  C   UNL     1      46.912   1.210   7.873  0.00  0.00    +0.000 C 
ATOM     11  C   UNL     1      47.663   1.875   6.732  0.00  0.00    +0.000 C 
ATOM     12  N   UNL     1      47.739   3.311   6.987  0.00  0.00    +0.000 NA
ATOM     13  C   UNL     1      46.408   3.930   7.004  0.00  0.00    +0.000 C 
ATOM     14  H   UNL     1      48.292   3.745   6.244  0.00  0.00    +0.000 HD
ENDBRANCH   6   8
BRANCH   4  15
ATOM     15  C   UNL     1      45.770   6.728  11.612  0.00  0.00    +0.000 C 
BRANCH  15  16
ATOM     16  N   UNL     1      47.217   6.801  11.502  0.00  0.00    +0.000 N 
ATOM     17  C   UNL     1      47.967   6.834  12.672  0.00  0.00    +0.000 A 
ATOM     18  C   UNL     1      47.643   6.129  13.841  0.00  0.00    +0.000 A 
ATOM     19  N   UNL     1      48.395   6.118  14.972  0.00  0.00    +0.000 NA
ATOM     20  C   UNL     1      49.527   6.838  14.894  0.00  0.00    +0.000 A 
ATOM     21  F   UNL     1      50.338   6.864  15.959  0.00  0.00    +0.000 F 
ATOM     22  C   UNL     1      49.876   7.535  13.749  0.00  0.00    +0.000 A 
ATOM     23  N   UNL     1      49.105   7.556  12.627  0.00  0.00    +0.000 NA
ATOM     24  H   UNL     1      47.578   7.504  10.866  0.00  0.00    +0.000 HD
ENDBRANCH  15  16
ENDBRANCH   4  15
TORSDOF 3
ENDMDL
MODEL 5
REMARK VINA RESULT:    -6.963      2.143      2.773
REMARK INTER + INTRA:          -8.755
REMARK INTER:                  -8.141
REMARK INTRA:                  -0.614
REMARK UNBOUND:                -0.571
REMARK  Name = 
REMARK  3 active torsions:
REMARK  status: ('A' for Active; 'I' for Inactive)
REMARK    1  A    between atoms: C_4  and  C_5
REMARK    2  A    between atoms: C_5  and  N_6
REMARK    3  A    between atoms: C_15  and  C_16
REMARK                            x       y       z     vdW  Elec       q    Type
REMARK                         _______ _______ _______ _____ _____    ______ ____
ROOT
ATOM      1  F   UNL     1      43.904   9.712  11.461  0.00  0.00    +0.000 F 
ATOM      2  C   UNL     1      44.687   8.646  11.670  0.00  0.00    +0.000 A 
ATOM      3  C   UNL     1      44.291   7.401  11.210  0.00  0.00    +0.000 A 
ATOM      4  C   UNL     1      45.132   6.291  11.384  0.00  0.00    +0.000 A 
ATOM      5  C   UNL     1      46.370   6.457  12.054  0.00  0.00    +0.000 A 
ATOM      6  C   UNL     1      46.782   7.725  12.499  0.00  0.00    +0.000 A 
ATOM      7  C   UNL     1      45.911   8.814  12.302  0.00  0.00    +0.000 A 
ENDROOT
BRANCH   6   8
ATOM      8  C   UNL     1      48.160   8.040  13.073  0.00  0.00    +0.000 C 
ATOM      9  C   UNL     1      48.566   9.489  12.725  0.00  0.00    +0.000 C 
ATOM     10  C   UNL     1      49.570   9.588  11.584  0.00  0.00    +0.000 C 
ATOM     11  C   UNL     1      50.737   8.644  11.818  0.00  0.00    +0.000 C 
ATOM     12  N   UNL     1      50.247   7.267  11.790  0.00  0.00    +0.000 NA
ATOM     13  C   UNL     1      49.297   7.009  12.879  0.00  0.00    +0.000 C 
ATOM     14  H   UNL     1      51.044   6.636  11.893  0.00  0.00    +0.000 HD
ENDBRANCH   6   8
BRANCH   4  15
ATOM     15  C   UNL     1      44.732   4.963  10.777  0.00  0.00    +0.000 C 
BRANCH  15  16
ATOM     16  N   UNL     1      44.862   4.977   9.330  0.00  0.00    +0.000 N 
ATOM     17  C   UNL     1      45.494   3.902   8.713  0.00  0.00    +0.000 A 
ATOM     18  C   UNL     1      45.386   2.570   9.140  0.00  0.00    +0.000 A 
ATOM     19  N   UNL     1      45.961   1.508   8.516  0.00  0.00    +0.000 NA
ATOM     20  C   UNL     1      46.653   1.823   7.407  0.00  0.00    +0.000 A 
ATOM     21  F   UNL     1      47.234   0.832   6.719  0.00  0.00    +0.000 F 
ATOM     22  C   UNL     1      46.766   3.129   6.959  0.00  0.00    +0.000 A 
ATOM     23  N   UNL     1      46.203   4.188   7.602  0.00  0.00    +0.000 NA
ATOM     24  H   UNL     1      45.218   5.836   8.925  0.00  0.00    +0.000 HD
ENDBRANCH  15  16
ENDBRANCH   4  15
TORSDOF 3
ENDMDL
MODEL 6
REMARK VINA RESULT:    -6.831      4.209      6.056
REMARK INTER + INTRA:          -8.600
REMARK INTER:                  -7.981
REMARK INTRA:                  -0.619
REMARK UNBOUND:                -0.571
REMARK  Name = 
REMARK  3 active torsions:
REMARK  status: ('A' for Active; 'I' for Inactive)
REMARK    1  A    between atoms: C_4  and  C_5
REMARK    2  A    between atoms: C_5  and  N_6
REMARK    3  A    between atoms: C_15  and  C_16
REMARK                            x       y       z     vdW  Elec       q    Type
REMARK                         _______ _______ _______ _____ _____    ______ ____
ROOT
ATOM      1  F   UNL     1      50.340   8.613  16.390  0.00  0.00    +0.000 F 
ATOM      2  C   UNL     1      49.536   7.597  16.057  0.00  0.00    +0.000 A 
ATOM      3  C   UNL     1      48.786   7.666  14.894  0.00  0.00    +0.000 A 
ATOM      4  C   UNL     1      47.980   6.581  14.516  0.00  0.00    +0.000 A 
ATOM      5  C   UNL     1      47.924   5.435  15.349  0.00  0.00    +0.000 A 
ATOM      6  C   UNL     1      48.703   5.356  16.517  0.00  0.00    +0.000 A 
ATOM      7  C   UNL     1      49.502   6.464  16.858  0.00  0.00    +0.000 A 
ENDROOT
BRANCH   6   8
ATOM      8  C   UNL     1      48.846   4.110  17.385  0.00  0.00    +0.000 C 
ATOM      9  C   UNL     1      50.203   4.124  18.120  0.00  0.00    +0.000 C 
ATOM     10  C   UNL     1      51.247   3.202  17.501  0.00  0.00    +0.000 C 
ATOM     11  C   UNL     1      50.666   1.818  17.272  0.00  0.00    +0.000 C 
ATOM     12  N   UNL     1      49.592   1.910  16.286  0.00  0.00    +0.000 NA
ATOM     13  C   UNL     1      48.480   2.736  16.774  0.00  0.00    +0.000 C 
ATOM     14  H   UNL     1      49.242   0.969  16.096  0.00  0.00    +0.000 HD
ENDBRANCH   6   8
BRANCH   4  15
ATOM     15  C   UNL     1      47.256   6.630  13.187  0.00  0.00    +0.000 C 
BRANCH  15  16
ATOM     16  N   UNL     1      45.814   6.601  13.363  0.00  0.00    +0.000 N 
ATOM     17  C   UNL     1      45.114   5.494  12.893  0.00  0.00    +0.000 A 
ATOM     18  C   UNL     1      45.596   4.178  12.933  0.00  0.00    +0.000 A 
ATOM     19  N   UNL     1      44.900   3.086  12.521  0.00  0.00    +0.000 NA
ATOM     20  C   UNL     1      43.662   3.352  12.071  0.00  0.00    +0.000 A 
ATOM     21  F   UNL     1      42.900   2.330  11.664  0.00  0.00    +0.000 F 
ATOM     22  C   UNL     1      43.158   4.642  12.031  0.00  0.00    +0.000 A 
ATOM     23  N   UNL     1      43.871   5.732  12.428  0.00  0.00    +0.000 NA
ATOM     24  H   UNL     1      45.317   7.440  13.085  0.00  0.00    +0.000 HD
ENDBRANCH  15  16
ENDBRANCH   4  15
TORSDOF 3
ENDMDL
MODEL 7
REMARK VINA RESULT:    -6.756      4.165      7.164
REMARK INTER + INTRA:          -8.512
REMARK INTER:                  -7.849
REMARK INTRA:                  -0.663
REMARK UNBOUND:                -0.571
REMARK  Name = 
REMARK  3 active torsions:
REMARK  status: ('A' for Active; 'I' for Inactive)
REMARK    1  A    between atoms: C_4  and  C_5
REMARK    2  A    between atoms: C_5  and  N_6
REMARK    3  A    between atoms: C_15  and  C_16
REMARK                            x       y       z     vdW  Elec       q    Type
REMARK                         _______ _______ _______ _____ _____    ______ ____
ROOT
ATOM      1  F   UNL     1      49.103   6.513  13.973  0.00  0.00    +0.000 F 
ATOM      2  C   UNL     1      47.828   6.721  13.624  0.00  0.00    +0.000 A 
ATOM      3  C   UNL     1      47.437   7.965  13.155  0.00  0.00    +0.000 A 
ATOM      4  C   UNL     1      46.112   8.172  12.743  0.00  0.00    +0.000 A 
ATOM      5  C   UNL     1      45.182   7.107  12.836  0.00  0.00    +0.000 A 
ATOM      6  C   UNL     1      45.584   5.838  13.289  0.00  0.00    +0.000 A 
ATOM      7  C   UNL     1      46.924   5.670  13.690  0.00  0.00    +0.000 A 
ENDROOT
BRANCH   6   8
ATOM      8  C   UNL     1      44.710   4.588  13.266  0.00  0.00    +0.000 C 
ATOM      9  C   UNL     1      45.415   3.458  12.486  0.00  0.00    +0.000 C 
ATOM     10  C   UNL     1      44.874   3.254  11.076  0.00  0.00    +0.000 C 
ATOM     11  C   UNL     1      43.359   3.158  11.096  0.00  0.00    +0.000 C 
ATOM     12  N   UNL     1      42.808   4.434  11.546  0.00  0.00    +0.000 NA
ATOM     13  C   UNL     1      43.208   4.740  12.925  0.00  0.00    +0.000 C 
ATOM     14  H   UNL     1      41.788   4.381  11.505  0.00  0.00    +0.000 HD
ENDBRANCH   6   8
BRANCH   4  15
ATOM     15  C   UNL     1      45.732   9.503  12.129  0.00  0.00    +0.000 C 
BRANCH  15  16
ATOM     16  N   UNL     1      44.393   9.909  12.521  0.00  0.00    +0.000 N 
ATOM     17  C   UNL     1      43.571  10.488  11.560  0.00  0.00    +0.000 A 
ATOM     18  C   UNL     1      43.548  10.114  10.208  0.00  0.00    +0.000 A 
ATOM     19  N   UNL     1      42.715  10.641   9.273  0.00  0.00    +0.000 NA
ATOM     20  C   UNL     1      41.866  11.570   9.745  0.00  0.00    +0.000 A 
ATOM     21  F   UNL     1      40.996  12.126   8.893  0.00  0.00    +0.000 F 
ATOM     22  C   UNL     1      41.861  11.950  11.077  0.00  0.00    +0.000 A 
ATOM     23  N   UNL     1      42.713  11.430  12.002  0.00  0.00    +0.000 NA
ATOM     24  H   UNL     1      44.326  10.453  13.374  0.00  0.00    +0.000 HD
ENDBRANCH  15  16
ENDBRANCH   4  15
TORSDOF 3
ENDMDL
MODEL 8
REMARK VINA RESULT:    -6.409      3.849      7.299
REMARK INTER + INTRA:          -8.103
REMARK INTER:                  -7.408
REMARK INTRA:                  -0.695
REMARK UNBOUND:                -0.571
REMARK  Name = 
REMARK  3 active torsions:
REMARK  status: ('A' for Active; 'I' for Inactive)
REMARK    1  A    between atoms: C_4  and  C_5
REMARK    2  A    between atoms: C_5  and  N_6
REMARK    3  A    between atoms: C_15  and  C_16
REMARK                            x       y       z     vdW  Elec       q    Type
REMARK                         _______ _______ _______ _____ _____    ______ ____
ROOT
ATOM      1  F   UNL     1      48.831   9.057  11.360  0.00  0.00    +0.000 F 
ATOM      2  C   UNL     1      48.360   8.055  12.112  0.00  0.00    +0.000 A 
ATOM      3  C   UNL     1      48.785   7.922  13.424  0.00  0.00    +0.000 A 
ATOM      4  C   UNL     1      48.256   6.902  14.230  0.00  0.00    +0.000 A 
ATOM      5  C   UNL     1      47.309   6.003  13.679  0.00  0.00    +0.000 A 
ATOM      6  C   UNL     1      46.861   6.153  12.355  0.00  0.00    +0.000 A 
ATOM      7  C   UNL     1      47.413   7.191  11.580  0.00  0.00    +0.000 A 
ENDROOT
BRANCH   6   8
ATOM      8  C   UNL     1      45.727   5.351  11.724  0.00  0.00    +0.000 C 
ATOM      9  C   UNL     1      44.416   6.167  11.750  0.00  0.00    +0.000 C 
ATOM     10  C   UNL     1      43.445   5.734  12.842  0.00  0.00    +0.000 C 
ATOM     11  C   UNL     1      43.251   4.228  12.815  0.00  0.00    +0.000 C 
ATOM     12  N   UNL     1      44.519   3.580  13.141  0.00  0.00    +0.000 NA
ATOM     13  C   UNL     1      45.549   3.869  12.135  0.00  0.00    +0.000 C 
ATOM     14  H   UNL     1      44.369   2.570  13.175  0.00  0.00    +0.000 HD
ENDBRANCH   6   8
BRANCH   4  15
ATOM     15  C   UNL     1      48.648   6.842  15.691  0.00  0.00    +0.000 C 
BRANCH  15  16
ATOM     16  N   UNL     1      48.027   5.713  16.365  0.00  0.00    +0.000 N 
ATOM     17  C   UNL     1      48.813   4.603  16.653  0.00  0.00    +0.000 A 
ATOM     18  C   UNL     1      50.161   4.664  17.034  0.00  0.00    +0.000 A 
ATOM     19  N   UNL     1      50.923   3.588  17.363  0.00  0.00    +0.000 NA
ATOM     20  C   UNL     1      50.273   2.412  17.317  0.00  0.00    +0.000 A 
ATOM     21  F   UNL     1      50.945   1.302  17.647  0.00  0.00    +0.000 F 
ATOM     22  C   UNL     1      48.939   2.325  16.954  0.00  0.00    +0.000 A 
ATOM     23  N   UNL     1      48.190   3.407  16.606  0.00  0.00    +0.000 NA
ATOM     24  H   UNL     1      47.147   5.395  15.975  0.00  0.00    +0.000 HD
ENDBRANCH  15  16
ENDBRANCH   4  15
TORSDOF 3
ENDMDL
MODEL 9
REMARK VINA RESULT:    -6.403      5.385      7.856
REMARK INTER + INTRA:          -8.097
REMARK INTER:                  -7.595
REMARK INTRA:                  -0.502
REMARK UNBOUND:                -0.571
REMARK  Name = 
REMARK  3 active torsions:
REMARK  status: ('A' for Active; 'I' for Inactive)
REMARK    1  A    between atoms: C_4  and  C_5
REMARK    2  A    between atoms: C_5  and  N_6
REMARK    3  A    between atoms: C_15  and  C_16
REMARK                            x       y       z     vdW  Elec       q    Type
REMARK                         _______ _______ _______ _____ _____    ______ ____
ROOT
ATOM      1  F   UNL     1      47.604   9.216  13.546  0.00  0.00    +0.000 F 
ATOM      2  C   UNL     1      46.579   8.646  12.899  0.00  0.00    +0.000 A 
ATOM      3  C   UNL     1      45.621   9.442  12.292  0.00  0.00    +0.000 A 
ATOM      4  C   UNL     1      44.573   8.848  11.572  0.00  0.00    +0.000 A 
ATOM      5  C   UNL     1      44.496   7.434  11.498  0.00  0.00    +0.000 A 
ATOM      6  C   UNL     1      45.481   6.628  12.094  0.00  0.00    +0.000 A 
ATOM      7  C   UNL     1      46.519   7.263  12.804  0.00  0.00    +0.000 A 
ENDROOT
BRANCH   6   8
ATOM      8  C   UNL     1      45.585   5.115  11.929  0.00  0.00    +0.000 C 
ATOM      9  C   UNL     1      44.877   4.670  10.631  0.00  0.00    +0.000 C 
ATOM     10  C   UNL     1      43.505   4.048  10.862  0.00  0.00    +0.000 C 
ATOM     11  C   UNL     1      43.579   2.981  11.940  0.00  0.00    +0.000 C 
ATOM     12  N   UNL     1      43.941   3.611  13.207  0.00  0.00    +0.000 NA
ATOM     13  C   UNL     1      45.278   4.214  13.149  0.00  0.00    +0.000 C 
ATOM     14  H   UNL     1      43.935   2.896  13.939  0.00  0.00    +0.000 HD
ENDBRANCH   6   8
BRANCH   4  15
ATOM     15  C   UNL     1      43.601   9.734  10.823  0.00  0.00    +0.000 C 
BRANCH  15  16
ATOM     16  N   UNL     1      42.241   9.229  10.909  0.00  0.00    +0.000 N 
ATOM     17  C   UNL     1      41.192  10.133  10.790  0.00  0.00    +0.000 A 
ATOM     18  C   UNL     1      41.200  11.248   9.940  0.00  0.00    +0.000 A 
ATOM     19  N   UNL     1      40.161  12.109   9.781  0.00  0.00    +0.000 NA
ATOM     20  C   UNL     1      39.071  11.804  10.506  0.00  0.00    +0.000 A 
ATOM     21  F   UNL     1      37.993  12.591  10.394  0.00  0.00    +0.000 F 
ATOM     22  C   UNL     1      39.033  10.703  11.346  0.00  0.00    +0.000 A 
ATOM     23  N   UNL     1      40.086   9.857  11.512  0.00  0.00    +0.000 NA
ATOM     24  H   UNL     1      42.048   8.609  11.688  0.00  0.00    +0.000 HD
ENDBRANCH  15  16
ENDBRANCH   4  15
TORSDOF 3
ENDMDL
