MODEL 1
REMARK VINA RESULT:    -7.694      0.000      0.000
REMARK INTER + INTRA:         -11.519
REMARK INTER:                 -10.393
REMARK INTRA:                  -1.126
REMARK UNBOUND:                -1.126
REMARK  Name = 
REMARK  7 active torsions:
REMARK  status: ('A' for Active; 'I' for Inactive)
REMARK    1  A    between atoms: C_1  and  N_2
REMARK    2  A    between atoms: N_2  and  C_3
REMARK    3  A    between atoms: C_3  and  C_4
REMARK    4  A    between atoms: C_7  and  C_8
REMARK    5  A    between atoms: C_8  and  N_9
REMARK    6  A    between atoms: N_9  and  C_10
REMARK    7  A    between atoms: C_18  and  C_20
REMARK                            x       y       z     vdW  Elec       q    Type
REMARK                         _______ _______ _______ _____ _____    ______ ____
ROOT
ATOM      1  C   UNL     1      47.210   6.214  12.568  0.00  0.00    +0.000 C 
ENDROOT
BRANCH   1   2
ATOM      2  C   UNL     1      47.510   5.830  13.979  0.00  0.00    +0.000 A 
ATOM      3  C   UNL     1      48.396   6.598  14.750  0.00  0.00    +0.000 A 
ATOM      4  C   UNL     1      48.769   6.165  16.020  0.00  0.00    +0.000 A 
ATOM      5  C   UNL     1      48.229   4.982  16.537  0.00  0.00    +0.000 A 
ATOM      6  C   UNL     1      47.315   4.243  15.765  0.00  0.00    +0.000 A 
ATOM      7  C   UNL     1      46.961   4.660  14.493  0.00  0.00    +0.000 A 
BRANCH   5   8
ATOM      8  C   UNL     1      48.622   4.432  17.881  0.00  0.00    +0.000 C 
BRANCH   8   9
ATOM      9  N   UNL     1      50.039   4.618  18.178  0.00  0.00    +0.000 NA
ATOM     10  H   UNL     1      50.173   4.558  19.187  0.00  0.00    +0.000 HD
BRANCH   9  11
ATOM     11  C   UNL     1      50.879   3.601  17.513  0.00  0.00    +0.000 C 
ATOM     12  C   UNL     1      52.174   3.469  18.330  0.00  0.00    +0.000 C 
ATOM     13  C   UNL     1      53.034   2.310  17.831  0.00  0.00    +0.000 C 
ATOM     14  C   UNL     1      52.231   1.015  17.754  0.00  0.00    +0.000 C 
ATOM     15  N   UNL     1      51.077   1.172  16.873  0.00  0.00    +0.000 NA
ATOM     16  C   UNL     1      50.186   2.219  17.372  0.00  0.00    +0.000 C 
ATOM     17  H   UNL     1      50.563   0.292  16.825  0.00  0.00    +0.000 HD
ENDBRANCH   9  11
ENDBRANCH   8   9
ENDBRANCH   5   8
ENDBRANCH   1   2
BRANCH   1  19
ATOM     18  C   UNL     1      46.454   8.621  12.362  0.00  0.00    +0.000 C 
ATOM     19  N   UNL     1      46.140   7.204  12.371  0.00  0.00    +0.000 N 
ATOM     20  C   UNL     1      44.937   6.871  11.698  0.00  0.00    +0.000 C 
ATOM     21  O   UNL     1      44.216   7.732  11.228  0.00  0.00    +0.000 OA
BRANCH  20  22
ATOM     22  C   UNL     1      44.571   5.449  11.617  0.00  0.00    +0.000 A 
ATOM     23  C   UNL     1      43.882   4.766  12.602  0.00  0.00    +0.000 A 
ATOM     24  S   UNL     1      43.524   3.150  12.216  0.00  0.00    +0.000 S 
ATOM     25  C   UNL     1      44.223   3.319  10.677  0.00  0.00    +0.000 A 
ATOM     26  N   UNL     1      44.178   2.304   9.776  0.00  0.00    +0.000 NA
ATOM     27  C   UNL     1      44.697   2.599   8.630  0.00  0.00    +0.000 A 
ATOM     28  N   UNL     1      45.309   3.788   8.326  0.00  0.00    +0.000 N 
ATOM     29  C   UNL     1      45.490   4.794   9.249  0.00  0.00    +0.000 A 
ATOM     30  O   UNL     1      46.241   5.739   9.003  0.00  0.00    +0.000 OA
ATOM     31  C   UNL     1      44.801   4.569  10.499  0.00  0.00    +0.000 A 
ATOM     32  H   UNL     1      45.733   3.938   7.422  0.00  0.00    +0.000 HD
ENDBRANCH  20  22
ENDBRANCH   1  19
TORSDOF 6
ENDMDL
MODEL 2
REMARK VINA RESULT:    -7.379      2.206      3.582
REMARK INTER + INTRA:         -11.094
REMARK INTER:                  -9.835
REMARK INTRA:                  -1.259
REMARK UNBOUND:                -1.126
REMARK  Name = 
REMARK  7 active torsions:
REMARK  status: ('A' for Active; 'I' for Inactive)
REMARK    1  A    between atoms: C_1  and  N_2
REMARK    2  A    between atoms: N_2  and  C_3
REMARK    3  A    between atoms: C_3  and  C_4
REMARK    4  A    between atoms: C_7  and  C_8
REMARK    5  A    between atoms: C_8  and  N_9
REMARK    6  A    between atoms: N_9  and  C_10
REMARK    7  A    between atoms: C_18  and  C_20
REMARK                            x       y       z     vdW  Elec       q    Type
REMARK                         _______ _______ _______ _____ _____    ______ ____
ROOT
ATOM      1  C   UNL     1      47.256   6.300  12.398  0.00  0.00    +0.000 C 
ENDROOT
BRANCH   1   2
ATOM      2  C   UNL     1      47.551   5.793  13.770  0.00  0.00    +0.000 A 
ATOM      3  C   UNL     1      46.960   4.605  14.231  0.00  0.00    +0.000 A 
ATOM      4  C   UNL     1      47.140   4.205  15.552  0.00  0.00    +0.000 A 
ATOM      5  C   UNL     1      47.940   4.971  16.407  0.00  0.00    +0.000 A 
ATOM      6  C   UNL     1      48.553   6.139  15.921  0.00  0.00    +0.000 A 
ATOM      7  C   UNL     1      48.357   6.551  14.614  0.00  0.00    +0.000 A 
BRANCH   5   8
ATOM      8  C   UNL     1      48.139   4.623  17.858  0.00  0.00    +0.000 C 
BRANCH   8   9
ATOM      9  N   UNL     1      47.141   5.233  18.730  0.00  0.00    +0.000 NA
ATOM     10  H   UNL     1      46.681   4.498  19.266  0.00  0.00    +0.000 HD
BRANCH   9  11
ATOM     11  C   UNL     1      47.746   6.209  19.660  0.00  0.00    +0.000 C 
ATOM     12  C   UNL     1      47.396   7.614  19.143  0.00  0.00    +0.000 C 
ATOM     13  C   UNL     1      47.818   8.695  20.134  0.00  0.00    +0.000 C 
ATOM     14  C   UNL     1      47.276   8.412  21.532  0.00  0.00    +0.000 C 
ATOM     15  N   UNL     1      47.736   7.112  22.012  0.00  0.00    +0.000 NA
ATOM     16  C   UNL     1      47.274   6.041  21.129  0.00  0.00    +0.000 C 
ATOM     17  H   UNL     1      47.375   6.949  22.952  0.00  0.00    +0.000 HD
ENDBRANCH   9  11
ENDBRANCH   8   9
ENDBRANCH   5   8
ENDBRANCH   1   2
BRANCH   1  19
ATOM     18  C   UNL     1      46.483   8.706  12.247  0.00  0.00    +0.000 C 
ATOM     19  N   UNL     1      46.173   7.288  12.283  0.00  0.00    +0.000 N 
ATOM     20  C   UNL     1      44.921   6.953  11.706  0.00  0.00    +0.000 C 
ATOM     21  O   UNL     1      44.165   7.812  11.292  0.00  0.00    +0.000 OA
BRANCH  20  22
ATOM     22  C   UNL     1      44.552   5.530  11.657  0.00  0.00    +0.000 A 
ATOM     23  C   UNL     1      43.874   4.868  12.663  0.00  0.00    +0.000 A 
ATOM     24  S   UNL     1      43.509   3.245  12.312  0.00  0.00    +0.000 S 
ATOM     25  C   UNL     1      44.189   3.383  10.762  0.00  0.00    +0.000 A 
ATOM     26  N   UNL     1      44.131   2.351   9.882  0.00  0.00    +0.000 NA
ATOM     27  C   UNL     1      44.637   2.623   8.723  0.00  0.00    +0.000 A 
ATOM     28  N   UNL     1      45.248   3.805   8.389  0.00  0.00    +0.000 N 
ATOM     29  C   UNL     1      45.441   4.828   9.290  0.00  0.00    +0.000 A 
ATOM     30  O   UNL     1      46.190   5.767   9.018  0.00  0.00    +0.000 OA
ATOM     31  C   UNL     1      44.767   4.628  10.554  0.00  0.00    +0.000 A 
ATOM     32  H   UNL     1      45.661   3.937   7.478  0.00  0.00    +0.000 HD
ENDBRANCH  20  22
ENDBRANCH   1  19
TORSDOF 6
ENDMDL
MODEL 3
REMARK VINA RESULT:    -7.250      3.636      8.498
REMARK INTER + INTRA:         -10.920
REMARK INTER:                  -9.738
REMARK INTRA:                  -1.182
REMARK UNBOUND:                -1.126
REMARK  Name = 
REMARK  7 active torsions:
REMARK  status: ('A' for Active; 'I' for Inactive)
REMARK    1  A    between atoms: C_1  and  N_2
REMARK    2  A    between atoms: N_2  and  C_3
REMARK    3  A    between atoms: C_3  and  C_4
REMARK    4  A    between atoms: C_7  and  C_8
REMARK    5  A    between atoms: C_8  and  N_9
REMARK    6  A    between atoms: N_9  and  C_10
REMARK    7  A    between atoms: C_18  and  C_20
REMARK                            x       y       z     vdW  Elec       q    Type
REMARK                         _______ _______ _______ _____ _____    ______ ____
ROOT
ATOM      1  C   UNL     1      47.717   7.422  14.011  0.00  0.00    +0.000 C 
ENDROOT
BRANCH   1   2
ATOM      2  C   UNL     1      46.957   6.521  13.095  0.00  0.00    +0.000 A 
ATOM      3  C   UNL     1      46.733   6.891  11.759  0.00  0.00    +0.000 A 
ATOM      4  C   UNL     1      45.918   6.107  10.947  0.00  0.00    +0.000 A 
ATOM      5  C   UNL     1      45.355   4.931  11.456  0.00  0.00    +0.000 A 
ATOM      6  C   UNL     1      45.618   4.556  12.785  0.00  0.00    +0.000 A 
ATOM      7  C   UNL     1      46.409   5.347  13.601  0.00  0.00    +0.000 A 
BRANCH   5   8
ATOM      8  C   UNL     1      44.429   4.062  10.650  0.00  0.00    +0.000 C 
BRANCH   8   9
ATOM      9  N   UNL     1      44.386   4.434   9.239  0.00  0.00    +0.000 NA
ATOM     10  H   UNL     1      44.988   5.244   9.095  0.00  0.00    +0.000 HD
BRANCH   9  11
ATOM     11  C   UNL     1      44.836   3.331   8.365  0.00  0.00    +0.000 C 
ATOM     12  C   UNL     1      45.977   3.874   7.490  0.00  0.00    +0.000 C 
ATOM     13  C   UNL     1      46.637   2.763   6.678  0.00  0.00    +0.000 C 
ATOM     14  C   UNL     1      47.059   1.599   7.570  0.00  0.00    +0.000 C 
ATOM     15  N   UNL     1      45.911   1.053   8.289  0.00  0.00    +0.000 NA
ATOM     16  C   UNL     1      45.305   2.073   9.144  0.00  0.00    +0.000 C 
ATOM     17  H   UNL     1      46.212   0.268   8.867  0.00  0.00    +0.000 HD
ENDBRANCH   9  11
ENDBRANCH   8   9
ENDBRANCH   5   8
ENDBRANCH   1   2
BRANCH   1  19
ATOM     18  C   UNL     1      50.037   7.778  13.063  0.00  0.00    +0.000 C 
ATOM     19  N   UNL     1      49.170   7.212  14.081  0.00  0.00    +0.000 N 
ATOM     20  C   UNL     1      49.822   6.938  15.311  0.00  0.00    +0.000 C 
ATOM     21  O   UNL     1      51.020   7.106  15.444  0.00  0.00    +0.000 OA
BRANCH  20  22
ATOM     22  C   UNL     1      49.004   6.408  16.413  0.00  0.00    +0.000 A 
ATOM     23  C   UNL     1      48.625   5.084  16.533  0.00  0.00    +0.000 A 
ATOM     24  S   UNL     1      47.746   4.732  17.945  0.00  0.00    +0.000 S 
ATOM     25  C   UNL     1      47.895   6.334  18.488  0.00  0.00    +0.000 A 
ATOM     26  N   UNL     1      47.425   6.703  19.707  0.00  0.00    +0.000 NA
ATOM     27  C   UNL     1      47.663   7.937  20.008  0.00  0.00    +0.000 A 
ATOM     28  N   UNL     1      48.270   8.846  19.179  0.00  0.00    +0.000 N 
ATOM     29  C   UNL     1      48.645   8.548  17.889  0.00  0.00    +0.000 A 
ATOM     30  O   UNL     1      48.970   9.444  17.110  0.00  0.00    +0.000 OA
ATOM     31  C   UNL     1      48.532   7.145  17.557  0.00  0.00    +0.000 A 
ATOM     32  H   UNL     1      48.387   9.808  19.461  0.00  0.00    +0.000 HD
ENDBRANCH  20  22
ENDBRANCH   1  19
TORSDOF 6
ENDMDL
MODEL 4
REMARK VINA RESULT:    -7.016      3.697      8.202
REMARK INTER + INTRA:         -10.603
REMARK INTER:                  -9.458
REMARK INTRA:                  -1.145
REMARK UNBOUND:                -1.126
REMARK  Name = 
REMARK  7 active torsions:
REMARK  status: ('A' for Active; 'I' for Inactive)
REMARK    1  A    between atoms: C_1  and  N_2
REMARK    2  A    between atoms: N_2  and  C_3
REMARK    3  A    between atoms: C_3  and  C_4
REMARK    4  A    between atoms: C_7  and  C_8
REMARK    5  A    between atoms: C_8  and  N_9
REMARK    6  A    between atoms: N_9  and  C_10
REMARK    7  A    between atoms: C_18  and  C_20
REMARK                            x       y       z     vdW  Elec       q    Type
REMARK                         _______ _______ _______ _____ _____    ______ ____
ROOT
ATOM      1  C   UNL     1      47.449   7.807  13.578  0.00  0.00    +0.000 C 
ENDROOT
BRANCH   1   2
ATOM      2  C   UNL     1      46.580   6.629  13.288  0.00  0.00    +0.000 A 
ATOM      3  C   UNL     1      47.000   5.334  13.633  0.00  0.00    +0.000 A 
ATOM      4  C   UNL     1      46.243   4.231  13.248  0.00  0.00    +0.000 A 
ATOM      5  C   UNL     1      45.045   4.420  12.549  0.00  0.00    +0.000 A 
ATOM      6  C   UNL     1      44.620   5.725  12.243  0.00  0.00    +0.000 A 
ATOM      7  C   UNL     1      45.383   6.822  12.605  0.00  0.00    +0.000 A 
BRANCH   5   8
ATOM      8  C   UNL     1      44.202   3.273  12.062  0.00  0.00    +0.000 C 
BRANCH   8   9
ATOM      9  N   UNL     1      43.874   3.371  10.644  0.00  0.00    +0.000 NA
ATOM     10  H   UNL     1      43.370   4.243  10.484  0.00  0.00    +0.000 HD
BRANCH   9  11
ATOM     11  C   UNL     1      45.082   3.343   9.795  0.00  0.00    +0.000 C 
ATOM     12  C   UNL     1      45.103   1.989   9.069  0.00  0.00    +0.000 C 
ATOM     13  C   UNL     1      46.215   1.930   8.026  0.00  0.00    +0.000 C 
ATOM     14  C   UNL     1      46.153   3.125   7.079  0.00  0.00    +0.000 C 
ATOM     15  N   UNL     1      46.253   4.379   7.819  0.00  0.00    +0.000 NA
ATOM     16  C   UNL     1      45.149   4.507   8.771  0.00  0.00    +0.000 C 
ATOM     17  H   UNL     1      46.224   5.164   7.167  0.00  0.00    +0.000 HD
ENDBRANCH   9  11
ENDBRANCH   8   9
ENDBRANCH   5   8
ENDBRANCH   1   2
BRANCH   1  19
ATOM     18  C   UNL     1      49.556   7.320  12.262  0.00  0.00    +0.000 C 
ATOM     19  N   UNL     1      48.901   7.578  13.532  0.00  0.00    +0.000 N 
ATOM     20  C   UNL     1      49.763   8.082  14.538  0.00  0.00    +0.000 C 
ATOM     21  O   UNL     1      50.959   8.206  14.344  0.00  0.00    +0.000 OA
BRANCH  20  22
ATOM     22  C   UNL     1      49.169   8.419  15.841  0.00  0.00    +0.000 A 
ATOM     23  C   UNL     1      48.836   9.701  16.236  0.00  0.00    +0.000 A 
ATOM     24  S   UNL     1      48.094   9.794  17.762  0.00  0.00    +0.000 S 
ATOM     25  C   UNL     1      48.128   8.105  17.929  0.00  0.00    +0.000 A 
ATOM     26  N   UNL     1      47.558   7.498  19.002  0.00  0.00    +0.000 NA
ATOM     27  C   UNL     1      47.609   6.207  18.962  0.00  0.00    +0.000 A 
ATOM     28  N   UNL     1      48.232   5.474  17.983  0.00  0.00    +0.000 N 
ATOM     29  C   UNL     1      48.932   6.052  16.948  0.00  0.00    +0.000 A 
ATOM     30  O   UNL     1      49.662   5.368  16.231  0.00  0.00    +0.000 OA
ATOM     31  C   UNL     1      48.780   7.487  16.870  0.00  0.00    +0.000 A 
ATOM     32  H   UNL     1      48.272   4.467  18.035  0.00  0.00    +0.000 HD
ENDBRANCH  20  22
ENDBRANCH   1  19
TORSDOF 6
ENDMDL
MODEL 5
REMARK VINA RESULT:    -6.965      3.805      8.324
REMARK INTER + INTRA:         -10.534
REMARK INTER:                  -9.266
REMARK INTRA:                  -1.268
REMARK UNBOUND:                -1.126
REMARK  Name = 
REMARK  7 active torsions:
REMARK  status: ('A' for Active; 'I' for Inactive)
REMARK    1  A    between atoms: C_1  and  N_2
REMARK    2  A    between atoms: N_2  and  C_3
REMARK    3  A    between atoms: C_3  and  C_4
REMARK    4  A    between atoms: C_7  and  C_8
REMARK    5  A    between atoms: C_8  and  N_9
REMARK    6  A    between atoms: N_9  and  C_10
REMARK    7  A    between atoms: C_18  and  C_20
REMARK                            x       y       z     vdW  Elec       q    Type
REMARK                         _______ _______ _______ _____ _____    ______ ____
ROOT
ATOM      1  C   UNL     1      47.922   8.272  13.974  0.00  0.00    +0.000 C 
ENDROOT
BRANCH   1   2
ATOM      2  C   UNL     1      47.097   7.308  13.188  0.00  0.00    +0.000 A 
ATOM      3  C   UNL     1      46.318   7.754  12.109  0.00  0.00    +0.000 A 
ATOM      4  C   UNL     1      45.456   6.873  11.462  0.00  0.00    +0.000 A 
ATOM      5  C   UNL     1      45.397   5.535  11.867  0.00  0.00    +0.000 A 
ATOM      6  C   UNL     1      46.211   5.096  12.926  0.00  0.00    +0.000 A 
ATOM      7  C   UNL     1      47.051   5.976  13.586  0.00  0.00    +0.000 A 
BRANCH   5   8
ATOM      8  C   UNL     1      44.456   4.541  11.243  0.00  0.00    +0.000 C 
BRANCH   8   9
ATOM      9  N   UNL     1      44.133   4.858   9.855  0.00  0.00    +0.000 NA
ATOM     10  H   UNL     1      44.672   5.676   9.573  0.00  0.00    +0.000 HD
BRANCH   9  11
ATOM     11  C   UNL     1      44.438   3.733   8.948  0.00  0.00    +0.000 C 
ATOM     12  C   UNL     1      45.651   4.144   8.099  0.00  0.00    +0.000 C 
ATOM     13  C   UNL     1      46.164   2.980   7.255  0.00  0.00    +0.000 C 
ATOM     14  C   UNL     1      46.414   1.741   8.110  0.00  0.00    +0.000 C 
ATOM     15  N   UNL     1      45.195   1.334   8.802  0.00  0.00    +0.000 NA
ATOM     16  C   UNL     1      44.724   2.399   9.688  0.00  0.00    +0.000 C 
ATOM     17  H   UNL     1      45.381   0.497   9.356  0.00  0.00    +0.000 HD
ENDBRANCH   9  11
ENDBRANCH   8   9
ENDBRANCH   5   8
ENDBRANCH   1   2
BRANCH   1  19
ATOM     18  C   UNL     1      50.152   7.938  12.823  0.00  0.00    +0.000 C 
ATOM     19  N   UNL     1      49.365   7.998  14.042  0.00  0.00    +0.000 N 
ATOM     20  C   UNL     1      50.121   8.287  15.207  0.00  0.00    +0.000 C 
ATOM     21  O   UNL     1      51.333   8.396  15.164  0.00  0.00    +0.000 OA
BRANCH  20  22
ATOM     22  C   UNL     1      49.393   8.415  16.478  0.00  0.00    +0.000 A 
ATOM     23  C   UNL     1      49.100   9.621  17.088  0.00  0.00    +0.000 A 
ATOM     24  S   UNL     1      48.181   9.482  18.511  0.00  0.00    +0.000 S 
ATOM     25  C   UNL     1      48.080   7.797  18.332  0.00  0.00    +0.000 A 
ATOM     26  N   UNL     1      47.341   7.048  19.190  0.00  0.00    +0.000 NA
ATOM     27  C   UNL     1      47.310   5.790  18.893  0.00  0.00    +0.000 A 
ATOM     28  N   UNL     1      47.999   5.208  17.859  0.00  0.00    +0.000 N 
ATOM     29  C   UNL     1      48.860   5.910  17.046  0.00  0.00    +0.000 A 
ATOM     30  O   UNL     1      49.626   5.315  16.287  0.00  0.00    +0.000 OA
ATOM     31  C   UNL     1      48.817   7.341  17.246  0.00  0.00    +0.000 A 
ATOM     32  H   UNL     1      47.965   4.211  17.709  0.00  0.00    +0.000 HD
ENDBRANCH  20  22
ENDBRANCH   1  19
TORSDOF 6
ENDMDL
MODEL 6
REMARK VINA RESULT:    -6.874      3.114      8.383
REMARK INTER + INTRA:         -10.412
REMARK INTER:                  -9.229
REMARK INTRA:                  -1.182
REMARK UNBOUND:                -1.126
REMARK  Name = 
REMARK  7 active torsions:
REMARK  status: ('A' for Active; 'I' for Inactive)
REMARK    1  A    between atoms: C_1  and  N_2
REMARK    2  A    between atoms: N_2  and  C_3
REMARK    3  A    between atoms: C_3  and  C_4
REMARK    4  A    between atoms: C_7  and  C_8
REMARK    5  A    between atoms: C_8  and  N_9
REMARK    6  A    between atoms: N_9  and  C_10
REMARK    7  A    between atoms: C_18  and  C_20
REMARK                            x       y       z     vdW  Elec       q    Type
REMARK                         _______ _______ _______ _____ _____    ______ ____
ROOT
ATOM      1  C   UNL     1      49.422   6.706  15.127  0.00  0.00    +0.000 C 
ENDROOT
BRANCH   1   2
ATOM      2  C   UNL     1      48.419   6.640  14.024  0.00  0.00    +0.000 A 
ATOM      3  C   UNL     1      47.361   5.718  14.080  0.00  0.00    +0.000 A 
ATOM      4  C   UNL     1      46.503   5.576  12.993  0.00  0.00    +0.000 A 
ATOM      5  C   UNL     1      46.678   6.379  11.861  0.00  0.00    +0.000 A 
ATOM      6  C   UNL     1      47.720   7.323  11.835  0.00  0.00    +0.000 A 
ATOM      7  C   UNL     1      48.588   7.450  12.906  0.00  0.00    +0.000 A 
BRANCH   5   8
ATOM      8  C   UNL     1      45.817   6.246  10.633  0.00  0.00    +0.000 C 
BRANCH   8   9
ATOM      9  N   UNL     1      44.552   5.567  10.897  0.00  0.00    +0.000 NA
ATOM     10  H   UNL     1      43.792   6.239  10.793  0.00  0.00    +0.000 HD
BRANCH   9  11
ATOM     11  C   UNL     1      44.333   4.434   9.976  0.00  0.00    +0.000 C 
ATOM     12  C   UNL     1      45.399   4.526   8.872  0.00  0.00    +0.000 C 
ATOM     13  C   UNL     1      45.376   3.297   7.969  0.00  0.00    +0.000 C 
ATOM     14  C   UNL     1      45.455   2.007   8.781  0.00  0.00    +0.000 C 
ATOM     15  N   UNL     1      44.350   1.927   9.733  0.00  0.00    +0.000 NA
ATOM     16  C   UNL     1      44.394   3.048  10.671  0.00  0.00    +0.000 C 
ATOM     17  H   UNL     1      44.414   1.052  10.255  0.00  0.00    +0.000 HD
ENDBRANCH   9  11
ENDBRANCH   8   9
ENDBRANCH   5   8
ENDBRANCH   1   2
BRANCH   1  19
ATOM     18  C   UNL     1      48.475   8.618  16.489  0.00  0.00    +0.000 C 
ATOM     19  N   UNL     1      48.952   7.249  16.410  0.00  0.00    +0.000 N 
ATOM     20  C   UNL     1      48.463   6.403  17.438  0.00  0.00    +0.000 C 
ATOM     21  O   UNL     1      47.764   6.837  18.336  0.00  0.00    +0.000 OA
BRANCH  20  22
ATOM     22  C   UNL     1      48.858   4.987  17.403  0.00  0.00    +0.000 A 
ATOM     23  C   UNL     1      48.028   3.958  16.997  0.00  0.00    +0.000 A 
ATOM     24  S   UNL     1      48.765   2.427  16.982  0.00  0.00    +0.000 S 
ATOM     25  C   UNL     1      50.254   3.092  17.457  0.00  0.00    +0.000 A 
ATOM     26  N   UNL     1      51.365   2.317  17.553  0.00  0.00    +0.000 NA
ATOM     27  C   UNL     1      52.434   2.972  17.867  0.00  0.00    +0.000 A 
ATOM     28  N   UNL     1      52.480   4.313  18.154  0.00  0.00    +0.000 N 
ATOM     29  C   UNL     1      51.356   5.108  18.194  0.00  0.00    +0.000 A 
ATOM     30  O   UNL     1      51.409   6.240  18.677  0.00  0.00    +0.000 OA
ATOM     31  C   UNL     1      50.161   4.454  17.710  0.00  0.00    +0.000 A 
ATOM     32  H   UNL     1      53.342   4.755  18.434  0.00  0.00    +0.000 HD
ENDBRANCH  20  22
ENDBRANCH   1  19
TORSDOF 6
ENDMDL
MODEL 7
REMARK VINA RESULT:    -6.568      3.363      8.169
REMARK INTER + INTRA:          -9.998
REMARK INTER:                  -8.859
REMARK INTRA:                  -1.138
REMARK UNBOUND:                -1.126
REMARK  Name = 
REMARK  7 active torsions:
REMARK  status: ('A' for Active; 'I' for Inactive)
REMARK    1  A    between atoms: C_1  and  N_2
REMARK    2  A    between atoms: N_2  and  C_3
REMARK    3  A    between atoms: C_3  and  C_4
REMARK    4  A    between atoms: C_7  and  C_8
REMARK    5  A    between atoms: C_8  and  N_9
REMARK    6  A    between atoms: N_9  and  C_10
REMARK    7  A    between atoms: C_18  and  C_20
REMARK                            x       y       z     vdW  Elec       q    Type
REMARK                         _______ _______ _______ _____ _____    ______ ____
ROOT
ATOM      1  C   UNL     1      49.461   8.158  15.966  0.00  0.00    +0.000 C 
ENDROOT
BRANCH   1   2
ATOM      2  C   UNL     1      48.451   7.830  14.917  0.00  0.00    +0.000 A 
ATOM      3  C   UNL     1      48.401   6.543  14.357  0.00  0.00    +0.000 A 
ATOM      4  C   UNL     1      47.543   6.279  13.293  0.00  0.00    +0.000 A 
ATOM      5  C   UNL     1      46.705   7.291  12.810  0.00  0.00    +0.000 A 
ATOM      6  C   UNL     1      46.740   8.564  13.406  0.00  0.00    +0.000 A 
ATOM      7  C   UNL     1      47.610   8.834  14.449  0.00  0.00    +0.000 A 
BRANCH   5   8
ATOM      8  C   UNL     1      45.787   7.089  11.635  0.00  0.00    +0.000 C 
BRANCH   8   9
ATOM      9  N   UNL     1      44.405   6.833  12.031  0.00  0.00    +0.000 NA
ATOM     10  H   UNL     1      43.852   7.669  11.847  0.00  0.00    +0.000 HD
BRANCH   9  11
ATOM     11  C   UNL     1      43.824   5.691  11.296  0.00  0.00    +0.000 C 
ATOM     12  C   UNL     1      44.903   5.167  10.333  0.00  0.00    +0.000 C 
ATOM     13  C   UNL     1      44.466   3.871   9.656  0.00  0.00    +0.000 C 
ATOM     14  C   UNL     1      44.012   2.834  10.680  0.00  0.00    +0.000 C 
ATOM     15  N   UNL     1      42.910   3.351  11.487  0.00  0.00    +0.000 NA
ATOM     16  C   UNL     1      43.323   4.549  12.218  0.00  0.00    +0.000 C 
ATOM     17  H   UNL     1      42.613   2.638  12.154  0.00  0.00    +0.000 HD
ENDBRANCH   9  11
ENDBRANCH   8   9
ENDBRANCH   5   8
ENDBRANCH   1   2
BRANCH   1  19
ATOM     18  C   UNL     1      47.952   9.214  17.703  0.00  0.00    +0.000 C 
ATOM     19  N   UNL     1      48.968   8.239  17.349  0.00  0.00    +0.000 N 
ATOM     20  C   UNL     1      49.036   7.127  18.226  0.00  0.00    +0.000 C 
ATOM     21  O   UNL     1      48.339   7.062  19.222  0.00  0.00    +0.000 OA
BRANCH  20  22
ATOM     22  C   UNL     1      50.006   6.067  17.911  0.00  0.00    +0.000 A 
ATOM     23  C   UNL     1      51.375   6.199  18.049  0.00  0.00    +0.000 A 
ATOM     24  S   UNL     1      52.256   4.792  17.686  0.00  0.00    +0.000 S 
ATOM     25  C   UNL     1      50.827   3.923  17.389  0.00  0.00    +0.000 A 
ATOM     26  N   UNL     1      50.864   2.596  17.106  0.00  0.00    +0.000 NA
ATOM     27  C   UNL     1      49.698   2.058  16.963  0.00  0.00    +0.000 A 
ATOM     28  N   UNL     1      48.506   2.737  17.017  0.00  0.00    +0.000 N 
ATOM     29  C   UNL     1      48.430   4.102  17.174  0.00  0.00    +0.000 A 
ATOM     30  O   UNL     1      47.367   4.694  16.986  0.00  0.00    +0.000 OA
ATOM     31  C   UNL     1      49.698   4.726  17.481  0.00  0.00    +0.000 A 
ATOM     32  H   UNL     1      47.631   2.262  16.854  0.00  0.00    +0.000 HD
ENDBRANCH  20  22
ENDBRANCH   1  19
TORSDOF 6
ENDMDL
MODEL 8
REMARK VINA RESULT:    -6.517      3.753      8.586
REMARK INTER + INTRA:          -9.930
REMARK INTER:                  -8.703
REMARK INTRA:                  -1.226
REMARK UNBOUND:                -1.126
REMARK  Name = 
REMARK  7 active torsions:
REMARK  status: ('A' for Active; 'I' for Inactive)
REMARK    1  A    between atoms: C_1  and  N_2
REMARK    2  A    between atoms: N_2  and  C_3
REMARK    3  A    between atoms: C_3  and  C_4
REMARK    4  A    between atoms: C_7  and  C_8
REMARK    5  A    between atoms: C_8  and  N_9
REMARK    6  A    between atoms: N_9  and  C_10
REMARK    7  A    between atoms: C_18  and  C_20
REMARK                            x       y       z     vdW  Elec       q    Type
REMARK                         _______ _______ _______ _____ _____    ______ ____
ROOT
ATOM      1  C   UNL     1      48.840   8.269  15.025  0.00  0.00    +0.000 C 
ENDROOT
BRANCH   1   2
ATOM      2  C   UNL     1      47.846   7.759  14.036  0.00  0.00    +0.000 A 
ATOM      3  C   UNL     1      47.984   6.473  13.489  0.00  0.00    +0.000 A 
ATOM      4  C   UNL     1      47.128   6.052  12.476  0.00  0.00    +0.000 A 
ATOM      5  C   UNL     1      46.107   6.900  12.031  0.00  0.00    +0.000 A 
ATOM      6  C   UNL     1      45.959   8.171  12.615  0.00  0.00    +0.000 A 
ATOM      7  C   UNL     1      46.825   8.600  13.607  0.00  0.00    +0.000 A 
BRANCH   5   8
ATOM      8  C   UNL     1      45.175   6.528  10.910  0.00  0.00    +0.000 C 
BRANCH   8   9
ATOM      9  N   UNL     1      44.151   5.571  11.317  0.00  0.00    +0.000 NA
ATOM     10  H   UNL     1      43.265   6.065  11.423  0.00  0.00    +0.000 HD
BRANCH   9  11
ATOM     11  C   UNL     1      43.989   4.485  10.329  0.00  0.00    +0.000 C 
ATOM     12  C   UNL     1      45.092   4.656   9.273  0.00  0.00    +0.000 C 
ATOM     13  C   UNL     1      45.127   3.476   8.305  0.00  0.00    +0.000 C 
ATOM     14  C   UNL     1      45.203   2.147   9.051  0.00  0.00    +0.000 C 
ATOM     15  N   UNL     1      44.067   1.994   9.955  0.00  0.00    +0.000 NA
ATOM     16  C   UNL     1      44.053   3.065  10.952  0.00  0.00    +0.000 C 
ATOM     17  H   UNL     1      44.129   1.095  10.432  0.00  0.00    +0.000 HD
ENDBRANCH   9  11
ENDBRANCH   8   9
ENDBRANCH   5   8
ENDBRANCH   1   2
BRANCH   1  19
ATOM     18  C   UNL     1      51.282   8.064  14.393  0.00  0.00    +0.000 C 
ATOM     19  N   UNL     1      50.122   7.552  15.098  0.00  0.00    +0.000 N 
ATOM     20  C   UNL     1      50.434   6.699  16.187  0.00  0.00    +0.000 C 
ATOM     21  O   UNL     1      51.583   6.386  16.437  0.00  0.00    +0.000 OA
BRANCH  20  22
ATOM     22  C   UNL     1      49.315   6.176  16.987  0.00  0.00    +0.000 A 
ATOM     23  C   UNL     1      48.624   5.016  16.691  0.00  0.00    +0.000 A 
ATOM     24  S   UNL     1      47.427   4.604  17.826  0.00  0.00    +0.000 S 
ATOM     25  C   UNL     1      47.833   5.935  18.800  0.00  0.00    +0.000 A 
ATOM     26  N   UNL     1      47.230   6.129  20.000  0.00  0.00    +0.000 NA
ATOM     27  C   UNL     1      47.683   7.148  20.655  0.00  0.00    +0.000 A 
ATOM     28  N   UNL     1      48.634   8.021  20.191  0.00  0.00    +0.000 N 
ATOM     29  C   UNL     1      49.177   7.935  18.929  0.00  0.00    +0.000 A 
ATOM     30  O   UNL     1      49.847   8.862  18.473  0.00  0.00    +0.000 OA
ATOM     31  C   UNL     1      48.810   6.731  18.217  0.00  0.00    +0.000 A 
ATOM     32  H   UNL     1      48.913   8.823  20.737  0.00  0.00    +0.000 HD
ENDBRANCH  20  22
ENDBRANCH   1  19
TORSDOF 6
ENDMDL
MODEL 9
REMARK VINA RESULT:    -6.409      4.428      8.295
REMARK INTER + INTRA:          -9.783
REMARK INTER:                  -8.334
REMARK INTRA:                  -1.450
REMARK UNBOUND:                -1.126
REMARK  Name = 
REMARK  7 active torsions:
REMARK  status: ('A' for Active; 'I' for Inactive)
REMARK    1  A    between atoms: C_1  and  N_2
REMARK    2  A    between atoms: N_2  and  C_3
REMARK    3  A    between atoms: C_3  and  C_4
REMARK    4  A    between atoms: C_7  and  C_8
REMARK    5  A    between atoms: C_8  and  N_9
REMARK    6  A    between atoms: N_9  and  C_10
REMARK    7  A    between atoms: C_18  and  C_20
REMARK                            x       y       z     vdW  Elec       q    Type
REMARK                         _______ _______ _______ _____ _____    ______ ____
ROOT
ATOM      1  C   UNL     1      49.001   9.021  11.929  0.00  0.00    +0.000 C 
ENDROOT
BRANCH   1   2
ATOM      2  C   UNL     1      47.807   8.206  12.301  0.00  0.00    +0.000 A 
ATOM      3  C   UNL     1      47.895   6.806  12.363  0.00  0.00    +0.000 A 
ATOM      4  C   UNL     1      46.750   6.045  12.586  0.00  0.00    +0.000 A 
ATOM      5  C   UNL     1      45.520   6.684  12.784  0.00  0.00    +0.000 A 
ATOM      6  C   UNL     1      45.456   8.088  12.754  0.00  0.00    +0.000 A 
ATOM      7  C   UNL     1      46.589   8.844  12.509  0.00  0.00    +0.000 A 
BRANCH   5   8
ATOM      8  C   UNL     1      44.237   5.924  12.984  0.00  0.00    +0.000 C 
BRANCH   8   9
ATOM      9  N   UNL     1      43.302   6.086  11.874  0.00  0.00    +0.000 NA
ATOM     10  H   UNL     1      43.616   6.863  11.293  0.00  0.00    +0.000 HD
BRANCH   9  11
ATOM     11  C   UNL     1      43.211   4.865  11.049  0.00  0.00    +0.000 C 
ATOM     12  C   UNL     1      44.250   4.992   9.923  0.00  0.00    +0.000 C 
ATOM     13  C   UNL     1      44.366   3.699   9.120  0.00  0.00    +0.000 C 
ATOM     14  C   UNL     1      44.602   2.498  10.030  0.00  0.00    +0.000 C 
ATOM     15  N   UNL     1      43.522   2.365  11.004  0.00  0.00    +0.000 NA
ATOM     16  C   UNL     1      43.440   3.555  11.850  0.00  0.00    +0.000 C 
ATOM     17  H   UNL     1      43.693   1.548  11.592  0.00  0.00    +0.000 HD
ENDBRANCH   9  11
ENDBRANCH   8   9
ENDBRANCH   5   8
ENDBRANCH   1   2
BRANCH   1  19
ATOM     18  C   UNL     1      50.973   7.705  11.043  0.00  0.00    +0.000 C 
ATOM     19  N   UNL     1      50.314   8.394  12.138  0.00  0.00    +0.000 N 
ATOM     20  C   UNL     1      51.194   8.838  13.158  0.00  0.00    +0.000 C 
ATOM     21  O   UNL     1      52.384   8.582  13.123  0.00  0.00    +0.000 OA
BRANCH  20  22
ATOM     22  C   UNL     1      50.614   9.590  14.281  0.00  0.00    +0.000 A 
ATOM     23  C   UNL     1      50.715  10.960  14.433  0.00  0.00    +0.000 A 
ATOM     24  S   UNL     1      49.886  11.579  15.782  0.00  0.00    +0.000 S 
ATOM     25  C   UNL     1      49.299  10.036  16.182  0.00  0.00    +0.000 A 
ATOM     26  N   UNL     1      48.433   9.866  17.213  0.00  0.00    +0.000 NA
ATOM     27  C   UNL     1      48.027   8.647  17.360  0.00  0.00    +0.000 A 
ATOM     28  N   UNL     1      48.456   7.579  16.612  0.00  0.00    +0.000 N 
ATOM     29  C   UNL     1      49.428   7.687  15.643  0.00  0.00    +0.000 A 
ATOM     30  O   UNL     1      49.945   6.678  15.162  0.00  0.00    +0.000 OA
ATOM     31  C   UNL     1      49.806   9.051  15.344  0.00  0.00    +0.000 A 
ATOM     32  H   UNL     1      48.131   6.645  16.808  0.00  0.00    +0.000 HD
ENDBRANCH  20  22
ENDBRANCH   1  19
TORSDOF 6
ENDMDL
