MODEL 1
REMARK VINA RESULT:    -7.653      0.000      0.000
REMARK INTER + INTRA:         -11.763
REMARK INTER:                 -10.784
REMARK INTRA:                  -0.979
REMARK UNBOUND:                -0.979
REMARK  Name = 
REMARK  7 active torsions:
REMARK  status: ('A' for Active; 'I' for Inactive)
REMARK    1  A    between atoms: C_2  and  C_20
REMARK    2  A    between atoms: N_3  and  C_4
REMARK    3  A    between atoms: C_4  and  C_5
REMARK    4  A    between atoms: C_8  and  C_9
REMARK    5  A    between atoms: C_9  and  C_10
REMARK    6  A    between atoms: C_10  and  C_11
REMARK    7  A    between atoms: C_11  and  N_12
REMARK                            x       y       z     vdW  Elec       q    Type
REMARK                         _______ _______ _______ _____ _____    ______ ____
ROOT
ATOM      1  C   UNL     1      46.776   7.790  13.023  0.00  0.00    +0.000 C 
ENDROOT
BRANCH   1   2
ATOM      2  C   UNL     1      46.048   6.602  12.453  0.00  0.00    +0.000 A 
ATOM      3  C   UNL     1      45.858   6.499  11.072  0.00  0.00    +0.000 A 
ATOM      4  C   UNL     1      45.191   5.404  10.527  0.00  0.00    +0.000 A 
ATOM      5  C   UNL     1      44.703   4.385  11.353  0.00  0.00    +0.000 A 
ATOM      6  C   UNL     1      44.864   4.501  12.739  0.00  0.00    +0.000 A 
ATOM      7  C   UNL     1      45.523   5.605  13.286  0.00  0.00    +0.000 A 
BRANCH   5   8
ATOM      8  C   UNL     1      44.018   3.182  10.753  0.00  0.00    +0.000 C 
BRANCH   8   9
ATOM      9  C   UNL     1      44.350   2.965   9.270  0.00  0.00    +0.000 C 
BRANCH   9  10
ATOM     10  C   UNL     1      45.589   2.083   9.029  0.00  0.00    +0.000 C 
BRANCH  10  11
ATOM     11  N   UNL     1      46.002   2.019   7.617  0.00  0.00    +0.000 NA
ATOM     12  C   UNL     1      46.504   3.310   7.126  0.00  0.00    +0.000 C 
ATOM     13  C   UNL     1      46.823   3.236   5.635  0.00  0.00    +0.000 C 
ATOM     14  C   UNL     1      47.829   2.131   5.343  0.00  0.00    +0.000 C 
ATOM     15  C   UNL     1      47.358   0.811   5.940  0.00  0.00    +0.000 C 
ATOM     16  C   UNL     1      47.004   0.959   7.421  0.00  0.00    +0.000 C 
ENDBRANCH  10  11
ENDBRANCH   9  10
ENDBRANCH   8   9
ENDBRANCH   5   8
ENDBRANCH   1   2
BRANCH   1  19
ATOM     17  O   UNL     1      49.261   6.543  13.508  0.00  0.00    +0.000 OA
ATOM     18  C   UNL     1      48.581   6.915  14.462  0.00  0.00    +0.000 C 
ATOM     19  N   UNL     1      47.346   7.486  14.310  0.00  0.00    +0.000 N 
ATOM     20  H   UNL     1      46.914   7.950  15.100  0.00  0.00    +0.000 HD
BRANCH  18  21
ATOM     21  C   UNL     1      49.033   6.712  15.846  0.00  0.00    +0.000 A 
ATOM     22  C   UNL     1      49.775   7.700  16.480  0.00  0.00    +0.000 A 
ATOM     23  S   UNL     1      50.239   7.292  18.070  0.00  0.00    +0.000 S 
ATOM     24  C   UNL     1      49.424   5.801  17.984  0.00  0.00    +0.000 A 
ATOM     25  N   UNL     1      49.399   4.955  19.049  0.00  0.00    +0.000 NA
ATOM     26  C   UNL     1      48.707   3.880  18.863  0.00  0.00    +0.000 A 
ATOM     27  N   UNL     1      48.055   3.565  17.700  0.00  0.00    +0.000 N 
ATOM     28  C   UNL     1      48.118   4.351  16.574  0.00  0.00    +0.000 A 
ATOM     29  O   UNL     1      47.635   3.971  15.512  0.00  0.00    +0.000 OA
ATOM     30  C   UNL     1      48.835   5.601  16.749  0.00  0.00    +0.000 A 
ATOM     31  H   UNL     1      47.559   2.693  17.603  0.00  0.00    +0.000 HD
ENDBRANCH  18  21
ENDBRANCH   1  19
TORSDOF 7
ENDMDL
MODEL 2
REMARK VINA RESULT:    -7.460      2.061      2.601
REMARK INTER + INTRA:         -11.492
REMARK INTER:                 -10.500
REMARK INTRA:                  -0.991
REMARK UNBOUND:                -0.979
REMARK  Name = 
REMARK  7 active torsions:
REMARK  status: ('A' for Active; 'I' for Inactive)
REMARK    1  A    between atoms: C_2  and  C_20
REMARK    2  A    between atoms: N_3  and  C_4
REMARK    3  A    between atoms: C_4  and  C_5
REMARK    4  A    between atoms: C_8  and  C_9
REMARK    5  A    between atoms: C_9  and  C_10
REMARK    6  A    between atoms: C_10  and  C_11
REMARK    7  A    between atoms: C_11  and  N_12
REMARK                            x       y       z     vdW  Elec       q    Type
REMARK                         _______ _______ _______ _____ _____    ______ ____
ROOT
ATOM      1  C   UNL     1      48.195   6.706  13.910  0.00  0.00    +0.000 C 
ENDROOT
BRANCH   1   2
ATOM      2  C   UNL     1      47.038   6.122  13.145  0.00  0.00    +0.000 A 
ATOM      3  C   UNL     1      46.468   6.839  12.089  0.00  0.00    +0.000 A 
ATOM      4  C   UNL     1      45.400   6.311  11.367  0.00  0.00    +0.000 A 
ATOM      5  C   UNL     1      44.880   5.051  11.684  0.00  0.00    +0.000 A 
ATOM      6  C   UNL     1      45.428   4.344  12.761  0.00  0.00    +0.000 A 
ATOM      7  C   UNL     1      46.492   4.879  13.492  0.00  0.00    +0.000 A 
BRANCH   5   8
ATOM      8  C   UNL     1      43.750   4.468  10.872  0.00  0.00    +0.000 C 
BRANCH   8   9
ATOM      9  C   UNL     1      44.206   3.400   9.867  0.00  0.00    +0.000 C 
BRANCH   9  10
ATOM     10  C   UNL     1      44.694   3.972   8.524  0.00  0.00    +0.000 C 
BRANCH  10  11
ATOM     11  N   UNL     1      45.443   3.002   7.708  0.00  0.00    +0.000 NA
ATOM     12  C   UNL     1      46.533   3.636   6.953  0.00  0.00    +0.000 C 
ATOM     13  C   UNL     1      47.220   2.623   6.040  0.00  0.00    +0.000 C 
ATOM     14  C   UNL     1      47.746   1.435   6.833  0.00  0.00    +0.000 C 
ATOM     15  C   UNL     1      46.639   0.839   7.694  0.00  0.00    +0.000 C 
ATOM     16  C   UNL     1      45.955   1.908   8.548  0.00  0.00    +0.000 C 
ENDBRANCH  10  11
ENDBRANCH   9  10
ENDBRANCH   8   9
ENDBRANCH   5   8
ENDBRANCH   1   2
BRANCH   1  19
ATOM     17  O   UNL     1      50.323   6.451  15.746  0.00  0.00    +0.000 OA
ATOM     18  C   UNL     1      49.167   6.365  16.153  0.00  0.00    +0.000 C 
ATOM     19  N   UNL     1      48.083   6.432  15.319  0.00  0.00    +0.000 N 
ATOM     20  H   UNL     1      47.159   6.551  15.716  0.00  0.00    +0.000 HD
BRANCH  18  21
ATOM     21  C   UNL     1      48.875   6.120  17.573  0.00  0.00    +0.000 A 
ATOM     22  C   UNL     1      49.147   4.877  18.128  0.00  0.00    +0.000 A 
ATOM     23  S   UNL     1      48.724   4.755  19.776  0.00  0.00    +0.000 S 
ATOM     24  C   UNL     1      48.206   6.375  19.819  0.00  0.00    +0.000 A 
ATOM     25  N   UNL     1      47.744   6.932  20.971  0.00  0.00    +0.000 NA
ATOM     26  C   UNL     1      47.427   8.180  20.873  0.00  0.00    +0.000 A 
ATOM     27  N   UNL     1      47.513   8.918  19.722  0.00  0.00    +0.000 N 
ATOM     28  C   UNL     1      47.899   8.378  18.519  0.00  0.00    +0.000 A 
ATOM     29  O   UNL     1      47.833   9.034  17.484  0.00  0.00    +0.000 OA
ATOM     30  C   UNL     1      48.322   6.991  18.586  0.00  0.00    +0.000 A 
ATOM     31  H   UNL     1      47.218   9.881  19.700  0.00  0.00    +0.000 HD
ENDBRANCH  18  21
ENDBRANCH   1  19
TORSDOF 7
ENDMDL
MODEL 3
REMARK VINA RESULT:    -7.157      2.958      8.640
REMARK INTER + INTRA:         -11.065
REMARK INTER:                  -9.535
REMARK INTRA:                  -1.530
REMARK UNBOUND:                -0.979
REMARK  Name = 
REMARK  7 active torsions:
REMARK  status: ('A' for Active; 'I' for Inactive)
REMARK    1  A    between atoms: C_2  and  C_20
REMARK    2  A    between atoms: N_3  and  C_4
REMARK    3  A    between atoms: C_4  and  C_5
REMARK    4  A    between atoms: C_8  and  C_9
REMARK    5  A    between atoms: C_9  and  C_10
REMARK    6  A    between atoms: C_10  and  C_11
REMARK    7  A    between atoms: C_11  and  N_12
REMARK                            x       y       z     vdW  Elec       q    Type
REMARK                         _______ _______ _______ _____ _____    ______ ____
ROOT
ATOM      1  C   UNL     1      47.556   7.827  12.118  0.00  0.00    +0.000 C 
ENDROOT
BRANCH   1   2
ATOM      2  C   UNL     1      48.064   7.915  13.532  0.00  0.00    +0.000 A 
ATOM      3  C   UNL     1      47.802   9.056  14.297  0.00  0.00    +0.000 A 
ATOM      4  C   UNL     1      48.259   9.152  15.609  0.00  0.00    +0.000 A 
ATOM      5  C   UNL     1      48.987   8.106  16.187  0.00  0.00    +0.000 A 
ATOM      6  C   UNL     1      49.279   6.975  15.414  0.00  0.00    +0.000 A 
ATOM      7  C   UNL     1      48.829   6.884  14.095  0.00  0.00    +0.000 A 
BRANCH   5   8
ATOM      8  C   UNL     1      49.444   8.200  17.622  0.00  0.00    +0.000 C 
BRANCH   8   9
ATOM      9  C   UNL     1      49.985   6.876  18.180  0.00  0.00    +0.000 C 
BRANCH   9  10
ATOM     10  C   UNL     1      48.966   6.090  19.024  0.00  0.00    +0.000 C 
BRANCH  10  11
ATOM     11  N   UNL     1      48.753   4.710  18.558  0.00  0.00    +0.000 NA
ATOM     12  C   UNL     1      47.531   4.578  17.752  0.00  0.00    +0.000 C 
ATOM     13  C   UNL     1      47.286   3.119  17.375  0.00  0.00    +0.000 C 
ATOM     14  C   UNL     1      48.478   2.536  16.628  0.00  0.00    +0.000 C 
ATOM     15  C   UNL     1      49.761   2.762  17.417  0.00  0.00    +0.000 C 
ATOM     16  C   UNL     1      49.927   4.232  17.811  0.00  0.00    +0.000 C 
ENDBRANCH  10  11
ENDBRANCH   9  10
ENDBRANCH   8   9
ENDBRANCH   5   8
ENDBRANCH   1   2
BRANCH   1  19
ATOM     17  O   UNL     1      44.758   7.477  12.217  0.00  0.00    +0.000 OA
ATOM     18  C   UNL     1      45.471   6.521  11.920  0.00  0.00    +0.000 C 
ATOM     19  N   UNL     1      46.838   6.599  11.896  0.00  0.00    +0.000 N 
ATOM     20  H   UNL     1      47.368   5.853  11.462  0.00  0.00    +0.000 HD
BRANCH  18  21
ATOM     21  C   UNL     1      44.894   5.201  11.630  0.00  0.00    +0.000 A 
ATOM     22  C   UNL     1      44.177   4.531  12.612  0.00  0.00    +0.000 A 
ATOM     23  S   UNL     1      43.600   3.004  12.117  0.00  0.00    +0.000 S 
ATOM     24  C   UNL     1      44.248   3.203  10.557  0.00  0.00    +0.000 A 
ATOM     25  N   UNL     1      44.080   2.250   9.602  0.00  0.00    +0.000 NA
ATOM     26  C   UNL     1      44.584   2.549   8.451  0.00  0.00    +0.000 A 
ATOM     27  N   UNL     1      45.258   3.710   8.174  0.00  0.00    +0.000 N 
ATOM     28  C   UNL     1      45.519   4.665   9.126  0.00  0.00    +0.000 A 
ATOM     29  O   UNL     1      46.241   5.624   8.876  0.00  0.00    +0.000 OA
ATOM     30  C   UNL     1      44.923   4.403  10.424  0.00  0.00    +0.000 A 
ATOM     31  H   UNL     1      45.659   3.872   7.263  0.00  0.00    +0.000 HD
ENDBRANCH  18  21
ENDBRANCH   1  19
TORSDOF 7
ENDMDL
MODEL 4
REMARK VINA RESULT:    -7.049      3.402      8.256
REMARK INTER + INTRA:         -10.912
REMARK INTER:                  -9.458
REMARK INTRA:                  -1.454
REMARK UNBOUND:                -0.979
REMARK  Name = 
REMARK  7 active torsions:
REMARK  status: ('A' for Active; 'I' for Inactive)
REMARK    1  A    between atoms: C_2  and  C_20
REMARK    2  A    between atoms: N_3  and  C_4
REMARK    3  A    between atoms: C_4  and  C_5
REMARK    4  A    between atoms: C_8  and  C_9
REMARK    5  A    between atoms: C_9  and  C_10
REMARK    6  A    between atoms: C_10  and  C_11
REMARK    7  A    between atoms: C_11  and  N_12
REMARK                            x       y       z     vdW  Elec       q    Type
REMARK                         _______ _______ _______ _____ _____    ______ ____
ROOT
ATOM      1  C   UNL     1      48.385   8.107  11.927  0.00  0.00    +0.000 C 
ENDROOT
BRANCH   1   2
ATOM      2  C   UNL     1      48.539   8.064  13.424  0.00  0.00    +0.000 A 
ATOM      3  C   UNL     1      48.169   9.171  14.194  0.00  0.00    +0.000 A 
ATOM      4  C   UNL     1      48.299   9.146  15.581  0.00  0.00    +0.000 A 
ATOM      5  C   UNL     1      48.798   8.011  16.229  0.00  0.00    +0.000 A 
ATOM      6  C   UNL     1      49.198   6.912  15.459  0.00  0.00    +0.000 A 
ATOM      7  C   UNL     1      49.078   6.942  14.067  0.00  0.00    +0.000 A 
BRANCH   5   8
ATOM      8  C   UNL     1      48.897   7.976  17.734  0.00  0.00    +0.000 C 
BRANCH   8   9
ATOM      9  C   UNL     1      48.006   6.907  18.382  0.00  0.00    +0.000 C 
BRANCH   9  10
ATOM     10  C   UNL     1      48.780   5.863  19.208  0.00  0.00    +0.000 C 
BRANCH  10  11
ATOM     11  N   UNL     1      48.697   4.499  18.661  0.00  0.00    +0.000 NA
ATOM     12  C   UNL     1      47.508   4.308  17.819  0.00  0.00    +0.000 C 
ATOM     13  C   UNL     1      47.399   2.858  17.356  0.00  0.00    +0.000 C 
ATOM     14  C   UNL     1      48.652   2.423  16.609  0.00  0.00    +0.000 C 
ATOM     15  C   UNL     1      49.895   2.713  17.441  0.00  0.00    +0.000 C 
ATOM     16  C   UNL     1      49.923   4.167  17.918  0.00  0.00    +0.000 C 
ENDBRANCH  10  11
ENDBRANCH   9  10
ENDBRANCH   8   9
ENDBRANCH   5   8
ENDBRANCH   1   2
BRANCH   1  19
ATOM     17  O   UNL     1      45.576   7.945  11.719  0.00  0.00    +0.000 OA
ATOM     18  C   UNL     1      46.260   6.999  11.336  0.00  0.00    +0.000 C 
ATOM     19  N   UNL     1      47.625   6.982  11.447  0.00  0.00    +0.000 N 
ATOM     20  H   UNL     1      48.154   6.277  10.948  0.00  0.00    +0.000 HD
BRANCH  18  21
ATOM     21  C   UNL     1      45.642   5.784  10.786  0.00  0.00    +0.000 A 
ATOM     22  C   UNL     1      45.829   5.461   9.449  0.00  0.00    +0.000 A 
ATOM     23  S   UNL     1      45.023   4.036   8.970  0.00  0.00    +0.000 S 
ATOM     24  C   UNL     1      44.435   3.773  10.544  0.00  0.00    +0.000 A 
ATOM     25  N   UNL     1      43.680   2.680  10.836  0.00  0.00    +0.000 NA
ATOM     26  C   UNL     1      43.339   2.581  12.078  0.00  0.00    +0.000 A 
ATOM     27  N   UNL     1      43.668   3.487  13.051  0.00  0.00    +0.000 N 
ATOM     28  C   UNL     1      44.361   4.644  12.788  0.00  0.00    +0.000 A 
ATOM     29  O   UNL     1      44.519   5.496  13.656  0.00  0.00    +0.000 OA
ATOM     30  C   UNL     1      44.819   4.776  11.416  0.00  0.00    +0.000 A 
ATOM     31  H   UNL     1      43.343   3.373  13.998  0.00  0.00    +0.000 HD
ENDBRANCH  18  21
ENDBRANCH   1  19
TORSDOF 7
ENDMDL
MODEL 5
REMARK VINA RESULT:    -6.972      1.898      2.686
REMARK INTER + INTRA:         -10.804
REMARK INTER:                  -9.762
REMARK INTRA:                  -1.042
REMARK UNBOUND:                -0.979
REMARK  Name = 
REMARK  7 active torsions:
REMARK  status: ('A' for Active; 'I' for Inactive)
REMARK    1  A    between atoms: C_2  and  C_20
REMARK    2  A    between atoms: N_3  and  C_4
REMARK    3  A    between atoms: C_4  and  C_5
REMARK    4  A    between atoms: C_8  and  C_9
REMARK    5  A    between atoms: C_9  and  C_10
REMARK    6  A    between atoms: C_10  and  C_11
REMARK    7  A    between atoms: C_11  and  N_12
REMARK                            x       y       z     vdW  Elec       q    Type
REMARK                         _______ _______ _______ _____ _____    ______ ____
ROOT
ATOM      1  C   UNL     1      48.415   7.303  14.009  0.00  0.00    +0.000 C 
ENDROOT
BRANCH   1   2
ATOM      2  C   UNL     1      47.162   6.557  13.635  0.00  0.00    +0.000 A 
ATOM      3  C   UNL     1      46.125   7.224  12.975  0.00  0.00    +0.000 A 
ATOM      4  C   UNL     1      44.961   6.547  12.616  0.00  0.00    +0.000 A 
ATOM      5  C   UNL     1      44.810   5.187  12.907  0.00  0.00    +0.000 A 
ATOM      6  C   UNL     1      45.833   4.524  13.596  0.00  0.00    +0.000 A 
ATOM      7  C   UNL     1      46.996   5.206  13.965  0.00  0.00    +0.000 A 
BRANCH   5   8
ATOM      8  C   UNL     1      43.564   4.451  12.480  0.00  0.00    +0.000 C 
BRANCH   8   9
ATOM      9  C   UNL     1      43.802   2.963  12.189  0.00  0.00    +0.000 C 
BRANCH   9  10
ATOM     10  C   UNL     1      43.590   2.571  10.715  0.00  0.00    +0.000 C 
BRANCH  10  11
ATOM     11  N   UNL     1      44.736   2.892   9.848  0.00  0.00    +0.000 NA
ATOM     12  C   UNL     1      45.025   1.817   8.889  0.00  0.00    +0.000 C 
ATOM     13  C   UNL     1      46.280   2.136   8.080  0.00  0.00    +0.000 C 
ATOM     14  C   UNL     1      46.144   3.469   7.357  0.00  0.00    +0.000 C 
ATOM     15  C   UNL     1      45.745   4.566   8.335  0.00  0.00    +0.000 C 
ATOM     16  C   UNL     1      44.514   4.169   9.153  0.00  0.00    +0.000 C 
ENDBRANCH  10  11
ENDBRANCH   9  10
ENDBRANCH   8   9
ENDBRANCH   5   8
ENDBRANCH   1   2
BRANCH   1  19
ATOM     17  O   UNL     1      50.126   6.119  15.915  0.00  0.00    +0.000 OA
ATOM     18  C   UNL     1      49.346   6.998  16.275  0.00  0.00    +0.000 C 
ATOM     19  N   UNL     1      48.452   7.587  15.421  0.00  0.00    +0.000 N 
ATOM     20  H   UNL     1      47.972   8.430  15.710  0.00  0.00    +0.000 HD
BRANCH  18  21
ATOM     21  C   UNL     1      49.280   7.432  17.678  0.00  0.00    +0.000 A 
ATOM     22  C   UNL     1      50.035   8.518  18.099  0.00  0.00    +0.000 A 
ATOM     23  S   UNL     1      49.861   8.871  19.759  0.00  0.00    +0.000 S 
ATOM     24  C   UNL     1      48.733   7.614  19.964  0.00  0.00    +0.000 A 
ATOM     25  N   UNL     1      48.152   7.385  21.172  0.00  0.00    +0.000 NA
ATOM     26  C   UNL     1      47.282   6.430  21.176  0.00  0.00    +0.000 A 
ATOM     27  N   UNL     1      46.955   5.670  20.084  0.00  0.00    +0.000 N 
ATOM     28  C   UNL     1      47.571   5.814  18.865  0.00  0.00    +0.000 A 
ATOM     29  O   UNL     1      47.350   5.027  17.950  0.00  0.00    +0.000 OA
ATOM     30  C   UNL     1      48.517   6.913  18.791  0.00  0.00    +0.000 A 
ATOM     31  H   UNL     1      46.292   4.915  20.158  0.00  0.00    +0.000 HD
ENDBRANCH  18  21
ENDBRANCH   1  19
TORSDOF 7
ENDMDL
MODEL 6
REMARK VINA RESULT:    -6.970      2.212      2.867
REMARK INTER + INTRA:         -10.801
REMARK INTER:                  -9.799
REMARK INTRA:                  -1.002
REMARK UNBOUND:                -0.979
REMARK  Name = 
REMARK  7 active torsions:
REMARK  status: ('A' for Active; 'I' for Inactive)
REMARK    1  A    between atoms: C_2  and  C_20
REMARK    2  A    between atoms: N_3  and  C_4
REMARK    3  A    between atoms: C_4  and  C_5
REMARK    4  A    between atoms: C_8  and  C_9
REMARK    5  A    between atoms: C_9  and  C_10
REMARK    6  A    between atoms: C_10  and  C_11
REMARK    7  A    between atoms: C_11  and  N_12
REMARK                            x       y       z     vdW  Elec       q    Type
REMARK                         _______ _______ _______ _____ _____    ______ ____
ROOT
ATOM      1  C   UNL     1      47.617   4.240  15.489  0.00  0.00    +0.000 C 
ENDROOT
BRANCH   1   2
ATOM      2  C   UNL     1      46.876   4.556  14.217  0.00  0.00    +0.000 A 
ATOM      3  C   UNL     1      46.864   5.865  13.724  0.00  0.00    +0.000 A 
ATOM      4  C   UNL     1      46.189   6.173  12.546  0.00  0.00    +0.000 A 
ATOM      5  C   UNL     1      45.512   5.178  11.832  0.00  0.00    +0.000 A 
ATOM      6  C   UNL     1      45.496   3.873  12.339  0.00  0.00    +0.000 A 
ATOM      7  C   UNL     1      46.165   3.566  13.527  0.00  0.00    +0.000 A 
BRANCH   5   8
ATOM      8  C   UNL     1      44.817   5.512  10.535  0.00  0.00    +0.000 C 
BRANCH   8   9
ATOM      9  C   UNL     1      45.524   4.942   9.297  0.00  0.00    +0.000 C 
BRANCH   9  10
ATOM     10  C   UNL     1      44.656   3.976   8.470  0.00  0.00    +0.000 C 
BRANCH  10  11
ATOM     11  N   UNL     1      45.438   3.006   7.685  0.00  0.00    +0.000 NA
ATOM     12  C   UNL     1      46.560   3.639   6.977  0.00  0.00    +0.000 C 
ATOM     13  C   UNL     1      47.283   2.627   6.093  0.00  0.00    +0.000 C 
ATOM     14  C   UNL     1      47.773   1.437   6.906  0.00  0.00    +0.000 C 
ATOM     15  C   UNL     1      46.631   0.842   7.719  0.00  0.00    +0.000 C 
ATOM     16  C   UNL     1      45.912   1.911   8.545  0.00  0.00    +0.000 C 
ENDBRANCH  10  11
ENDBRANCH   9  10
ENDBRANCH   8   9
ENDBRANCH   5   8
ENDBRANCH   1   2
BRANCH   1  19
ATOM     17  O   UNL     1      49.953   5.489  16.462  0.00  0.00    +0.000 OA
ATOM     18  C   UNL     1      48.856   5.961  16.752  0.00  0.00    +0.000 C 
ATOM     19  N   UNL     1      47.677   5.387  16.358  0.00  0.00    +0.000 N 
ATOM     20  H   UNL     1      46.816   5.911  16.452  0.00  0.00    +0.000 HD
BRANCH  18  21
ATOM     21  C   UNL     1      48.740   7.153  17.605  0.00  0.00    +0.000 A 
ATOM     22  C   UNL     1      49.088   8.398  17.099  0.00  0.00    +0.000 A 
ATOM     23  S   UNL     1      48.919   9.667  18.226  0.00  0.00    +0.000 S 
ATOM     24  C   UNL     1      48.328   8.605  19.416  0.00  0.00    +0.000 A 
ATOM     25  N   UNL     1      47.954   9.064  20.640  0.00  0.00    +0.000 NA
ATOM     26  C   UNL     1      47.482   8.158  21.431  0.00  0.00    +0.000 A 
ATOM     27  N   UNL     1      47.369   6.829  21.114  0.00  0.00    +0.000 N 
ATOM     28  C   UNL     1      47.807   6.309  19.920  0.00  0.00    +0.000 A 
ATOM     29  O   UNL     1      47.815   5.098  19.725  0.00  0.00    +0.000 OA
ATOM     30  C   UNL     1      48.292   7.296  18.972  0.00  0.00    +0.000 A 
ATOM     31  H   UNL     1      47.025   6.163  21.787  0.00  0.00    +0.000 HD
ENDBRANCH  18  21
ENDBRANCH   1  19
TORSDOF 7
ENDMDL
MODEL 7
REMARK VINA RESULT:    -6.900      2.181      3.388
REMARK INTER + INTRA:         -10.702
REMARK INTER:                  -9.687
REMARK INTRA:                  -1.016
REMARK UNBOUND:                -0.979
REMARK  Name = 
REMARK  7 active torsions:
REMARK  status: ('A' for Active; 'I' for Inactive)
REMARK    1  A    between atoms: C_2  and  C_20
REMARK    2  A    between atoms: N_3  and  C_4
REMARK    3  A    between atoms: C_4  and  C_5
REMARK    4  A    between atoms: C_8  and  C_9
REMARK    5  A    between atoms: C_9  and  C_10
REMARK    6  A    between atoms: C_10  and  C_11
REMARK    7  A    between atoms: C_11  and  N_12
REMARK                            x       y       z     vdW  Elec       q    Type
REMARK                         _______ _______ _______ _____ _____    ______ ____
ROOT
ATOM      1  C   UNL     1      47.732   3.967  15.436  0.00  0.00    +0.000 C 
ENDROOT
BRANCH   1   2
ATOM      2  C   UNL     1      46.919   4.247  14.200  0.00  0.00    +0.000 A 
ATOM      3  C   UNL     1      46.760   5.562  13.754  0.00  0.00    +0.000 A 
ATOM      4  C   UNL     1      46.016   5.839  12.610  0.00  0.00    +0.000 A 
ATOM      5  C   UNL     1      45.416   4.804  11.883  0.00  0.00    +0.000 A 
ATOM      6  C   UNL     1      45.547   3.488  12.345  0.00  0.00    +0.000 A 
ATOM      7  C   UNL     1      46.284   3.213  13.499  0.00  0.00    +0.000 A 
BRANCH   5   8
ATOM      8  C   UNL     1      44.646   5.107  10.622  0.00  0.00    +0.000 C 
BRANCH   8   9
ATOM      9  C   UNL     1      45.429   4.802   9.338  0.00  0.00    +0.000 C 
BRANCH   9  10
ATOM     10  C   UNL     1      44.607   4.070   8.262  0.00  0.00    +0.000 C 
BRANCH  10  11
ATOM     11  N   UNL     1      45.362   3.023   7.554  0.00  0.00    +0.000 NA
ATOM     12  C   UNL     1      46.452   3.578   6.739  0.00  0.00    +0.000 C 
ATOM     13  C   UNL     1      47.145   2.478   5.939  0.00  0.00    +0.000 C 
ATOM     14  C   UNL     1      47.673   1.381   6.854  0.00  0.00    +0.000 C 
ATOM     15  C   UNL     1      46.567   0.875   7.770  0.00  0.00    +0.000 C 
ATOM     16  C   UNL     1      45.876   2.025   8.505  0.00  0.00    +0.000 C 
ENDBRANCH  10  11
ENDBRANCH   9  10
ENDBRANCH   8   9
ENDBRANCH   5   8
ENDBRANCH   1   2
BRANCH   1  19
ATOM     17  O   UNL     1      49.822   5.595  16.407  0.00  0.00    +0.000 OA
ATOM     18  C   UNL     1      48.672   5.809  16.784  0.00  0.00    +0.000 C 
ATOM     19  N   UNL     1      47.611   5.035  16.394  0.00  0.00    +0.000 N 
ATOM     20  H   UNL     1      46.669   5.362  16.569  0.00  0.00    +0.000 HD
BRANCH  18  21
ATOM     21  C   UNL     1      48.369   6.886  17.737  0.00  0.00    +0.000 A 
ATOM     22  C   UNL     1      48.155   6.582  19.075  0.00  0.00    +0.000 A 
ATOM     23  S   UNL     1      47.790   7.942  20.036  0.00  0.00    +0.000 S 
ATOM     24  C   UNL     1      47.953   8.993  18.709  0.00  0.00    +0.000 A 
ATOM     25  N   UNL     1      47.797  10.336  18.855  0.00  0.00    +0.000 NA
ATOM     26  C   UNL     1      47.993  11.020  17.777  0.00  0.00    +0.000 A 
ATOM     27  N   UNL     1      48.312  10.479  16.559  0.00  0.00    +0.000 N 
ATOM     28  C   UNL     1      48.402   9.124  16.347  0.00  0.00    +0.000 A 
ATOM     29  O   UNL     1      48.554   8.672  15.216  0.00  0.00    +0.000 OA
ATOM     30  C   UNL     1      48.248   8.313  17.541  0.00  0.00    +0.000 A 
ATOM     31  H   UNL     1      48.419  11.062  15.744  0.00  0.00    +0.000 HD
ENDBRANCH  18  21
ENDBRANCH   1  19
TORSDOF 7
ENDMDL
MODEL 8
REMARK VINA RESULT:    -6.862      3.872      8.479
REMARK INTER + INTRA:         -10.649
REMARK INTER:                  -8.792
REMARK INTRA:                  -1.857
REMARK UNBOUND:                -0.979
REMARK  Name = 
REMARK  7 active torsions:
REMARK  status: ('A' for Active; 'I' for Inactive)
REMARK    1  A    between atoms: C_2  and  C_20
REMARK    2  A    between atoms: N_3  and  C_4
REMARK    3  A    between atoms: C_4  and  C_5
REMARK    4  A    between atoms: C_8  and  C_9
REMARK    5  A    between atoms: C_9  and  C_10
REMARK    6  A    between atoms: C_10  and  C_11
REMARK    7  A    between atoms: C_11  and  N_12
REMARK                            x       y       z     vdW  Elec       q    Type
REMARK                         _______ _______ _______ _____ _____    ______ ____
ROOT
ATOM      1  C   UNL     1      48.466   8.430  14.570  0.00  0.00    +0.000 C 
ENDROOT
BRANCH   1   2
ATOM      2  C   UNL     1      48.998   7.966  15.900  0.00  0.00    +0.000 A 
ATOM      3  C   UNL     1      50.023   7.016  15.947  0.00  0.00    +0.000 A 
ATOM      4  C   UNL     1      50.530   6.579  17.168  0.00  0.00    +0.000 A 
ATOM      5  C   UNL     1      50.027   7.088  18.371  0.00  0.00    +0.000 A 
ATOM      6  C   UNL     1      48.980   8.016  18.328  0.00  0.00    +0.000 A 
ATOM      7  C   UNL     1      48.463   8.446  17.103  0.00  0.00    +0.000 A 
BRANCH   5   8
ATOM      8  C   UNL     1      50.610   6.641  19.689  0.00  0.00    +0.000 C 
BRANCH   8   9
ATOM      9  C   UNL     1      50.485   5.130  19.933  0.00  0.00    +0.000 C 
BRANCH   9  10
ATOM     10  C   UNL     1      49.035   4.643  20.110  0.00  0.00    +0.000 C 
BRANCH  10  11
ATOM     11  N   UNL     1      48.540   3.840  18.980  0.00  0.00    +0.000 NA
ATOM     12  C   UNL     1      47.580   4.582  18.150  0.00  0.00    +0.000 C 
ATOM     13  C   UNL     1      47.009   3.688  17.052  0.00  0.00    +0.000 C 
ATOM     14  C   UNL     1      48.117   3.104  16.187  0.00  0.00    +0.000 C 
ATOM     15  C   UNL     1      49.166   2.421  17.055  0.00  0.00    +0.000 C 
ATOM     16  C   UNL     1      49.663   3.347  18.168  0.00  0.00    +0.000 C 
ENDBRANCH  10  11
ENDBRANCH   9  10
ENDBRANCH   8   9
ENDBRANCH   5   8
ENDBRANCH   1   2
BRANCH   1  19
ATOM     17  O   UNL     1      48.829   6.232  12.838  0.00  0.00    +0.000 OA
ATOM     18  C   UNL     1      47.705   6.473  13.273  0.00  0.00    +0.000 C 
ATOM     19  N   UNL     1      47.440   7.547  14.080  0.00  0.00    +0.000 N 
ATOM     20  H   UNL     1      46.553   7.594  14.567  0.00  0.00    +0.000 HD
BRANCH  18  21
ATOM     21  C   UNL     1      46.549   5.646  12.898  0.00  0.00    +0.000 A 
ATOM     22  C   UNL     1      46.568   4.281  13.150  0.00  0.00    +0.000 A 
ATOM     23  S   UNL     1      45.160   3.470  12.630  0.00  0.00    +0.000 S 
ATOM     24  C   UNL     1      44.455   4.921  12.093  0.00  0.00    +0.000 A 
ATOM     25  N   UNL     1      43.206   4.937  11.555  0.00  0.00    +0.000 NA
ATOM     26  C   UNL     1      42.776   6.111  11.232  0.00  0.00    +0.000 A 
ATOM     27  N   UNL     1      43.491   7.270  11.379  0.00  0.00    +0.000 N 
ATOM     28  C   UNL     1      44.784   7.294  11.843  0.00  0.00    +0.000 A 
ATOM     29  O   UNL     1      45.438   8.331  11.833  0.00  0.00    +0.000 OA
ATOM     30  C   UNL     1      45.294   6.006  12.277  0.00  0.00    +0.000 A 
ATOM     31  H   UNL     1      43.114   8.154  11.075  0.00  0.00    +0.000 HD
ENDBRANCH  18  21
ENDBRANCH   1  19
TORSDOF 7
ENDMDL
MODEL 9
REMARK VINA RESULT:    -6.548      3.793      8.342
REMARK INTER + INTRA:         -10.207
REMARK INTER:                  -9.018
REMARK INTRA:                  -1.189
REMARK UNBOUND:                -0.979
REMARK  Name = 
REMARK  7 active torsions:
REMARK  status: ('A' for Active; 'I' for Inactive)
REMARK    1  A    between atoms: C_2  and  C_20
REMARK    2  A    between atoms: N_3  and  C_4
REMARK    3  A    between atoms: C_4  and  C_5
REMARK    4  A    between atoms: C_8  and  C_9
REMARK    5  A    between atoms: C_9  and  C_10
REMARK    6  A    between atoms: C_10  and  C_11
REMARK    7  A    between atoms: C_11  and  N_12
REMARK                            x       y       z     vdW  Elec       q    Type
REMARK                         _______ _______ _______ _____ _____    ______ ____
ROOT
ATOM      1  C   UNL     1      49.267   8.163  13.521  0.00  0.00    +0.000 C 
ENDROOT
BRANCH   1   2
ATOM      2  C   UNL     1      49.327   8.080  15.023  0.00  0.00    +0.000 A 
ATOM      3  C   UNL     1      50.311   7.300  15.639  0.00  0.00    +0.000 A 
ATOM      4  C   UNL     1      50.384   7.216  17.027  0.00  0.00    +0.000 A 
ATOM      5  C   UNL     1      49.477   7.915  17.831  0.00  0.00    +0.000 A 
ATOM      6  C   UNL     1      48.471   8.672  17.218  0.00  0.00    +0.000 A 
ATOM      7  C   UNL     1      48.392   8.747  15.825  0.00  0.00    +0.000 A 
BRANCH   5   8
ATOM      8  C   UNL     1      49.588   7.852  19.335  0.00  0.00    +0.000 C 
BRANCH   8   9
ATOM      9  C   UNL     1      49.874   6.441  19.868  0.00  0.00    +0.000 C 
BRANCH   9  10
ATOM     10  C   UNL     1      48.610   5.614  20.162  0.00  0.00    +0.000 C 
BRANCH  10  11
ATOM     11  N   UNL     1      48.389   4.515  19.207  0.00  0.00    +0.000 NA
ATOM     12  C   UNL     1      47.410   4.869  18.168  0.00  0.00    +0.000 C 
ATOM     13  C   UNL     1      47.128   3.675  17.261  0.00  0.00    +0.000 C 
ATOM     14  C   UNL     1      48.409   3.152  16.625  0.00  0.00    +0.000 C 
ATOM     15  C   UNL     1      49.460   2.880  17.693  0.00  0.00    +0.000 C 
ATOM     16  C   UNL     1      49.663   4.093  18.603  0.00  0.00    +0.000 C 
ENDBRANCH  10  11
ENDBRANCH   9  10
ENDBRANCH   8   9
ENDBRANCH   5   8
ENDBRANCH   1   2
BRANCH   1  19
ATOM     17  O   UNL     1      48.404   5.512  13.085  0.00  0.00    +0.000 OA
ATOM     18  C   UNL     1      47.622   6.438  12.881  0.00  0.00    +0.000 C 
ATOM     19  N   UNL     1      47.979   7.752  13.025  0.00  0.00    +0.000 N 
ATOM     20  H   UNL     1      47.259   8.463  13.037  0.00  0.00    +0.000 HD
BRANCH  18  21
ATOM     21  C   UNL     1      46.254   6.190  12.404  0.00  0.00    +0.000 A 
ATOM     22  C   UNL     1      45.532   7.220  11.816  0.00  0.00    +0.000 A 
ATOM     23  S   UNL     1      43.956   6.769  11.344  0.00  0.00    +0.000 S 
ATOM     24  C   UNL     1      44.199   5.168  11.865  0.00  0.00    +0.000 A 
ATOM     25  N   UNL     1      43.226   4.228  11.718  0.00  0.00    +0.000 NA
ATOM     26  C   UNL     1      43.559   3.045  12.115  0.00  0.00    +0.000 A 
ATOM     27  N   UNL     1      44.772   2.721  12.664  0.00  0.00    +0.000 N 
ATOM     28  C   UNL     1      45.754   3.651  12.904  0.00  0.00    +0.000 A 
ATOM     29  O   UNL     1      46.770   3.350  13.521  0.00  0.00    +0.000 OA
ATOM     30  C   UNL     1      45.452   4.987  12.423  0.00  0.00    +0.000 A 
ATOM     31  H   UNL     1      44.961   1.785  12.987  0.00  0.00    +0.000 HD
ENDBRANCH  18  21
ENDBRANCH   1  19
TORSDOF 7
ENDMDL
