MODEL 1
REMARK VINA RESULT:    -8.205      0.000      0.000
REMARK INTER + INTRA:         -13.098
REMARK INTER:                 -11.803
REMARK INTRA:                  -1.295
REMARK UNBOUND:                -1.295
REMARK  Name = 
REMARK  8 active torsions:
REMARK  status: ('A' for Active; 'I' for Inactive)
REMARK    1  A    between atoms: N_1  and  C_2
REMARK    2  A    between atoms: C_7  and  C_8
REMARK    3  A    between atoms: N_10  and  C_11
REMARK    4  A    between atoms: C_11  and  C_12
REMARK    5  A    between atoms: C_15  and  C_16
REMARK    6  A    between atoms: C_16  and  C_17
REMARK    7  A    between atoms: C_17  and  C_18
REMARK    8  A    between atoms: C_18  and  C_19
REMARK                            x       y       z     vdW  Elec       q    Type
REMARK                         _______ _______ _______ _____ _____    ______ ____
ROOT
ATOM      1  C   UNL     1      49.006   6.887  15.063  0.00  0.00    +0.000 C 
ATOM      2  O   UNL     1      49.967   7.119  14.334  0.00  0.00    +0.000 OA
ATOM      3  N   UNL     1      47.717   6.910  14.597  0.00  0.00    +0.000 N 
ATOM      4  H   UNL     1      46.948   6.715  15.233  0.00  0.00    +0.000 HD
ENDROOT
BRANCH   1  10
ATOM      5  C   UNL     1      48.997   4.318  19.360  0.00  0.00    +0.000 A 
ATOM      6  N   UNL     1      48.537   3.189  18.799  0.00  0.00    +0.000 NA
ATOM      7  C   UNL     1      48.286   3.189  17.482  0.00  0.00    +0.000 A 
ATOM      8  N   UNL     1      48.443   4.199  16.615  0.00  0.00    +0.000 NA
ATOM      9  C   UNL     1      48.922   5.343  17.177  0.00  0.00    +0.000 A 
ATOM     10  C   UNL     1      49.184   6.576  16.482  0.00  0.00    +0.000 A 
ATOM     11  C   UNL     1      49.666   7.538  17.356  0.00  0.00    +0.000 A 
ATOM     12  S   UNL     1      49.798   6.987  18.958  0.00  0.00    +0.000 S 
ATOM     13  C   UNL     1      49.209   5.429  18.539  0.00  0.00    +0.000 A 
BRANCH   5  14
ATOM     14  N   UNL     1      49.217   4.324  20.720  0.00  0.00    +0.000 N 
ATOM     15  H   UNL     1      50.021   4.842  21.042  0.00  0.00    +0.000 HD
ATOM     16  H   UNL     1      48.455   4.127  21.351  0.00  0.00    +0.000 HD
ENDBRANCH   5  14
ENDBRANCH   1  10
BRANCH   3  17
ATOM     17  C   UNL     1      47.457   7.220  13.213  0.00  0.00    +0.000 C 
BRANCH  17  18
ATOM     18  C   UNL     1      46.576   6.195  12.553  0.00  0.00    +0.000 A 
ATOM     19  C   UNL     1      46.271   4.996  13.209  0.00  0.00    +0.000 A 
ATOM     20  C   UNL     1      45.440   4.050  12.604  0.00  0.00    +0.000 A 
ATOM     21  C   UNL     1      44.895   4.285  11.334  0.00  0.00    +0.000 A 
ATOM     22  C   UNL     1      45.218   5.477  10.673  0.00  0.00    +0.000 A 
ATOM     23  C   UNL     1      46.053   6.421  11.275  0.00  0.00    +0.000 A 
BRANCH  21  24
ATOM     24  C   UNL     1      43.983   3.273  10.679  0.00  0.00    +0.000 C 
BRANCH  24  25
ATOM     25  C   UNL     1      44.348   3.022   9.213  0.00  0.00    +0.000 C 
BRANCH  25  26
ATOM     26  C   UNL     1      45.436   1.956   9.078  0.00  0.00    +0.000 C 
BRANCH  26  27
ATOM     27  C   UNL     1      46.203   2.121   7.788  0.00  0.00    +0.000 A 
ATOM     28  C   UNL     1      46.118   3.310   7.053  0.00  0.00    +0.000 A 
ATOM     29  C   UNL     1      46.804   3.442   5.843  0.00  0.00    +0.000 A 
ATOM     30  C   UNL     1      47.575   2.387   5.357  0.00  0.00    +0.000 A 
ATOM     31  C   UNL     1      47.659   1.198   6.079  0.00  0.00    +0.000 A 
ATOM     32  C   UNL     1      46.975   1.065   7.288  0.00  0.00    +0.000 A 
ENDBRANCH  26  27
ENDBRANCH  25  26
ENDBRANCH  24  25
ENDBRANCH  21  24
ENDBRANCH  17  18
ENDBRANCH   3  17
TORSDOF 8
ENDMDL
MODEL 2
REMARK VINA RESULT:    -7.644      1.415      1.912
REMARK INTER + INTRA:         -12.290
REMARK INTER:                 -10.978
REMARK INTRA:                  -1.312
REMARK UNBOUND:                -1.295
REMARK  Name = 
REMARK  8 active torsions:
REMARK  status: ('A' for Active; 'I' for Inactive)
REMARK    1  A    between atoms: N_1  and  C_2
REMARK    2  A    between atoms: C_7  and  C_8
REMARK    3  A    between atoms: N_10  and  C_11
REMARK    4  A    between atoms: C_11  and  C_12
REMARK    5  A    between atoms: C_15  and  C_16
REMARK    6  A    between atoms: C_16  and  C_17
REMARK    7  A    between atoms: C_17  and  C_18
REMARK    8  A    between atoms: C_18  and  C_19
REMARK                            x       y       z     vdW  Elec       q    Type
REMARK                         _______ _______ _______ _____ _____    ______ ____
ROOT
ATOM      1  C   UNL     1      49.219   7.640  15.182  0.00  0.00    +0.000 C 
ATOM      2  O   UNL     1      49.110   8.852  15.348  0.00  0.00    +0.000 OA
ATOM      3  N   UNL     1      48.512   6.971  14.217  0.00  0.00    +0.000 N 
ATOM      4  H   UNL     1      48.628   5.967  14.113  0.00  0.00    +0.000 HD
ENDROOT
BRANCH   1  10
ATOM      5  C   UNL     1      50.865   3.904  18.079  0.00  0.00    +0.000 A 
ATOM      6  N   UNL     1      49.717   3.212  18.010  0.00  0.00    +0.000 NA
ATOM      7  C   UNL     1      48.707   3.725  17.293  0.00  0.00    +0.000 A 
ATOM      8  N   UNL     1      48.688   4.874  16.604  0.00  0.00    +0.000 NA
ATOM      9  C   UNL     1      49.855   5.574  16.660  0.00  0.00    +0.000 A 
ATOM     10  C   UNL     1      50.112   6.835  16.016  0.00  0.00    +0.000 A 
ATOM     11  C   UNL     1      51.403   7.266  16.280  0.00  0.00    +0.000 A 
ATOM     12  S   UNL     1      52.280   6.199  17.269  0.00  0.00    +0.000 S 
ATOM     13  C   UNL     1      50.955   5.112  17.384  0.00  0.00    +0.000 A 
BRANCH   5  14
ATOM     14  N   UNL     1      51.886   3.391  18.848  0.00  0.00    +0.000 N 
ATOM     15  H   UNL     1      52.732   3.939  18.895  0.00  0.00    +0.000 HD
ATOM     16  H   UNL     1      51.679   2.716  19.569  0.00  0.00    +0.000 HD
ENDBRANCH   5  14
ENDBRANCH   1  10
BRANCH   3  17
ATOM     17  C   UNL     1      47.601   7.692  13.362  0.00  0.00    +0.000 C 
BRANCH  17  18
ATOM     18  C   UNL     1      46.550   6.798  12.764  0.00  0.00    +0.000 A 
ATOM     19  C   UNL     1      45.560   7.329  11.928  0.00  0.00    +0.000 A 
ATOM     20  C   UNL     1      44.593   6.498  11.359  0.00  0.00    +0.000 A 
ATOM     21  C   UNL     1      44.597   5.120  11.612  0.00  0.00    +0.000 A 
ATOM     22  C   UNL     1      45.576   4.594  12.464  0.00  0.00    +0.000 A 
ATOM     23  C   UNL     1      46.540   5.426  13.038  0.00  0.00    +0.000 A 
BRANCH  21  24
ATOM     24  C   UNL     1      43.562   4.211  10.988  0.00  0.00    +0.000 C 
BRANCH  24  25
ATOM     25  C   UNL     1      44.178   3.223   9.993  0.00  0.00    +0.000 C 
BRANCH  25  26
ATOM     26  C   UNL     1      44.839   3.945   8.818  0.00  0.00    +0.000 C 
BRANCH  26  27
ATOM     27  C   UNL     1      45.726   3.009   8.033  0.00  0.00    +0.000 A 
ATOM     28  C   UNL     1      45.889   1.676   8.432  0.00  0.00    +0.000 A 
ATOM     29  C   UNL     1      46.739   0.826   7.721  0.00  0.00    +0.000 A 
ATOM     30  C   UNL     1      47.434   1.301   6.610  0.00  0.00    +0.000 A 
ATOM     31  C   UNL     1      47.283   2.627   6.211  0.00  0.00    +0.000 A 
ATOM     32  C   UNL     1      46.435   3.478   6.920  0.00  0.00    +0.000 A 
ENDBRANCH  26  27
ENDBRANCH  25  26
ENDBRANCH  24  25
ENDBRANCH  21  24
ENDBRANCH  17  18
ENDBRANCH   3  17
TORSDOF 8
ENDMDL
MODEL 3
REMARK VINA RESULT:    -7.598      2.263      3.164
REMARK INTER + INTRA:         -12.224
REMARK INTER:                 -10.989
REMARK INTRA:                  -1.235
REMARK UNBOUND:                -1.295
REMARK  Name = 
REMARK  8 active torsions:
REMARK  status: ('A' for Active; 'I' for Inactive)
REMARK    1  A    between atoms: N_1  and  C_2
REMARK    2  A    between atoms: C_7  and  C_8
REMARK    3  A    between atoms: N_10  and  C_11
REMARK    4  A    between atoms: C_11  and  C_12
REMARK    5  A    between atoms: C_15  and  C_16
REMARK    6  A    between atoms: C_16  and  C_17
REMARK    7  A    between atoms: C_17  and  C_18
REMARK    8  A    between atoms: C_18  and  C_19
REMARK                            x       y       z     vdW  Elec       q    Type
REMARK                         _______ _______ _______ _____ _____    ______ ____
ROOT
ATOM      1  C   UNL     1      48.902   6.659  16.208  0.00  0.00    +0.000 C 
ATOM      2  O   UNL     1      49.896   5.961  16.021  0.00  0.00    +0.000 OA
ATOM      3  N   UNL     1      48.129   7.116  15.171  0.00  0.00    +0.000 N 
ATOM      4  H   UNL     1      47.315   7.693  15.367  0.00  0.00    +0.000 HD
ENDROOT
BRANCH   1  10
ATOM      5  C   UNL     1      47.401   9.519  20.032  0.00  0.00    +0.000 A 
ATOM      6  N   UNL     1      47.345  10.642  19.300  0.00  0.00    +0.000 NA
ATOM      7  C   UNL     1      47.675  10.573  18.002  0.00  0.00    +0.000 A 
ATOM      8  N   UNL     1      48.061   9.494  17.309  0.00  0.00    +0.000 NA
ATOM      9  C   UNL     1      48.108   8.349  18.044  0.00  0.00    +0.000 A 
ATOM     10  C   UNL     1      48.488   7.049  17.556  0.00  0.00    +0.000 A 
ATOM     11  C   UNL     1      48.424   6.107  18.570  0.00  0.00    +0.000 A 
ATOM     12  S   UNL     1      47.928   6.754  20.061  0.00  0.00    +0.000 S 
ATOM     13  C   UNL     1      47.781   8.333  19.400  0.00  0.00    +0.000 A 
BRANCH   5  14
ATOM     14  N   UNL     1      47.098   9.604  21.374  0.00  0.00    +0.000 N 
ATOM     15  H   UNL     1      46.815  10.511  21.713  0.00  0.00    +0.000 HD
ATOM     16  H   UNL     1      46.847   8.770  21.883  0.00  0.00    +0.000 HD
ENDBRANCH   5  14
ENDBRANCH   1  10
BRANCH   3  17
ATOM     17  C   UNL     1      48.478   6.784  13.813  0.00  0.00    +0.000 C 
BRANCH  17  18
ATOM     18  C   UNL     1      47.308   6.242  13.038  0.00  0.00    +0.000 A 
ATOM     19  C   UNL     1      46.994   6.758  11.775  0.00  0.00    +0.000 A 
ATOM     20  C   UNL     1      45.918   6.245  11.048  0.00  0.00    +0.000 A 
ATOM     21  C   UNL     1      45.136   5.204  11.566  0.00  0.00    +0.000 A 
ATOM     22  C   UNL     1      45.440   4.703  12.839  0.00  0.00    +0.000 A 
ATOM     23  C   UNL     1      46.514   5.219  13.569  0.00  0.00    +0.000 A 
BRANCH  21  24
ATOM     24  C   UNL     1      43.979   4.632  10.780  0.00  0.00    +0.000 C 
BRANCH  24  25
ATOM     25  C   UNL     1      44.401   3.457   9.892  0.00  0.00    +0.000 C 
BRANCH  25  26
ATOM     26  C   UNL     1      44.716   3.912   8.467  0.00  0.00    +0.000 C 
BRANCH  26  27
ATOM     27  C   UNL     1      45.744   3.013   7.823  0.00  0.00    +0.000 A 
ATOM     28  C   UNL     1      46.467   3.442   6.703  0.00  0.00    +0.000 A 
ATOM     29  C   UNL     1      47.392   2.592   6.092  0.00  0.00    +0.000 A 
ATOM     30  C   UNL     1      47.598   1.307   6.593  0.00  0.00    +0.000 A 
ATOM     31  C   UNL     1      46.877   0.870   7.703  0.00  0.00    +0.000 A 
ATOM     32  C   UNL     1      45.954   1.718   8.314  0.00  0.00    +0.000 A 
ENDBRANCH  26  27
ENDBRANCH  25  26
ENDBRANCH  24  25
ENDBRANCH  21  24
ENDBRANCH  17  18
ENDBRANCH   3  17
TORSDOF 8
ENDMDL
MODEL 4
REMARK VINA RESULT:    -7.202      1.887      2.580
REMARK INTER + INTRA:         -11.655
REMARK INTER:                 -10.359
REMARK INTRA:                  -1.296
REMARK UNBOUND:                -1.295
REMARK  Name = 
REMARK  8 active torsions:
REMARK  status: ('A' for Active; 'I' for Inactive)
REMARK    1  A    between atoms: N_1  and  C_2
REMARK    2  A    between atoms: C_7  and  C_8
REMARK    3  A    between atoms: N_10  and  C_11
REMARK    4  A    between atoms: C_11  and  C_12
REMARK    5  A    between atoms: C_15  and  C_16
REMARK    6  A    between atoms: C_16  and  C_17
REMARK    7  A    between atoms: C_17  and  C_18
REMARK    8  A    between atoms: C_18  and  C_19
REMARK                            x       y       z     vdW  Elec       q    Type
REMARK                         _______ _______ _______ _____ _____    ______ ____
ROOT
ATOM      1  C   UNL     1      48.737   8.513  13.600  0.00  0.00    +0.000 C 
ATOM      2  O   UNL     1      48.911   9.240  12.625  0.00  0.00    +0.000 OA
ATOM      3  N   UNL     1      47.489   8.086  13.976  0.00  0.00    +0.000 N 
ATOM      4  H   UNL     1      47.387   7.487  14.791  0.00  0.00    +0.000 HD
ENDROOT
BRANCH   1  10
ATOM      5  C   UNL     1      51.368   5.869  16.938  0.00  0.00    +0.000 A 
ATOM      6  N   UNL     1      50.350   5.047  17.238  0.00  0.00    +0.000 NA
ATOM      7  C   UNL     1      49.177   5.232  16.614  0.00  0.00    +0.000 A 
ATOM      8  N   UNL     1      48.874   6.157  15.694  0.00  0.00    +0.000 NA
ATOM      9  C   UNL     1      49.907   6.985  15.377  0.00  0.00    +0.000 A 
ATOM     10  C   UNL     1      49.860   8.063  14.424  0.00  0.00    +0.000 A 
ATOM     11  C   UNL     1      51.087   8.702  14.345  0.00  0.00    +0.000 A 
ATOM     12  S   UNL     1      52.259   8.038  15.380  0.00  0.00    +0.000 S 
ATOM     13  C   UNL     1      51.159   6.862  15.978  0.00  0.00    +0.000 A 
BRANCH   5  14
ATOM     14  N   UNL     1      52.559   5.698  17.610  0.00  0.00    +0.000 N 
ATOM     15  H   UNL     1      53.396   5.700  17.046  0.00  0.00    +0.000 HD
ATOM     16  H   UNL     1      52.611   5.903  18.596  0.00  0.00    +0.000 HD
ENDBRANCH   5  14
ENDBRANCH   1  10
BRANCH   3  17
ATOM     17  C   UNL     1      46.331   8.496  13.223  0.00  0.00    +0.000 C 
BRANCH  17  18
ATOM     18  C   UNL     1      45.613   7.330  12.599  0.00  0.00    +0.000 A 
ATOM     19  C   UNL     1      44.422   7.529  11.890  0.00  0.00    +0.000 A 
ATOM     20  C   UNL     1      43.763   6.450  11.297  0.00  0.00    +0.000 A 
ATOM     21  C   UNL     1      44.282   5.152  11.398  0.00  0.00    +0.000 A 
ATOM     22  C   UNL     1      45.462   4.954  12.125  0.00  0.00    +0.000 A 
ATOM     23  C   UNL     1      46.119   6.032  12.723  0.00  0.00    +0.000 A 
BRANCH  21  24
ATOM     24  C   UNL     1      43.583   3.981  10.746  0.00  0.00    +0.000 C 
BRANCH  24  25
ATOM     25  C   UNL     1      44.541   3.114   9.923  0.00  0.00    +0.000 C 
BRANCH  25  26
ATOM     26  C   UNL     1      44.889   3.773   8.588  0.00  0.00    +0.000 C 
BRANCH  26  27
ATOM     27  C   UNL     1      45.816   2.899   7.776  0.00  0.00    +0.000 A 
ATOM     28  C   UNL     1      46.127   1.601   8.198  0.00  0.00    +0.000 A 
ATOM     29  C   UNL     1      47.012   0.812   7.460  0.00  0.00    +0.000 A 
ATOM     30  C   UNL     1      47.595   1.315   6.298  0.00  0.00    +0.000 A 
ATOM     31  C   UNL     1      47.296   2.609   5.874  0.00  0.00    +0.000 A 
ATOM     32  C   UNL     1      46.412   3.398   6.611  0.00  0.00    +0.000 A 
ENDBRANCH  26  27
ENDBRANCH  25  26
ENDBRANCH  24  25
ENDBRANCH  21  24
ENDBRANCH  17  18
ENDBRANCH   3  17
TORSDOF 8
ENDMDL
MODEL 5
REMARK VINA RESULT:    -6.900      4.263      8.576
REMARK INTER + INTRA:         -11.220
REMARK INTER:                  -9.002
REMARK INTRA:                  -2.218
REMARK UNBOUND:                -1.295
REMARK  Name = 
REMARK  8 active torsions:
REMARK  status: ('A' for Active; 'I' for Inactive)
REMARK    1  A    between atoms: N_1  and  C_2
REMARK    2  A    between atoms: C_7  and  C_8
REMARK    3  A    between atoms: N_10  and  C_11
REMARK    4  A    between atoms: C_11  and  C_12
REMARK    5  A    between atoms: C_15  and  C_16
REMARK    6  A    between atoms: C_16  and  C_17
REMARK    7  A    between atoms: C_17  and  C_18
REMARK    8  A    between atoms: C_18  and  C_19
REMARK                            x       y       z     vdW  Elec       q    Type
REMARK                         _______ _______ _______ _____ _____    ______ ____
ROOT
ATOM      1  C   UNL     1      45.864   8.047  12.948  0.00  0.00    +0.000 C 
ATOM      2  O   UNL     1      45.520   9.199  12.694  0.00  0.00    +0.000 OA
ATOM      3  N   UNL     1      46.969   7.770  13.711  0.00  0.00    +0.000 N 
ATOM      4  H   UNL     1      47.222   6.803  13.897  0.00  0.00    +0.000 HD
ENDROOT
BRANCH   1  10
ATOM      5  C   UNL     1      44.551   3.300  12.054  0.00  0.00    +0.000 A 
ATOM      6  N   UNL     1      45.565   2.782  12.762  0.00  0.00    +0.000 NA
ATOM      7  C   UNL     1      46.426   3.624  13.351  0.00  0.00    +0.000 A 
ATOM      8  N   UNL     1      46.407   4.963  13.334  0.00  0.00    +0.000 NA
ATOM      9  C   UNL     1      45.372   5.495  12.626  0.00  0.00    +0.000 A 
ATOM     10  C   UNL     1      45.111   6.898  12.443  0.00  0.00    +0.000 A 
ATOM     11  C   UNL     1      43.976   7.089  11.671  0.00  0.00    +0.000 A 
ATOM     12  S   UNL     1      43.246   5.636  11.176  0.00  0.00    +0.000 S 
ATOM     13  C   UNL     1      44.432   4.691  11.983  0.00  0.00    +0.000 A 
BRANCH   5  14
ATOM     14  N   UNL     1      43.691   2.430  11.419  0.00  0.00    +0.000 N 
ATOM     15  H   UNL     1      43.255   2.767  10.573  0.00  0.00    +0.000 HD
ATOM     16  H   UNL     1      43.766   1.439  11.591  0.00  0.00    +0.000 HD
ENDBRANCH   5  14
ENDBRANCH   1  10
BRANCH   3  17
ATOM     17  C   UNL     1      47.770   8.847  14.236  0.00  0.00    +0.000 C 
BRANCH  17  18
ATOM     18  C   UNL     1      48.756   8.375  15.269  0.00  0.00    +0.000 A 
ATOM     19  C   UNL     1      48.777   8.952  16.545  0.00  0.00    +0.000 A 
ATOM     20  C   UNL     1      49.681   8.503  17.510  0.00  0.00    +0.000 A 
ATOM     21  C   UNL     1      50.581   7.468  17.221  0.00  0.00    +0.000 A 
ATOM     22  C   UNL     1      50.571   6.907  15.938  0.00  0.00    +0.000 A 
ATOM     23  C   UNL     1      49.670   7.359  14.970  0.00  0.00    +0.000 A 
BRANCH  21  24
ATOM     24  C   UNL     1      51.552   6.967  18.264  0.00  0.00    +0.000 C 
BRANCH  24  25
ATOM     25  C   UNL     1      50.854   6.199  19.391  0.00  0.00    +0.000 C 
BRANCH  25  26
ATOM     26  C   UNL     1      50.831   4.695  19.118  0.00  0.00    +0.000 C 
BRANCH  26  27
ATOM     27  C   UNL     1      49.565   4.291  18.401  0.00  0.00    +0.000 A 
ATOM     28  C   UNL     1      49.559   3.203  17.519  0.00  0.00    +0.000 A 
ATOM     29  C   UNL     1      48.392   2.857  16.834  0.00  0.00    +0.000 A 
ATOM     30  C   UNL     1      47.226   3.597  17.021  0.00  0.00    +0.000 A 
ATOM     31  C   UNL     1      47.225   4.686  17.891  0.00  0.00    +0.000 A 
ATOM     32  C   UNL     1      48.390   5.032  18.576  0.00  0.00    +0.000 A 
ENDBRANCH  26  27
ENDBRANCH  25  26
ENDBRANCH  24  25
ENDBRANCH  21  24
ENDBRANCH  17  18
ENDBRANCH   3  17
TORSDOF 8
ENDMDL
MODEL 6
REMARK VINA RESULT:    -6.715      3.988      4.888
REMARK INTER + INTRA:         -10.954
REMARK INTER:                  -9.489
REMARK INTRA:                  -1.465
REMARK UNBOUND:                -1.295
REMARK  Name = 
REMARK  8 active torsions:
REMARK  status: ('A' for Active; 'I' for Inactive)
REMARK    1  A    between atoms: N_1  and  C_2
REMARK    2  A    between atoms: C_7  and  C_8
REMARK    3  A    between atoms: N_10  and  C_11
REMARK    4  A    between atoms: C_11  and  C_12
REMARK    5  A    between atoms: C_15  and  C_16
REMARK    6  A    between atoms: C_16  and  C_17
REMARK    7  A    between atoms: C_17  and  C_18
REMARK    8  A    between atoms: C_18  and  C_19
REMARK                            x       y       z     vdW  Elec       q    Type
REMARK                         _______ _______ _______ _____ _____    ______ ____
ROOT
ATOM      1  C   UNL     1      48.299   9.231  13.739  0.00  0.00    +0.000 C 
ATOM      2  O   UNL     1      47.875   9.129  14.887  0.00  0.00    +0.000 OA
ATOM      3  N   UNL     1      47.490   9.054  12.646  0.00  0.00    +0.000 N 
ATOM      4  H   UNL     1      47.880   9.144  11.712  0.00  0.00    +0.000 HD
ENDROOT
BRANCH   1  10
ATOM      5  C   UNL     1      52.859   9.040  11.683  0.00  0.00    +0.000 A 
ATOM      6  N   UNL     1      52.536   8.068  10.816  0.00  0.00    +0.000 NA
ATOM      7  C   UNL     1      51.286   7.585  10.838  0.00  0.00    +0.000 A 
ATOM      8  N   UNL     1      50.274   7.959  11.633  0.00  0.00    +0.000 NA
ATOM      9  C   UNL     1      50.593   8.954  12.507  0.00  0.00    +0.000 A 
ATOM     10  C   UNL     1      49.703   9.545  13.471  0.00  0.00    +0.000 A 
ATOM     11  C   UNL     1      50.353  10.531  14.198  0.00  0.00    +0.000 A 
ATOM     12  S   UNL     1      51.976  10.743  13.744  0.00  0.00    +0.000 S 
ATOM     13  C   UNL     1      51.871   9.512  12.550  0.00  0.00    +0.000 A 
BRANCH   5  14
ATOM     14  N   UNL     1      54.156   9.506  11.682  0.00  0.00    +0.000 N 
ATOM     15  H   UNL     1      54.276  10.501  11.565  0.00  0.00    +0.000 HD
ATOM     16  H   UNL     1      54.886   8.954  12.107  0.00  0.00    +0.000 HD
ENDBRANCH   5  14
ENDBRANCH   1  10
BRANCH   3  17
ATOM     17  C   UNL     1      46.097   8.731  12.827  0.00  0.00    +0.000 C 
BRANCH  17  18
ATOM     18  C   UNL     1      45.788   7.306  12.457  0.00  0.00    +0.000 A 
ATOM     19  C   UNL     1      44.982   7.021  11.347  0.00  0.00    +0.000 A 
ATOM     20  C   UNL     1      44.708   5.698  10.993  0.00  0.00    +0.000 A 
ATOM     21  C   UNL     1      45.235   4.634  11.738  0.00  0.00    +0.000 A 
ATOM     22  C   UNL     1      46.024   4.923  12.858  0.00  0.00    +0.000 A 
ATOM     23  C   UNL     1      46.295   6.246  13.216  0.00  0.00    +0.000 A 
BRANCH  21  24
ATOM     24  C   UNL     1      44.955   3.200  11.352  0.00  0.00    +0.000 C 
BRANCH  24  25
ATOM     25  C   UNL     1      44.117   3.092  10.074  0.00  0.00    +0.000 C 
BRANCH  25  26
ATOM     26  C   UNL     1      44.498   1.859   9.254  0.00  0.00    +0.000 C 
BRANCH  26  27
ATOM     27  C   UNL     1      45.642   2.161   8.316  0.00  0.00    +0.000 A 
ATOM     28  C   UNL     1      45.822   3.450   7.798  0.00  0.00    +0.000 A 
ATOM     29  C   UNL     1      46.863   3.713   6.905  0.00  0.00    +0.000 A 
ATOM     30  C   UNL     1      47.728   2.691   6.519  0.00  0.00    +0.000 A 
ATOM     31  C   UNL     1      47.553   1.404   7.024  0.00  0.00    +0.000 A 
ATOM     32  C   UNL     1      46.514   1.140   7.917  0.00  0.00    +0.000 A 
ENDBRANCH  26  27
ENDBRANCH  25  26
ENDBRANCH  24  25
ENDBRANCH  21  24
ENDBRANCH  17  18
ENDBRANCH   3  17
TORSDOF 8
ENDMDL
MODEL 7
REMARK VINA RESULT:    -6.700      3.148      4.936
REMARK INTER + INTRA:         -10.932
REMARK INTER:                  -9.844
REMARK INTRA:                  -1.088
REMARK UNBOUND:                -1.295
REMARK  Name = 
REMARK  8 active torsions:
REMARK  status: ('A' for Active; 'I' for Inactive)
REMARK    1  A    between atoms: N_1  and  C_2
REMARK    2  A    between atoms: C_7  and  C_8
REMARK    3  A    between atoms: N_10  and  C_11
REMARK    4  A    between atoms: C_11  and  C_12
REMARK    5  A    between atoms: C_15  and  C_16
REMARK    6  A    between atoms: C_16  and  C_17
REMARK    7  A    between atoms: C_17  and  C_18
REMARK    8  A    between atoms: C_18  and  C_19
REMARK                            x       y       z     vdW  Elec       q    Type
REMARK                         _______ _______ _______ _____ _____    ______ ____
ROOT
ATOM      1  C   UNL     1      49.485   7.516  14.555  0.00  0.00    +0.000 C 
ATOM      2  O   UNL     1      50.108   6.712  15.244  0.00  0.00    +0.000 OA
ATOM      3  N   UNL     1      48.258   7.217  14.020  0.00  0.00    +0.000 N 
ATOM      4  H   UNL     1      47.775   7.909  13.453  0.00  0.00    +0.000 HD
ENDROOT
BRANCH   1  10
ATOM      5  C   UNL     1      51.867  11.206  12.156  0.00  0.00    +0.000 A 
ATOM      6  N   UNL     1      52.204  10.441  11.106  0.00  0.00    +0.000 NA
ATOM      7  C   UNL     1      51.827   9.154  11.110  0.00  0.00    +0.000 A 
ATOM      8  N   UNL     1      51.128   8.505  12.051  0.00  0.00    +0.000 NA
ATOM      9  C   UNL     1      50.773   9.281  13.112  0.00  0.00    +0.000 A 
ATOM     10  C   UNL     1      50.023   8.844  14.260  0.00  0.00    +0.000 A 
ATOM     11  C   UNL     1      49.837   9.889  15.151  0.00  0.00    +0.000 A 
ATOM     12  S   UNL     1      50.540  11.348  14.634  0.00  0.00    +0.000 S 
ATOM     13  C   UNL     1      51.125  10.629  13.188  0.00  0.00    +0.000 A 
BRANCH   5  14
ATOM     14  N   UNL     1      52.290  12.518  12.165  0.00  0.00    +0.000 N 
ATOM     15  H   UNL     1      52.969  12.766  12.869  0.00  0.00    +0.000 HD
ATOM     16  H   UNL     1      52.195  13.080  11.332  0.00  0.00    +0.000 HD
ENDBRANCH   5  14
ENDBRANCH   1  10
BRANCH   3  17
ATOM     17  C   UNL     1      47.665   5.925  14.255  0.00  0.00    +0.000 C 
BRANCH  17  18
ATOM     18  C   UNL     1      46.650   5.562  13.205  0.00  0.00    +0.000 A 
ATOM     19  C   UNL     1      46.572   6.292  12.013  0.00  0.00    +0.000 A 
ATOM     20  C   UNL     1      45.641   5.946  11.031  0.00  0.00    +0.000 A 
ATOM     21  C   UNL     1      44.773   4.863  11.219  0.00  0.00    +0.000 A 
ATOM     22  C   UNL     1      44.840   4.146  12.421  0.00  0.00    +0.000 A 
ATOM     23  C   UNL     1      45.768   4.495  13.406  0.00  0.00    +0.000 A 
BRANCH  21  24
ATOM     24  C   UNL     1      43.773   4.473  10.155  0.00  0.00    +0.000 C 
BRANCH  24  25
ATOM     25  C   UNL     1      44.449   4.021   8.856  0.00  0.00    +0.000 C 
BRANCH  25  26
ATOM     26  C   UNL     1      45.229   2.720   9.051  0.00  0.00    +0.000 C 
BRANCH  26  27
ATOM     27  C   UNL     1      46.067   2.401   7.836  0.00  0.00    +0.000 A 
ATOM     28  C   UNL     1      46.215   3.336   6.804  0.00  0.00    +0.000 A 
ATOM     29  C   UNL     1      46.963   3.021   5.668  0.00  0.00    +0.000 A 
ATOM     30  C   UNL     1      47.565   1.769   5.552  0.00  0.00    +0.000 A 
ATOM     31  C   UNL     1      47.416   0.829   6.571  0.00  0.00    +0.000 A 
ATOM     32  C   UNL     1      46.670   1.144   7.707  0.00  0.00    +0.000 A 
ENDBRANCH  26  27
ENDBRANCH  25  26
ENDBRANCH  24  25
ENDBRANCH  21  24
ENDBRANCH  17  18
ENDBRANCH   3  17
TORSDOF 8
ENDMDL
MODEL 8
REMARK VINA RESULT:    -6.623      3.651      9.006
REMARK INTER + INTRA:         -10.822
REMARK INTER:                  -8.719
REMARK INTRA:                  -2.103
REMARK UNBOUND:                -1.295
REMARK  Name = 
REMARK  8 active torsions:
REMARK  status: ('A' for Active; 'I' for Inactive)
REMARK    1  A    between atoms: N_1  and  C_2
REMARK    2  A    between atoms: C_7  and  C_8
REMARK    3  A    between atoms: N_10  and  C_11
REMARK    4  A    between atoms: C_11  and  C_12
REMARK    5  A    between atoms: C_15  and  C_16
REMARK    6  A    between atoms: C_16  and  C_17
REMARK    7  A    between atoms: C_17  and  C_18
REMARK    8  A    between atoms: C_18  and  C_19
REMARK                            x       y       z     vdW  Elec       q    Type
REMARK                         _______ _______ _______ _____ _____    ______ ____
ROOT
ATOM      1  C   UNL     1      45.589   6.654  12.393  0.00  0.00    +0.000 C 
ATOM      2  O   UNL     1      44.806   7.488  12.841  0.00  0.00    +0.000 OA
ATOM      3  N   UNL     1      46.935   6.898  12.299  0.00  0.00    +0.000 N 
ATOM      4  H   UNL     1      47.551   6.183  11.919  0.00  0.00    +0.000 HD
ENDROOT
BRANCH   1  10
ATOM      5  C   UNL     1      44.694   2.791   9.339  0.00  0.00    +0.000 A 
ATOM      6  N   UNL     1      45.294   3.359   8.281  0.00  0.00    +0.000 NA
ATOM      7  C   UNL     1      45.824   4.582   8.431  0.00  0.00    +0.000 A 
ATOM      8  N   UNL     1      45.844   5.339   9.536  0.00  0.00    +0.000 NA
ATOM      9  C   UNL     1      45.247   4.762  10.616  0.00  0.00    +0.000 A 
ATOM     10  C   UNL     1      45.125   5.348  11.924  0.00  0.00    +0.000 A 
ATOM     11  C   UNL     1      44.464   4.488  12.787  0.00  0.00    +0.000 A 
ATOM     12  S   UNL     1      44.000   3.026  12.057  0.00  0.00    +0.000 S 
ATOM     13  C   UNL     1      44.671   3.493  10.546  0.00  0.00    +0.000 A 
BRANCH   5  14
ATOM     14  N   UNL     1      44.118   1.551   9.168  0.00  0.00    +0.000 N 
ATOM     15  H   UNL     1      44.239   0.892   9.923  0.00  0.00    +0.000 HD
ATOM     16  H   UNL     1      43.359   1.438   8.513  0.00  0.00    +0.000 HD
ENDBRANCH   5  14
ENDBRANCH   1  10
BRANCH   3  17
ATOM     17  C   UNL     1      47.470   8.166  12.729  0.00  0.00    +0.000 C 
BRANCH  17  18
ATOM     18  C   UNL     1      48.116   8.084  14.085  0.00  0.00    +0.000 A 
ATOM     19  C   UNL     1      48.861   6.955  14.448  0.00  0.00    +0.000 A 
ATOM     20  C   UNL     1      49.474   6.885  15.700  0.00  0.00    +0.000 A 
ATOM     21  C   UNL     1      49.359   7.941  16.613  0.00  0.00    +0.000 A 
ATOM     22  C   UNL     1      48.596   9.060  16.255  0.00  0.00    +0.000 A 
ATOM     23  C   UNL     1      47.978   9.129  15.005  0.00  0.00    +0.000 A 
BRANCH  21  24
ATOM     24  C   UNL     1      50.032   7.879  17.965  0.00  0.00    +0.000 C 
BRANCH  24  25
ATOM     25  C   UNL     1      49.074   7.435  19.075  0.00  0.00    +0.000 C 
BRANCH  25  26
ATOM     26  C   UNL     1      49.426   6.043  19.599  0.00  0.00    +0.000 C 
BRANCH  26  27
ATOM     27  C   UNL     1      48.932   4.967  18.663  0.00  0.00    +0.000 A 
ATOM     28  C   UNL     1      49.797   3.966  18.203  0.00  0.00    +0.000 A 
ATOM     29  C   UNL     1      49.341   2.994  17.310  0.00  0.00    +0.000 A 
ATOM     30  C   UNL     1      48.020   3.018  16.866  0.00  0.00    +0.000 A 
ATOM     31  C   UNL     1      47.154   4.014  17.312  0.00  0.00    +0.000 A 
ATOM     32  C   UNL     1      47.608   4.985  18.205  0.00  0.00    +0.000 A 
ENDBRANCH  26  27
ENDBRANCH  25  26
ENDBRANCH  24  25
ENDBRANCH  21  24
ENDBRANCH  17  18
ENDBRANCH   3  17
TORSDOF 8
ENDMDL
MODEL 9
REMARK VINA RESULT:    -6.592      4.419     10.099
REMARK INTER + INTRA:         -10.777
REMARK INTER:                  -8.671
REMARK INTRA:                  -2.106
REMARK UNBOUND:                -1.295
REMARK  Name = 
REMARK  8 active torsions:
REMARK  status: ('A' for Active; 'I' for Inactive)
REMARK    1  A    between atoms: N_1  and  C_2
REMARK    2  A    between atoms: C_7  and  C_8
REMARK    3  A    between atoms: N_10  and  C_11
REMARK    4  A    between atoms: C_11  and  C_12
REMARK    5  A    between atoms: C_15  and  C_16
REMARK    6  A    between atoms: C_16  and  C_17
REMARK    7  A    between atoms: C_17  and  C_18
REMARK    8  A    between atoms: C_18  and  C_19
REMARK                            x       y       z     vdW  Elec       q    Type
REMARK                         _______ _______ _______ _____ _____    ______ ____
ROOT
ATOM      1  C   UNL     1      47.027   4.308  14.600  0.00  0.00    +0.000 C 
ATOM      2  O   UNL     1      47.368   3.151  14.366  0.00  0.00    +0.000 OA
ATOM      3  N   UNL     1      47.483   4.993  15.696  0.00  0.00    +0.000 N 
ATOM      4  H   UNL     1      47.175   5.948  15.857  0.00  0.00    +0.000 HD
ENDROOT
BRANCH   1  10
ATOM      5  C   UNL     1      45.028   7.986  11.857  0.00  0.00    +0.000 A 
ATOM      6  N   UNL     1      46.017   8.854  12.119  0.00  0.00    +0.000 NA
ATOM      7  C   UNL     1      47.020   8.455  12.914  0.00  0.00    +0.000 A 
ATOM      8  N   UNL     1      47.179   7.260  13.499  0.00  0.00    +0.000 NA
ATOM      9  C   UNL     1      46.185   6.371  13.225  0.00  0.00    +0.000 A 
ATOM     10  C   UNL     1      46.102   5.022  13.719  0.00  0.00    +0.000 A 
ATOM     11  C   UNL     1      44.961   4.395  13.244  0.00  0.00    +0.000 A 
ATOM     12  S   UNL     1      44.014   5.388  12.242  0.00  0.00    +0.000 S 
ATOM     13  C   UNL     1      45.104   6.705  12.408  0.00  0.00    +0.000 A 
BRANCH   5  14
ATOM     14  N   UNL     1      43.980   8.415  11.070  0.00  0.00    +0.000 N 
ATOM     15  H   UNL     1      44.217   8.734  10.143  0.00  0.00    +0.000 HD
ATOM     16  H   UNL     1      43.041   8.109  11.278  0.00  0.00    +0.000 HD
ENDBRANCH   5  14
ENDBRANCH   1  10
BRANCH   3  17
ATOM     17  C   UNL     1      48.388   4.354  16.619  0.00  0.00    +0.000 C 
BRANCH  17  18
ATOM     18  C   UNL     1      48.201   4.839  18.031  0.00  0.00    +0.000 A 
ATOM     19  C   UNL     1      47.056   5.561  18.386  0.00  0.00    +0.000 A 
ATOM     20  C   UNL     1      46.873   5.998  19.700  0.00  0.00    +0.000 A 
ATOM     21  C   UNL     1      47.830   5.720  20.685  0.00  0.00    +0.000 A 
ATOM     22  C   UNL     1      48.985   5.015  20.323  0.00  0.00    +0.000 A 
ATOM     23  C   UNL     1      49.170   4.582  19.007  0.00  0.00    +0.000 A 
BRANCH  21  24
ATOM     24  C   UNL     1      47.634   6.176  22.113  0.00  0.00    +0.000 C 
BRANCH  24  25
ATOM     25  C   UNL     1      47.434   7.691  22.219  0.00  0.00    +0.000 C 
BRANCH  25  26
ATOM     26  C   UNL     1      48.659   8.457  21.718  0.00  0.00    +0.000 C 
BRANCH  26  27
ATOM     27  C   UNL     1      48.374   9.138  20.401  0.00  0.00    +0.000 A 
ATOM     28  C   UNL     1      49.146   8.855  19.267  0.00  0.00    +0.000 A 
ATOM     29  C   UNL     1      48.897   9.514  18.061  0.00  0.00    +0.000 A 
ATOM     30  C   UNL     1      47.880  10.464  17.980  0.00  0.00    +0.000 A 
ATOM     31  C   UNL     1      47.112  10.757  19.106  0.00  0.00    +0.000 A 
ATOM     32  C   UNL     1      47.359  10.099  20.311  0.00  0.00    +0.000 A 
ENDBRANCH  26  27
ENDBRANCH  25  26
ENDBRANCH  24  25
ENDBRANCH  21  24
ENDBRANCH  17  18
ENDBRANCH   3  17
TORSDOF 8
ENDMDL
