MODEL 1
REMARK VINA RESULT:    -8.203      0.000      0.000
REMARK INTER + INTRA:         -11.922
REMARK INTER:                 -11.081
REMARK INTRA:                  -0.841
REMARK UNBOUND:                -0.841
REMARK  Name = 
REMARK  6 active torsions:
REMARK  status: ('A' for Active; 'I' for Inactive)
REMARK    1  A    between atoms: C_2  and  C_25
REMARK    2  A    between atoms: N_3  and  C_4
REMARK    3  A    between atoms: C_4  and  C_5
REMARK    4  A    between atoms: C_8  and  C_9
REMARK    5  A    between atoms: C_9  and  N_10
REMARK    6  A    between atoms: C_11  and  C_13
REMARK                            x       y       z     vdW  Elec       q    Type
REMARK                         _______ _______ _______ _____ _____    ______ ____
ROOT
ATOM      1  C   UNL     1      44.912   5.198  10.729  0.00  0.00    +0.000 A 
ATOM      2  C   UNL     1      44.386   5.412  12.001  0.00  0.00    +0.000 A 
ATOM      3  C   UNL     1      45.029   6.302  12.859  0.00  0.00    +0.000 A 
ATOM      4  C   UNL     1      46.173   6.976  12.428  0.00  0.00    +0.000 A 
ATOM      5  C   UNL     1      46.636   6.687  11.149  0.00  0.00    +0.000 A 
ATOM      6  N   UNL     1      46.032   5.829  10.292  0.00  0.00    +0.000 NA
ENDROOT
BRANCH   1   7
ATOM      7  C   UNL     1      44.209   4.276   9.761  0.00  0.00    +0.000 C 
BRANCH   7  10
ATOM      8  O   UNL     1      45.215   1.690   9.223  0.00  0.00    +0.000 OA
ATOM      9  C   UNL     1      45.502   2.610   8.464  0.00  0.00    +0.000 C 
ATOM     10  N   UNL     1      45.064   3.898   8.653  0.00  0.00    +0.000 N 
ATOM     11  H   UNL     1      45.208   4.603   7.940  0.00  0.00    +0.000 HD
BRANCH   9  12
ATOM     12  C   UNL     1      46.294   2.329   7.245  0.00  0.00    +0.000 A 
ATOM     13  C   UNL     1      46.447   3.364   6.312  0.00  0.00    +0.000 A 
ATOM     14  C   UNL     1      47.195   3.154   5.154  0.00  0.00    +0.000 A 
ATOM     15  C   UNL     1      47.764   1.907   4.960  0.00  0.00    +0.000 A 
ATOM     16  N   UNL     1      47.621   0.879   5.822  0.00  0.00    +0.000 NA
ATOM     17  C   UNL     1      46.883   1.110   6.939  0.00  0.00    +0.000 A 
ATOM     18 CL   UNL     1      46.733  -0.317   7.895  0.00  0.00    +0.000 Cl
ENDBRANCH   9  12
ENDBRANCH   7  10
ENDBRANCH   1   7
BRANCH   4  19
ATOM     19  C   UNL     1      46.889   7.958  13.306  0.00  0.00    +0.000 C 
BRANCH  19  20
ATOM     20  N   UNL     1      47.366   7.345  14.519  0.00  0.00    +0.000 N 
ATOM     21  C   UNL     1      48.630   6.816  14.592  0.00  0.00    +0.000 C 
ATOM     22  O   UNL     1      49.420   6.893  13.653  0.00  0.00    +0.000 OA
ATOM     23  H   UNL     1      46.674   7.075  15.212  0.00  0.00    +0.000 HD
BRANCH  21  24
ATOM     24  C   UNL     1      49.017   6.205  15.869  0.00  0.00    +0.000 A 
ATOM     25  C   UNL     1      50.086   6.728  16.585  0.00  0.00    +0.000 A 
ATOM     26  S   UNL     1      50.374   5.931  18.066  0.00  0.00    +0.000 S 
ATOM     27  C   UNL     1      49.113   4.824  17.777  0.00  0.00    +0.000 A 
ATOM     28  N   UNL     1      48.838   3.831  18.667  0.00  0.00    +0.000 NA
ATOM     29  C   UNL     1      47.879   3.045  18.306  0.00  0.00    +0.000 A 
ATOM     30  N   UNL     1      47.166   3.165  17.141  0.00  0.00    +0.000 N 
ATOM     31  C   UNL     1      47.388   4.167  16.230  0.00  0.00    +0.000 A 
ATOM     32  O   UNL     1      46.703   4.278  15.218  0.00  0.00    +0.000 OA
ATOM     33  C   UNL     1      48.469   5.072  16.578  0.00  0.00    +0.000 A 
ATOM     34  H   UNL     1      46.422   2.520  16.922  0.00  0.00    +0.000 HD
ENDBRANCH  21  24
ENDBRANCH  19  20
ENDBRANCH   4  19
TORSDOF 6
ENDMDL
MODEL 2
REMARK VINA RESULT:    -7.823      3.610      8.913
REMARK INTER + INTRA:         -11.408
REMARK INTER:                 -10.417
REMARK INTRA:                  -0.992
REMARK UNBOUND:                -0.841
REMARK  Name = 
REMARK  6 active torsions:
REMARK  status: ('A' for Active; 'I' for Inactive)
REMARK    1  A    between atoms: C_2  and  C_25
REMARK    2  A    between atoms: N_3  and  C_4
REMARK    3  A    between atoms: C_4  and  C_5
REMARK    4  A    between atoms: C_8  and  C_9
REMARK    5  A    between atoms: C_9  and  N_10
REMARK    6  A    between atoms: C_11  and  C_13
REMARK                            x       y       z     vdW  Elec       q    Type
REMARK                         _______ _______ _______ _____ _____    ______ ____
ROOT
ATOM      1  C   UNL     1      50.094   7.301  15.518  0.00  0.00    +0.000 A 
ATOM      2  C   UNL     1      50.257   8.435  14.726  0.00  0.00    +0.000 A 
ATOM      3  C   UNL     1      49.440   8.606  13.611  0.00  0.00    +0.000 A 
ATOM      4  C   UNL     1      48.463   7.654  13.315  0.00  0.00    +0.000 A 
ATOM      5  C   UNL     1      48.383   6.546  14.151  0.00  0.00    +0.000 A 
ATOM      6  N   UNL     1      49.161   6.353  15.243  0.00  0.00    +0.000 NA
ENDROOT
BRANCH   1   7
ATOM      7  C   UNL     1      50.933   7.114  16.760  0.00  0.00    +0.000 C 
BRANCH   7  10
ATOM      8  O   UNL     1      49.868   5.108  18.442  0.00  0.00    +0.000 OA
ATOM      9  C   UNL     1      50.830   4.839  17.730  0.00  0.00    +0.000 C 
ATOM     10  N   UNL     1      51.416   5.753  16.889  0.00  0.00    +0.000 N 
ATOM     11  H   UNL     1      52.120   5.464  16.221  0.00  0.00    +0.000 HD
BRANCH   9  12
ATOM     12  C   UNL     1      51.354   3.454  17.706  0.00  0.00    +0.000 A 
ATOM     13  C   UNL     1      52.684   3.251  18.100  0.00  0.00    +0.000 A 
ATOM     14  C   UNL     1      53.220   1.964  18.108  0.00  0.00    +0.000 A 
ATOM     15  C   UNL     1      52.409   0.915  17.713  0.00  0.00    +0.000 A 
ATOM     16  N   UNL     1      51.133   1.071  17.305  0.00  0.00    +0.000 NA
ATOM     17  C   UNL     1      50.637   2.336  17.303  0.00  0.00    +0.000 A 
ATOM     18 CL   UNL     1      49.027   2.375  16.687  0.00  0.00    +0.000 Cl
ENDBRANCH   9  12
ENDBRANCH   7  10
ENDBRANCH   1   7
BRANCH   4  19
ATOM     19  C   UNL     1      47.546   7.802  12.138  0.00  0.00    +0.000 C 
BRANCH  19  20
ATOM     20  N   UNL     1      46.865   6.571  11.831  0.00  0.00    +0.000 N 
ATOM     21  C   UNL     1      45.498   6.484  11.904  0.00  0.00    +0.000 C 
ATOM     22  O   UNL     1      44.800   7.458  12.179  0.00  0.00    +0.000 OA
ATOM     23  H   UNL     1      47.417   5.718  11.824  0.00  0.00    +0.000 HD
BRANCH  21  24
ATOM     24  C   UNL     1      44.901   5.183  11.580  0.00  0.00    +0.000 A 
ATOM     25  C   UNL     1      44.161   4.507  12.541  0.00  0.00    +0.000 A 
ATOM     26  S   UNL     1      43.500   3.035  11.988  0.00  0.00    +0.000 S 
ATOM     27  C   UNL     1      44.225   3.222  10.460  0.00  0.00    +0.000 A 
ATOM     28  N   UNL     1      44.075   2.273   9.494  0.00  0.00    +0.000 NA
ATOM     29  C   UNL     1      44.704   2.527   8.397  0.00  0.00    +0.000 A 
ATOM     30  N   UNL     1      45.463   3.647   8.171  0.00  0.00    +0.000 N 
ATOM     31  C   UNL     1      45.617   4.644   9.103  0.00  0.00    +0.000 A 
ATOM     32  O   UNL     1      46.264   5.658   8.858  0.00  0.00    +0.000 OA
ATOM     33  C   UNL     1      44.942   4.401  10.365  0.00  0.00    +0.000 A 
ATOM     34  H   UNL     1      45.924   3.790   7.286  0.00  0.00    +0.000 HD
ENDBRANCH  21  24
ENDBRANCH  19  20
ENDBRANCH   4  19
TORSDOF 6
ENDMDL
MODEL 3
REMARK VINA RESULT:    -7.385      2.616      3.146
REMARK INTER + INTRA:         -10.816
REMARK INTER:                  -9.879
REMARK INTRA:                  -0.937
REMARK UNBOUND:                -0.841
REMARK  Name = 
REMARK  6 active torsions:
REMARK  status: ('A' for Active; 'I' for Inactive)
REMARK    1  A    between atoms: C_2  and  C_25
REMARK    2  A    between atoms: N_3  and  C_4
REMARK    3  A    between atoms: C_4  and  C_5
REMARK    4  A    between atoms: C_8  and  C_9
REMARK    5  A    between atoms: C_9  and  N_10
REMARK    6  A    between atoms: C_11  and  C_13
REMARK                            x       y       z     vdW  Elec       q    Type
REMARK                         _______ _______ _______ _____ _____    ______ ____
ROOT
ATOM      1  C   UNL     1      45.328   4.448  12.183  0.00  0.00    +0.000 A 
ATOM      2  C   UNL     1      45.674   5.676  11.625  0.00  0.00    +0.000 A 
ATOM      3  C   UNL     1      46.575   6.497  12.300  0.00  0.00    +0.000 A 
ATOM      4  C   UNL     1      47.131   6.070  13.507  0.00  0.00    +0.000 A 
ATOM      5  C   UNL     1      46.715   4.837  13.997  0.00  0.00    +0.000 A 
ATOM      6  N   UNL     1      45.842   4.017  13.363  0.00  0.00    +0.000 NA
ENDROOT
BRANCH   1   7
ATOM      7  C   UNL     1      44.390   3.517  11.450  0.00  0.00    +0.000 C 
BRANCH   7  10
ATOM      8  O   UNL     1      44.434   4.006   8.667  0.00  0.00    +0.000 OA
ATOM      9  C   UNL     1      45.053   3.045   9.113  0.00  0.00    +0.000 C 
ATOM     10  N   UNL     1      45.080   2.728  10.449  0.00  0.00    +0.000 N 
ATOM     11  H   UNL     1      45.705   2.012  10.798  0.00  0.00    +0.000 HD
BRANCH   9  12
ATOM     12  C   UNL     1      45.873   2.218   8.198  0.00  0.00    +0.000 A 
ATOM     13  C   UNL     1      45.838   0.828   8.365  0.00  0.00    +0.000 A 
ATOM     14  C   UNL     1      46.581   0.005   7.520  0.00  0.00    +0.000 A 
ATOM     15  C   UNL     1      47.346   0.602   6.533  0.00  0.00    +0.000 A 
ATOM     16  N   UNL     1      47.424   1.936   6.353  0.00  0.00    +0.000 NA
ATOM     17  C   UNL     1      46.694   2.714   7.194  0.00  0.00    +0.000 A 
ATOM     18 CL   UNL     1      46.959   4.389   6.885  0.00  0.00    +0.000 Cl
ENDBRANCH   9  12
ENDBRANCH   7  10
ENDBRANCH   1   7
BRANCH   4  19
ATOM     19  C   UNL     1      48.121   6.907  14.261  0.00  0.00    +0.000 C 
BRANCH  19  20
ATOM     20  N   UNL     1      48.040   6.683  15.681  0.00  0.00    +0.000 N 
ATOM     21  C   UNL     1      49.156   6.352  16.408  0.00  0.00    +0.000 C 
ATOM     22  O   UNL     1      50.269   6.286  15.891  0.00  0.00    +0.000 OA
ATOM     23  H   UNL     1      47.120   6.513  16.078  0.00  0.00    +0.000 HD
BRANCH  21  24
ATOM     24  C   UNL     1      48.967   6.136  17.847  0.00  0.00    +0.000 A 
ATOM     25  C   UNL     1      49.335   4.924  18.415  0.00  0.00    +0.000 A 
ATOM     26  S   UNL     1      49.092   4.854  20.102  0.00  0.00    +0.000 S 
ATOM     27  C   UNL     1      48.435   6.424  20.125  0.00  0.00    +0.000 A 
ATOM     28  N   UNL     1      47.988   6.978  21.287  0.00  0.00    +0.000 NA
ATOM     29  C   UNL     1      47.485   8.159  21.154  0.00  0.00    +0.000 A 
ATOM     30  N   UNL     1      47.395   8.842  19.968  0.00  0.00    +0.000 N 
ATOM     31  C   UNL     1      47.859   8.337  18.779  0.00  0.00    +0.000 A 
ATOM     32  O   UNL     1      47.807   8.988  17.741  0.00  0.00    +0.000 OA
ATOM     33  C   UNL     1      48.421   7.001  18.868  0.00  0.00    +0.000 A 
ATOM     34  H   UNL     1      46.996   9.768  19.934  0.00  0.00    +0.000 HD
ENDBRANCH  21  24
ENDBRANCH  19  20
ENDBRANCH   4  19
TORSDOF 6
ENDMDL
MODEL 4
REMARK VINA RESULT:    -7.362      4.022      8.419
REMARK INTER + INTRA:         -10.785
REMARK INTER:                  -9.767
REMARK INTRA:                  -1.019
REMARK UNBOUND:                -0.841
REMARK  Name = 
REMARK  6 active torsions:
REMARK  status: ('A' for Active; 'I' for Inactive)
REMARK    1  A    between atoms: C_2  and  C_25
REMARK    2  A    between atoms: N_3  and  C_4
REMARK    3  A    between atoms: C_4  and  C_5
REMARK    4  A    between atoms: C_8  and  C_9
REMARK    5  A    between atoms: C_9  and  N_10
REMARK    6  A    between atoms: C_11  and  C_13
REMARK                            x       y       z     vdW  Elec       q    Type
REMARK                         _______ _______ _______ _____ _____    ______ ____
ROOT
ATOM      1  C   UNL     1      48.958   7.481  16.335  0.00  0.00    +0.000 A 
ATOM      2  C   UNL     1      48.498   8.790  16.203  0.00  0.00    +0.000 A 
ATOM      3  C   UNL     1      47.883   9.175  15.014  0.00  0.00    +0.000 A 
ATOM      4  C   UNL     1      47.720   8.246  13.986  0.00  0.00    +0.000 A 
ATOM      5  C   UNL     1      48.224   6.967  14.199  0.00  0.00    +0.000 A 
ATOM      6  N   UNL     1      48.825   6.563  15.344  0.00  0.00    +0.000 NA
ENDROOT
BRANCH   1   7
ATOM      7  C   UNL     1      49.585   7.023  17.631  0.00  0.00    +0.000 C 
BRANCH   7  10
ATOM      8  O   UNL     1      49.088   4.621  19.035  0.00  0.00    +0.000 OA
ATOM      9  C   UNL     1      49.985   4.647  18.198  0.00  0.00    +0.000 C 
ATOM     10  N   UNL     1      50.299   5.771  17.475  0.00  0.00    +0.000 N 
ATOM     11  H   UNL     1      50.952   5.723  16.702  0.00  0.00    +0.000 HD
BRANCH   9  12
ATOM     12  C   UNL     1      50.724   3.403  17.884  0.00  0.00    +0.000 A 
ATOM     13  C   UNL     1      52.060   3.314  18.298  0.00  0.00    +0.000 A 
ATOM     14  C   UNL     1      52.796   2.159  18.039  0.00  0.00    +0.000 A 
ATOM     15  C   UNL     1      52.172   1.124  17.364  0.00  0.00    +0.000 A 
ATOM     16  N   UNL     1      50.896   1.179  16.928  0.00  0.00    +0.000 NA
ATOM     17  C   UNL     1      50.204   2.319  17.190  0.00  0.00    +0.000 A 
ATOM     18 CL   UNL     1      48.623   2.261  16.506  0.00  0.00    +0.000 Cl
ENDBRANCH   9  12
ENDBRANCH   7  10
ENDBRANCH   1   7
BRANCH   4  19
ATOM     19  C   UNL     1      47.047   8.605  12.695  0.00  0.00    +0.000 C 
BRANCH  19  20
ATOM     20  N   UNL     1      46.255   7.517  12.182  0.00  0.00    +0.000 N 
ATOM     21  C   UNL     1      46.750   6.680  11.213  0.00  0.00    +0.000 C 
ATOM     22  O   UNL     1      47.897   6.790  10.786  0.00  0.00    +0.000 OA
ATOM     23  H   UNL     1      45.253   7.545  12.349  0.00  0.00    +0.000 HD
BRANCH  21  24
ATOM     24  C   UNL     1      45.862   5.608  10.751  0.00  0.00    +0.000 A 
ATOM     25  C   UNL     1      45.682   5.403   9.389  0.00  0.00    +0.000 A 
ATOM     26  S   UNL     1      44.657   4.089   9.023  0.00  0.00    +0.000 S 
ATOM     27  C   UNL     1      44.373   3.781  10.673  0.00  0.00    +0.000 A 
ATOM     28  N   UNL     1      43.539   2.778  11.063  0.00  0.00    +0.000 NA
ATOM     29  C   UNL     1      43.391   2.677  12.342  0.00  0.00    +0.000 A 
ATOM     30  N   UNL     1      44.004   3.482  13.266  0.00  0.00    +0.000 N 
ATOM     31  C   UNL     1      44.876   4.485  12.920  0.00  0.00    +0.000 A 
ATOM     32  O   UNL     1      45.447   5.161  13.771  0.00  0.00    +0.000 OA
ATOM     33  C   UNL     1      45.068   4.654  11.491  0.00  0.00    +0.000 A 
ATOM     34  H   UNL     1      43.851   3.346  14.254  0.00  0.00    +0.000 HD
ENDBRANCH  21  24
ENDBRANCH  19  20
ENDBRANCH   4  19
TORSDOF 6
ENDMDL
MODEL 5
REMARK VINA RESULT:    -7.283      2.144      2.626
REMARK INTER + INTRA:         -10.679
REMARK INTER:                  -9.754
REMARK INTRA:                  -0.925
REMARK UNBOUND:                -0.841
REMARK  Name = 
REMARK  6 active torsions:
REMARK  status: ('A' for Active; 'I' for Inactive)
REMARK    1  A    between atoms: C_2  and  C_25
REMARK    2  A    between atoms: N_3  and  C_4
REMARK    3  A    between atoms: C_4  and  C_5
REMARK    4  A    between atoms: C_8  and  C_9
REMARK    5  A    between atoms: C_9  and  N_10
REMARK    6  A    between atoms: C_11  and  C_13
REMARK                            x       y       z     vdW  Elec       q    Type
REMARK                         _______ _______ _______ _____ _____    ______ ____
ROOT
ATOM      1  C   UNL     1      44.767   4.840  11.936  0.00  0.00    +0.000 A 
ATOM      2  C   UNL     1      45.915   4.864  12.725  0.00  0.00    +0.000 A 
ATOM      3  C   UNL     1      46.452   6.092  13.103  0.00  0.00    +0.000 A 
ATOM      4  C   UNL     1      45.826   7.274  12.706  0.00  0.00    +0.000 A 
ATOM      5  C   UNL     1      44.694   7.156  11.906  0.00  0.00    +0.000 A 
ATOM      6  N   UNL     1      44.148   5.976  11.523  0.00  0.00    +0.000 NA
ENDROOT
BRANCH   1   7
ATOM      7  C   UNL     1      44.136   3.523  11.550  0.00  0.00    +0.000 C 
BRANCH   7  10
ATOM      8  O   UNL     1      44.165   3.952   8.757  0.00  0.00    +0.000 OA
ATOM      9  C   UNL     1      44.889   3.084   9.234  0.00  0.00    +0.000 C 
ATOM     10  N   UNL     1      44.934   2.803  10.577  0.00  0.00    +0.000 N 
ATOM     11  H   UNL     1      45.635   2.176  10.951  0.00  0.00    +0.000 HD
BRANCH   9  12
ATOM     12  C   UNL     1      45.819   2.344   8.350  0.00  0.00    +0.000 A 
ATOM     13  C   UNL     1      45.791   0.944   8.397  0.00  0.00    +0.000 A 
ATOM     14  C   UNL     1      46.636   0.201   7.575  0.00  0.00    +0.000 A 
ATOM     15  C   UNL     1      47.494   0.885   6.730  0.00  0.00    +0.000 A 
ATOM     16  N   UNL     1      47.567   2.231   6.671  0.00  0.00    +0.000 NA
ATOM     17  C   UNL     1      46.735   2.930   7.487  0.00  0.00    +0.000 A 
ATOM     18 CL   UNL     1      47.003   4.627   7.347  0.00  0.00    +0.000 Cl
ENDBRANCH   9  12
ENDBRANCH   7  10
ENDBRANCH   1   7
BRANCH   4  19
ATOM     19  C   UNL     1      46.353   8.620  13.104  0.00  0.00    +0.000 C 
BRANCH  19  20
ATOM     20  N   UNL     1      46.929   8.601  14.424  0.00  0.00    +0.000 N 
ATOM     21  C   UNL     1      48.238   8.959  14.627  0.00  0.00    +0.000 C 
ATOM     22  O   UNL     1      48.951   9.359  13.709  0.00  0.00    +0.000 OA
ATOM     23  H   UNL     1      46.441   8.072  15.142  0.00  0.00    +0.000 HD
BRANCH  21  24
ATOM     24  C   UNL     1      48.733   8.897  16.008  0.00  0.00    +0.000 A 
ATOM     25  C   UNL     1      48.998  10.073  16.696  0.00  0.00    +0.000 A 
ATOM     26  S   UNL     1      49.521   9.824  18.301  0.00  0.00    +0.000 S 
ATOM     27  C   UNL     1      49.463   8.133  18.115  0.00  0.00    +0.000 A 
ATOM     28  N   UNL     1      49.825   7.305  19.134  0.00  0.00    +0.000 NA
ATOM     29  C   UNL     1      49.764   6.049  18.845  0.00  0.00    +0.000 A 
ATOM     30  N   UNL     1      49.368   5.543  17.633  0.00  0.00    +0.000 N 
ATOM     31  C   UNL     1      48.966   6.338  16.589  0.00  0.00    +0.000 A 
ATOM     32  O   UNL     1      48.572   5.857  15.530  0.00  0.00    +0.000 OA
ATOM     33  C   UNL     1      49.030   7.764  16.854  0.00  0.00    +0.000 A 
ATOM     34  H   UNL     1      49.335   4.548  17.474  0.00  0.00    +0.000 HD
ENDBRANCH  21  24
ENDBRANCH  19  20
ENDBRANCH   4  19
TORSDOF 6
ENDMDL
MODEL 6
REMARK VINA RESULT:    -7.074      2.703      3.262
REMARK INTER + INTRA:         -10.396
REMARK INTER:                  -9.662
REMARK INTRA:                  -0.734
REMARK UNBOUND:                -0.841
REMARK  Name = 
REMARK  6 active torsions:
REMARK  status: ('A' for Active; 'I' for Inactive)
REMARK    1  A    between atoms: C_2  and  C_25
REMARK    2  A    between atoms: N_3  and  C_4
REMARK    3  A    between atoms: C_4  and  C_5
REMARK    4  A    between atoms: C_8  and  C_9
REMARK    5  A    between atoms: C_9  and  N_10
REMARK    6  A    between atoms: C_11  and  C_13
REMARK                            x       y       z     vdW  Elec       q    Type
REMARK                         _______ _______ _______ _____ _____    ______ ____
ROOT
ATOM      1  C   UNL     1      45.291   4.391  11.602  0.00  0.00    +0.000 A 
ATOM      2  C   UNL     1      45.858   5.634  11.878  0.00  0.00    +0.000 A 
ATOM      3  C   UNL     1      46.628   5.787  13.028  0.00  0.00    +0.000 A 
ATOM      4  C   UNL     1      46.837   4.695  13.873  0.00  0.00    +0.000 A 
ATOM      5  C   UNL     1      46.219   3.498  13.527  0.00  0.00    +0.000 A 
ATOM      6  N   UNL     1      45.467   3.318  12.415  0.00  0.00    +0.000 NA
ENDROOT
BRANCH   1   7
ATOM      7  C   UNL     1      44.492   4.184  10.337  0.00  0.00    +0.000 C 
BRANCH   7  10
ATOM      8  O   UNL     1      44.744   1.654   9.105  0.00  0.00    +0.000 OA
ATOM      9  C   UNL     1      45.394   2.597   8.666  0.00  0.00    +0.000 C 
ATOM     10  N   UNL     1      45.339   3.859   9.206  0.00  0.00    +0.000 N 
ATOM     11  H   UNL     1      45.783   4.640   8.741  0.00  0.00    +0.000 HD
BRANCH   9  12
ATOM     12  C   UNL     1      46.226   2.409   7.455  0.00  0.00    +0.000 A 
ATOM     13  C   UNL     1      46.384   3.502   6.594  0.00  0.00    +0.000 A 
ATOM     14  C   UNL     1      47.169   3.380   5.448  0.00  0.00    +0.000 A 
ATOM     15  C   UNL     1      47.768   2.159   5.193  0.00  0.00    +0.000 A 
ATOM     16  N   UNL     1      47.622   1.076   5.984  0.00  0.00    +0.000 NA
ATOM     17  C   UNL     1      46.848   1.222   7.091  0.00  0.00    +0.000 A 
ATOM     18 CL   UNL     1      46.700  -0.264   7.951  0.00  0.00    +0.000 Cl
ENDBRANCH   9  12
ENDBRANCH   7  10
ENDBRANCH   1   7
BRANCH   4  19
ATOM     19  C   UNL     1      47.674   4.803  15.112  0.00  0.00    +0.000 C 
BRANCH  19  20
ATOM     20  N   UNL     1      47.716   6.152  15.614  0.00  0.00    +0.000 N 
ATOM     21  C   UNL     1      48.900   6.720  16.012  0.00  0.00    +0.000 C 
ATOM     22  O   UNL     1      49.972   6.125  15.907  0.00  0.00    +0.000 OA
ATOM     23  H   UNL     1      46.840   6.569  15.915  0.00  0.00    +0.000 HD
BRANCH  21  24
ATOM     24  C   UNL     1      48.836   8.096  16.517  0.00  0.00    +0.000 A 
ATOM     25  C   UNL     1      49.379   9.130  15.767  0.00  0.00    +0.000 A 
ATOM     26  S   UNL     1      49.180  10.669  16.475  0.00  0.00    +0.000 S 
ATOM     27  C   UNL     1      48.407  10.002  17.837  0.00  0.00    +0.000 A 
ATOM     28  N   UNL     1      47.994  10.795  18.864  0.00  0.00    +0.000 NA
ATOM     29  C   UNL     1      47.453  10.154  19.846  0.00  0.00    +0.000 A 
ATOM     30  N   UNL     1      47.282   8.794  19.892  0.00  0.00    +0.000 N 
ATOM     31  C   UNL     1      47.655   7.960  18.868  0.00  0.00    +0.000 A 
ATOM     32  O   UNL     1      47.447   6.751  18.916  0.00  0.00    +0.000 OA
ATOM     33  C   UNL     1      48.284   8.628  17.743  0.00  0.00    +0.000 A 
ATOM     34  H   UNL     1      46.844   8.355  20.688  0.00  0.00    +0.000 HD
ENDBRANCH  21  24
ENDBRANCH  19  20
ENDBRANCH   4  19
TORSDOF 6
ENDMDL
MODEL 7
REMARK VINA RESULT:    -6.820      3.306      5.050
REMARK INTER + INTRA:         -10.053
REMARK INTER:                  -9.004
REMARK INTRA:                  -1.049
REMARK UNBOUND:                -0.841
REMARK  Name = 
REMARK  6 active torsions:
REMARK  status: ('A' for Active; 'I' for Inactive)
REMARK    1  A    between atoms: C_2  and  C_25
REMARK    2  A    between atoms: N_3  and  C_4
REMARK    3  A    between atoms: C_4  and  C_5
REMARK    4  A    between atoms: C_8  and  C_9
REMARK    5  A    between atoms: C_9  and  N_10
REMARK    6  A    between atoms: C_11  and  C_13
REMARK                            x       y       z     vdW  Elec       q    Type
REMARK                         _______ _______ _______ _____ _____    ______ ____
ROOT
ATOM      1  C   UNL     1      48.108   7.242  13.997  0.00  0.00    +0.000 A 
ATOM      2  C   UNL     1      47.972   5.972  14.553  0.00  0.00    +0.000 A 
ATOM      3  C   UNL     1      48.274   5.786  15.900  0.00  0.00    +0.000 A 
ATOM      4  C   UNL     1      48.686   6.872  16.674  0.00  0.00    +0.000 A 
ATOM      5  C   UNL     1      48.809   8.099  16.032  0.00  0.00    +0.000 A 
ATOM      6  N   UNL     1      48.522   8.311  14.725  0.00  0.00    +0.000 NA
ENDROOT
BRANCH   1   7
ATOM      7  C   UNL     1      47.741   7.482  12.552  0.00  0.00    +0.000 C 
BRANCH   7  10
ATOM      8  O   UNL     1      45.113   7.423  11.515  0.00  0.00    +0.000 OA
ATOM      9  C   UNL     1      45.791   6.401  11.477  0.00  0.00    +0.000 C 
ATOM     10  N   UNL     1      47.074   6.337  11.964  0.00  0.00    +0.000 N 
ATOM     11  H   UNL     1      47.649   5.521  11.798  0.00  0.00    +0.000 HD
BRANCH   9  12
ATOM     12  C   UNL     1      45.250   5.192  10.815  0.00  0.00    +0.000 A 
ATOM     13  C   UNL     1      45.554   4.995   9.462  0.00  0.00    +0.000 A 
ATOM     14  C   UNL     1      45.080   3.865   8.797  0.00  0.00    +0.000 A 
ATOM     15  C   UNL     1      44.306   2.965   9.509  0.00  0.00    +0.000 A 
ATOM     16  N   UNL     1      43.972   3.129  10.805  0.00  0.00    +0.000 NA
ATOM     17  C   UNL     1      44.444   4.241  11.427  0.00  0.00    +0.000 A 
ATOM     18 CL   UNL     1      43.869   4.342  13.049  0.00  0.00    +0.000 Cl
ENDBRANCH   9  12
ENDBRANCH   7  10
ENDBRANCH   1   7
BRANCH   4  19
ATOM     19  C   UNL     1      49.004   6.728  18.133  0.00  0.00    +0.000 C 
BRANCH  19  20
ATOM     20  N   UNL     1      49.949   5.669  18.374  0.00  0.00    +0.000 N 
ATOM     21  C   UNL     1      51.293   5.864  18.179  0.00  0.00    +0.000 C 
ATOM     22  O   UNL     1      51.747   6.957  17.846  0.00  0.00    +0.000 OA
ATOM     23  H   UNL     1      49.587   4.721  18.427  0.00  0.00    +0.000 HD
BRANCH  21  24
ATOM     24  C   UNL     1      52.172   4.720  18.443  0.00  0.00    +0.000 A 
ATOM     25  C   UNL     1      53.370   4.914  19.116  0.00  0.00    +0.000 A 
ATOM     26  S   UNL     1      54.249   3.476  19.382  0.00  0.00    +0.000 S 
ATOM     27  C   UNL     1      53.084   2.549  18.558  0.00  0.00    +0.000 A 
ATOM     28  N   UNL     1      53.246   1.206  18.396  0.00  0.00    +0.000 NA
ATOM     29  C   UNL     1      52.303   0.634  17.725  0.00  0.00    +0.000 A 
ATOM     30  N   UNL     1      51.210   1.279  17.207  0.00  0.00    +0.000 N 
ATOM     31  C   UNL     1      50.990   2.624  17.371  0.00  0.00    +0.000 A 
ATOM     32  O   UNL     1      49.979   3.167  16.936  0.00  0.00    +0.000 OA
ATOM     33  C   UNL     1      52.029   3.321  18.106  0.00  0.00    +0.000 A 
ATOM     34  H   UNL     1      50.503   0.771  16.697  0.00  0.00    +0.000 HD
ENDBRANCH  21  24
ENDBRANCH  19  20
ENDBRANCH   4  19
TORSDOF 6
ENDMDL
MODEL 8
REMARK VINA RESULT:    -6.781      5.114      6.939
REMARK INTER + INTRA:         -10.000
REMARK INTER:                  -9.019
REMARK INTRA:                  -0.981
REMARK UNBOUND:                -0.841
REMARK  Name = 
REMARK  6 active torsions:
REMARK  status: ('A' for Active; 'I' for Inactive)
REMARK    1  A    between atoms: C_2  and  C_25
REMARK    2  A    between atoms: N_3  and  C_4
REMARK    3  A    between atoms: C_4  and  C_5
REMARK    4  A    between atoms: C_8  and  C_9
REMARK    5  A    between atoms: C_9  and  N_10
REMARK    6  A    between atoms: C_11  and  C_13
REMARK                            x       y       z     vdW  Elec       q    Type
REMARK                         _______ _______ _______ _____ _____    ______ ____
ROOT
ATOM      1  C   UNL     1      45.986   7.931  12.502  0.00  0.00    +0.000 A 
ATOM      2  C   UNL     1      44.949   7.002  12.477  0.00  0.00    +0.000 A 
ATOM      3  C   UNL     1      45.142   5.754  13.065  0.00  0.00    +0.000 A 
ATOM      4  C   UNL     1      46.358   5.462  13.685  0.00  0.00    +0.000 A 
ATOM      5  C   UNL     1      47.342   6.443  13.648  0.00  0.00    +0.000 A 
ATOM      6  N   UNL     1      47.183   7.665  13.085  0.00  0.00    +0.000 NA
ENDROOT
BRANCH   1   7
ATOM      7  C   UNL     1      45.788   9.308  11.914  0.00  0.00    +0.000 C 
BRANCH   7  10
ATOM      8  O   UNL     1      44.596  11.862  11.711  0.00  0.00    +0.000 OA
ATOM      9  C   UNL     1      43.898  10.865  11.554  0.00  0.00    +0.000 C 
ATOM     10  N   UNL     1      44.392   9.587  11.642  0.00  0.00    +0.000 N 
ATOM     11  H   UNL     1      43.821   8.793  11.378  0.00  0.00    +0.000 HD
BRANCH   9  12
ATOM     12  C   UNL     1      42.474  11.024  11.181  0.00  0.00    +0.000 A 
ATOM     13  C   UNL     1      41.527  11.051  12.212  0.00  0.00    +0.000 A 
ATOM     14  C   UNL     1      40.175  11.212  11.914  0.00  0.00    +0.000 A 
ATOM     15  C   UNL     1      39.809  11.335  10.584  0.00  0.00    +0.000 A 
ATOM     16  N   UNL     1      40.687  11.292   9.562  0.00  0.00    +0.000 NA
ATOM     17  C   UNL     1      41.997  11.129   9.881  0.00  0.00    +0.000 A 
ATOM     18 CL   UNL     1      42.976  11.018   8.467  0.00  0.00    +0.000 Cl
ENDBRANCH   9  12
ENDBRANCH   7  10
ENDBRANCH   1   7
BRANCH   4  19
ATOM     19  C   UNL     1      46.608   4.141  14.351  0.00  0.00    +0.000 C 
BRANCH  19  20
ATOM     20  N   UNL     1      47.773   4.179  15.196  0.00  0.00    +0.000 N 
ATOM     21  C   UNL     1      47.656   4.108  16.562  0.00  0.00    +0.000 C 
ATOM     22  O   UNL     1      46.567   3.956  17.112  0.00  0.00    +0.000 OA
ATOM     23  H   UNL     1      48.637   4.524  14.789  0.00  0.00    +0.000 HD
BRANCH  21  24
ATOM     24  C   UNL     1      48.902   4.165  17.335  0.00  0.00    +0.000 A 
ATOM     25  C   UNL     1      49.152   5.255  18.157  0.00  0.00    +0.000 A 
ATOM     26  S   UNL     1      50.620   5.141  19.019  0.00  0.00    +0.000 S 
ATOM     27  C   UNL     1      50.999   3.654  18.282  0.00  0.00    +0.000 A 
ATOM     28  N   UNL     1      52.165   3.010  18.567  0.00  0.00    +0.000 NA
ATOM     29  C   UNL     1      52.338   1.911  17.913  0.00  0.00    +0.000 A 
ATOM     30  N   UNL     1      51.450   1.391  17.007  0.00  0.00    +0.000 N 
ATOM     31  C   UNL     1      50.249   1.989  16.712  0.00  0.00    +0.000 A 
ATOM     32  O   UNL     1      49.452   1.477  15.932  0.00  0.00    +0.000 OA
ATOM     33  C   UNL     1      50.010   3.240  17.408  0.00  0.00    +0.000 A 
ATOM     34  H   UNL     1      51.642   0.521  16.535  0.00  0.00    +0.000 HD
ENDBRANCH  21  24
ENDBRANCH  19  20
ENDBRANCH   4  19
TORSDOF 6
ENDMDL
MODEL 9
REMARK VINA RESULT:    -6.604      6.203      8.148
REMARK INTER + INTRA:          -9.761
REMARK INTER:                  -8.891
REMARK INTRA:                  -0.871
REMARK UNBOUND:                -0.841
REMARK  Name = 
REMARK  6 active torsions:
REMARK  status: ('A' for Active; 'I' for Inactive)
REMARK    1  A    between atoms: C_2  and  C_25
REMARK    2  A    between atoms: N_3  and  C_4
REMARK    3  A    between atoms: C_4  and  C_5
REMARK    4  A    between atoms: C_8  and  C_9
REMARK    5  A    between atoms: C_9  and  N_10
REMARK    6  A    between atoms: C_11  and  C_13
REMARK                            x       y       z     vdW  Elec       q    Type
REMARK                         _______ _______ _______ _____ _____    ______ ____
ROOT
ATOM      1  C   UNL     1      44.049  11.660   9.706  0.00  0.00    +0.000 A 
ATOM      2  C   UNL     1      43.215  10.587  10.012  0.00  0.00    +0.000 A 
ATOM      3  C   UNL     1      43.614   9.674  10.985  0.00  0.00    +0.000 A 
ATOM      4  C   UNL     1      44.827   9.858  11.651  0.00  0.00    +0.000 A 
ATOM      5  C   UNL     1      45.602  10.947  11.269  0.00  0.00    +0.000 A 
ATOM      6  N   UNL     1      45.240  11.851  10.327  0.00  0.00    +0.000 NA
ENDROOT
BRANCH   1   7
ATOM      7  C   UNL     1      43.619  12.691   8.688  0.00  0.00    +0.000 C 
BRANCH   7  10
ATOM      8  O   UNL     1      43.828  10.840   6.563  0.00  0.00    +0.000 OA
ATOM      9  C   UNL     1      44.566  11.820   6.574  0.00  0.00    +0.000 C 
ATOM     10  N   UNL     1      44.538  12.765   7.570  0.00  0.00    +0.000 N 
ATOM     11  H   UNL     1      45.065  13.625   7.481  0.00  0.00    +0.000 HD
BRANCH   9  12
ATOM     12  C   UNL     1      45.484  12.053   5.436  0.00  0.00    +0.000 A 
ATOM     13  C   UNL     1      46.861  11.956   5.677  0.00  0.00    +0.000 A 
ATOM     14  C   UNL     1      47.767  12.153   4.635  0.00  0.00    +0.000 A 
ATOM     15  C   UNL     1      47.265  12.449   3.380  0.00  0.00    +0.000 A 
ATOM     16  N   UNL     1      45.949  12.573   3.112  0.00  0.00    +0.000 NA
ATOM     17  C   UNL     1      45.089  12.381   4.146  0.00  0.00    +0.000 A 
ATOM     18 CL   UNL     1      43.457  12.648   3.660  0.00  0.00    +0.000 Cl
ENDBRANCH   9  12
ENDBRANCH   7  10
ENDBRANCH   1   7
BRANCH   4  19
ATOM     19  C   UNL     1      45.292   8.915  12.720  0.00  0.00    +0.000 C 
BRANCH  19  20
ATOM     20  N   UNL     1      44.797   7.579  12.510  0.00  0.00    +0.000 N 
ATOM     21  C   UNL     1      45.585   6.619  11.927  0.00  0.00    +0.000 C 
ATOM     22  O   UNL     1      46.752   6.841  11.613  0.00  0.00    +0.000 OA
ATOM     23  H   UNL     1      43.792   7.439  12.551  0.00  0.00    +0.000 HD
BRANCH  21  24
ATOM     24  C   UNL     1      44.985   5.292  11.748  0.00  0.00    +0.000 A 
ATOM     25  C   UNL     1      44.352   4.673  12.818  0.00  0.00    +0.000 A 
ATOM     26  S   UNL     1      43.670   3.159  12.428  0.00  0.00    +0.000 S 
ATOM     27  C   UNL     1      44.244   3.251  10.829  0.00  0.00    +0.000 A 
ATOM     28  N   UNL     1      44.023   2.237   9.947  0.00  0.00    +0.000 NA
ATOM     29  C   UNL     1      44.541   2.425   8.780  0.00  0.00    +0.000 A 
ATOM     30  N   UNL     1      45.254   3.536   8.410  0.00  0.00    +0.000 N 
ATOM     31  C   UNL     1      45.475   4.596   9.255  0.00  0.00    +0.000 A 
ATOM     32  O   UNL     1      46.077   5.599   8.883  0.00  0.00    +0.000 OA
ATOM     33  C   UNL     1      44.927   4.430  10.589  0.00  0.00    +0.000 A 
ATOM     34  H   UNL     1      45.627   3.625   7.477  0.00  0.00    +0.000 HD
ENDBRANCH  21  24
ENDBRANCH  19  20
ENDBRANCH   4  19
TORSDOF 6
ENDMDL
