MODEL 1
REMARK VINA RESULT:    -7.399      0.000      0.000
REMARK INTER + INTRA:         -12.108
REMARK INTER:                 -10.643
REMARK INTRA:                  -1.465
REMARK UNBOUND:                -1.465
REMARK  Name = 
REMARK  11 active torsions:
REMARK  status: ('A' for Active; 'I' for Inactive)
REMARK    1  A    between atoms: C_1  and  O_2
REMARK    2  A    between atoms: O_2  and  C_3
REMARK    3  A    between atoms: C_5  and  C_6
REMARK    4  A    between atoms: C_11  and  C_12
REMARK    5  A    between atoms: C_12  and  O_13
REMARK    6  A    between atoms: C_15  and  C_16
REMARK    7  A    between atoms: C_16  and  C_17
REMARK    8  A    between atoms: C_16  and  C_18
REMARK    9  A    between atoms: C_18  and  N_19
REMARK   10  A    between atoms: C_23  and  C_24
REMARK   11  A    between atoms: C_27  and  C_28
REMARK                            x       y       z     vdW  Elec       q    Type
REMARK                         _______ _______ _______ _____ _____    ______ ____
ROOT
ATOM      1  C   UNL     1      45.171   9.116  11.984  0.00  0.00    +0.000 A 
ATOM      2  C   UNL     1      44.688   7.887  11.520  0.00  0.00    +0.000 A 
ATOM      3  C   UNL     1      45.536   6.788  11.318  0.00  0.00    +0.000 A 
ATOM      4  C   UNL     1      46.919   7.014  11.497  0.00  0.00    +0.000 A 
ATOM      5  C   UNL     1      47.445   8.257  11.893  0.00  0.00    +0.000 A 
ATOM      6  C   UNL     1      46.545   9.295  12.164  0.00  0.00    +0.000 A 
ENDROOT
BRANCH   3   7
ATOM      7  C   UNL     1      45.035   5.433  10.928  0.00  0.00    +0.000 A 
ATOM      8  C   UNL     1      45.239   5.010   9.590  0.00  0.00    +0.000 A 
ATOM      9  C   UNL     1      44.898   3.733   9.144  0.00  0.00    +0.000 A 
ATOM     10  C   UNL     1      44.307   2.838  10.018  0.00  0.00    +0.000 A 
ATOM     11  C   UNL     1      44.052   3.225  11.328  0.00  0.00    +0.000 A 
ATOM     12  C   UNL     1      44.413   4.505  11.814  0.00  0.00    +0.000 A 
BRANCH  12  13
ATOM     13  C   UNL     1      44.064   4.837  13.252  0.00  0.00    +0.000 C 
BRANCH  13  14
ATOM     14  O   UNL     1      42.823   5.528  13.377  0.00  0.00    +0.000 OA
ATOM     15  H   UNL     1      42.648   5.949  12.519  0.00  0.00    +0.000 HD
ENDBRANCH  13  14
ENDBRANCH  12  13
ENDBRANCH   3   7
BRANCH   1  17
ATOM     16  C   UNL     1      44.580  11.367  11.482  0.00  0.00    +0.000 C 
ATOM     17  O   UNL     1      44.398  10.206  12.287  0.00  0.00    +0.000 OA
ENDBRANCH   1  17
BRANCH   5  18
ATOM     18  C   UNL     1      48.947   8.473  12.039  0.00  0.00    +0.000 C 
ATOM     19  C   UNL     1      49.242   9.753  12.835  0.00  0.00    +0.000 C 
BRANCH  18  20
ATOM     20  C   UNL     1      49.651   7.230  12.655  0.00  0.00    +0.000 C 
BRANCH  20  21
ATOM     21  N   UNL     1      50.147   7.541  14.000  0.00  0.00    +0.000 N 
ATOM     22  C   UNL     1      49.548   6.858  15.068  0.00  0.00    +0.000 A 
ATOM     23  C   UNL     1      49.916   7.184  16.370  0.00  0.00    +0.000 A 
ATOM     24  N   UNL     1      49.399   6.603  17.482  0.00  0.00    +0.000 NA
ATOM     25  C   UNL     1      48.447   5.643  17.251  0.00  0.00    +0.000 A 
ATOM     26  C   UNL     1      48.057   5.290  15.956  0.00  0.00    +0.000 A 
ATOM     27  C   UNL     1      47.073   4.224  15.605  0.00  0.00    +0.000 C 
ATOM     28  N   UNL     1      48.605   5.916  14.860  0.00  0.00    +0.000 NA
ATOM     29  H   UNL     1      51.158   7.447  14.068  0.00  0.00    +0.000 HD
BRANCH  25  30
ATOM     30  C   UNL     1      47.887   5.039  18.514  0.00  0.00    +0.000 C 
ATOM     31  N   UNL     1      46.634   5.488  18.857  0.00  0.00    +0.000 N 
ATOM     32  O   UNL     1      48.449   4.210  19.210  0.00  0.00    +0.000 OA
ATOM     33  H   UNL     1      46.159   6.150  18.255  0.00  0.00    +0.000 HD
ATOM     34  H   UNL     1      46.172   5.106  19.669  0.00  0.00    +0.000 HD
ENDBRANCH  25  30
ENDBRANCH  20  21
ENDBRANCH  18  20
ENDBRANCH   5  18
TORSDOF 8
ENDMDL
MODEL 2
REMARK VINA RESULT:    -6.947      1.641      2.154
REMARK INTER + INTRA:         -11.458
REMARK INTER:                 -10.286
REMARK INTRA:                  -1.172
REMARK UNBOUND:                -1.465
REMARK  Name = 
REMARK  11 active torsions:
REMARK  status: ('A' for Active; 'I' for Inactive)
REMARK    1  A    between atoms: C_1  and  O_2
REMARK    2  A    between atoms: O_2  and  C_3
REMARK    3  A    between atoms: C_5  and  C_6
REMARK    4  A    between atoms: C_11  and  C_12
REMARK    5  A    between atoms: C_12  and  O_13
REMARK    6  A    between atoms: C_15  and  C_16
REMARK    7  A    between atoms: C_16  and  C_17
REMARK    8  A    between atoms: C_16  and  C_18
REMARK    9  A    between atoms: C_18  and  N_19
REMARK   10  A    between atoms: C_23  and  C_24
REMARK   11  A    between atoms: C_27  and  C_28
REMARK                            x       y       z     vdW  Elec       q    Type
REMARK                         _______ _______ _______ _____ _____    ______ ____
ROOT
ATOM      1  C   UNL     1      45.191   8.986  12.035  0.00  0.00    +0.000 A 
ATOM      2  C   UNL     1      44.740   7.815  11.416  0.00  0.00    +0.000 A 
ATOM      3  C   UNL     1      45.535   6.660  11.351  0.00  0.00    +0.000 A 
ATOM      4  C   UNL     1      46.855   6.772  11.841  0.00  0.00    +0.000 A 
ATOM      5  C   UNL     1      47.364   7.957  12.403  0.00  0.00    +0.000 A 
ATOM      6  C   UNL     1      46.500   9.052  12.520  0.00  0.00    +0.000 A 
ENDROOT
BRANCH   3   7
ATOM      7  C   UNL     1      45.042   5.362  10.795  0.00  0.00    +0.000 A 
ATOM      8  C   UNL     1      45.413   5.025   9.469  0.00  0.00    +0.000 A 
ATOM      9  C   UNL     1      45.088   3.800   8.885  0.00  0.00    +0.000 A 
ATOM     10  C   UNL     1      44.348   2.875   9.600  0.00  0.00    +0.000 A 
ATOM     11  C   UNL     1      43.929   3.181  10.889  0.00  0.00    +0.000 A 
ATOM     12  C   UNL     1      44.268   4.405  11.516  0.00  0.00    +0.000 A 
BRANCH  12  13
ATOM     13  C   UNL     1      43.735   4.652  12.914  0.00  0.00    +0.000 C 
BRANCH  13  14
ATOM     14  O   UNL     1      42.515   5.389  12.922  0.00  0.00    +0.000 OA
ATOM     15  H   UNL     1      41.794   4.738  12.949  0.00  0.00    +0.000 HD
ENDBRANCH  13  14
ENDBRANCH  12  13
ENDBRANCH   3   7
BRANCH   1  17
ATOM     16  C   UNL     1      43.569  10.489  11.154  0.00  0.00    +0.000 C 
ATOM     17  O   UNL     1      44.447  10.123  12.213  0.00  0.00    +0.000 OA
ENDBRANCH   1  17
BRANCH   5  18
ATOM     18  C   UNL     1      48.807   8.050  12.885  0.00  0.00    +0.000 C 
ATOM     19  C   UNL     1      49.615   9.024  12.013  0.00  0.00    +0.000 C 
BRANCH  18  20
ATOM     20  C   UNL     1      48.889   8.418  14.394  0.00  0.00    +0.000 C 
BRANCH  20  21
ATOM     21  N   UNL     1      48.243   7.380  15.206  0.00  0.00    +0.000 N 
ATOM     22  C   UNL     1      49.087   6.541  15.947  0.00  0.00    +0.000 A 
ATOM     23  C   UNL     1      48.532   5.482  16.660  0.00  0.00    +0.000 A 
ATOM     24  N   UNL     1      49.246   4.598  17.400  0.00  0.00    +0.000 NA
ATOM     25  C   UNL     1      50.603   4.802  17.407  0.00  0.00    +0.000 A 
ATOM     26  C   UNL     1      51.191   5.857  16.705  0.00  0.00    +0.000 A 
ATOM     27  C   UNL     1      52.647   6.190  16.696  0.00  0.00    +0.000 C 
ATOM     28  N   UNL     1      50.424   6.722  15.960  0.00  0.00    +0.000 NA
ATOM     29  H   UNL     1      47.529   7.762  15.822  0.00  0.00    +0.000 HD
BRANCH  25  30
ATOM     30  C   UNL     1      51.357   3.785  18.226  0.00  0.00    +0.000 C 
ATOM     31  N   UNL     1      51.533   4.128  19.546  0.00  0.00    +0.000 N 
ATOM     32  O   UNL     1      51.791   2.724  17.810  0.00  0.00    +0.000 OA
ATOM     33  H   UNL     1      51.138   4.994  19.893  0.00  0.00    +0.000 HD
ATOM     34  H   UNL     1      51.995   3.484  20.172  0.00  0.00    +0.000 HD
ENDBRANCH  25  30
ENDBRANCH  20  21
ENDBRANCH  18  20
ENDBRANCH   5  18
TORSDOF 8
ENDMDL
MODEL 3
REMARK VINA RESULT:    -6.873      2.885      6.700
REMARK INTER + INTRA:         -11.351
REMARK INTER:                  -9.789
REMARK INTRA:                  -1.562
REMARK UNBOUND:                -1.465
REMARK  Name = 
REMARK  11 active torsions:
REMARK  status: ('A' for Active; 'I' for Inactive)
REMARK    1  A    between atoms: C_1  and  O_2
REMARK    2  A    between atoms: O_2  and  C_3
REMARK    3  A    between atoms: C_5  and  C_6
REMARK    4  A    between atoms: C_11  and  C_12
REMARK    5  A    between atoms: C_12  and  O_13
REMARK    6  A    between atoms: C_15  and  C_16
REMARK    7  A    between atoms: C_16  and  C_17
REMARK    8  A    between atoms: C_16  and  C_18
REMARK    9  A    between atoms: C_18  and  N_19
REMARK   10  A    between atoms: C_23  and  C_24
REMARK   11  A    between atoms: C_27  and  C_28
REMARK                            x       y       z     vdW  Elec       q    Type
REMARK                         _______ _______ _______ _____ _____    ______ ____
ROOT
ATOM      1  C   UNL     1      48.379   8.595  18.594  0.00  0.00    +0.000 A 
ATOM      2  C   UNL     1      48.731   7.240  18.587  0.00  0.00    +0.000 A 
ATOM      3  C   UNL     1      49.036   6.562  17.396  0.00  0.00    +0.000 A 
ATOM      4  C   UNL     1      48.861   7.283  16.194  0.00  0.00    +0.000 A 
ATOM      5  C   UNL     1      48.438   8.625  16.162  0.00  0.00    +0.000 A 
ATOM      6  C   UNL     1      48.231   9.277  17.384  0.00  0.00    +0.000 A 
ENDROOT
BRANCH   3   7
ATOM      7  C   UNL     1      49.521   5.147  17.367  0.00  0.00    +0.000 A 
ATOM      8  C   UNL     1      50.920   4.926  17.406  0.00  0.00    +0.000 A 
ATOM      9  C   UNL     1      51.478   3.649  17.477  0.00  0.00    +0.000 A 
ATOM     10  C   UNL     1      50.652   2.540  17.481  0.00  0.00    +0.000 A 
ATOM     11  C   UNL     1      49.275   2.710  17.403  0.00  0.00    +0.000 A 
ATOM     12  C   UNL     1      48.681   3.995  17.357  0.00  0.00    +0.000 A 
BRANCH  12  13
ATOM     13  C   UNL     1      47.171   4.069  17.244  0.00  0.00    +0.000 C 
BRANCH  13  14
ATOM     14  O   UNL     1      46.525   2.856  17.622  0.00  0.00    +0.000 OA
ATOM     15  H   UNL     1      46.679   2.741  18.575  0.00  0.00    +0.000 HD
ENDBRANCH  13  14
ENDBRANCH  12  13
ENDBRANCH   3   7
BRANCH   1  17
ATOM     16  C   UNL     1      47.337   8.761  20.728  0.00  0.00    +0.000 C 
ATOM     17  O   UNL     1      48.151   9.346  19.717  0.00  0.00    +0.000 OA
ENDBRANCH   1  17
BRANCH   5  18
ATOM     18  C   UNL     1      48.223   9.357  14.843  0.00  0.00    +0.000 C 
ATOM     19  C   UNL     1      49.248  10.489  14.672  0.00  0.00    +0.000 C 
BRANCH  18  20
ATOM     20  C   UNL     1      48.229   8.380  13.633  0.00  0.00    +0.000 C 
BRANCH  20  21
ATOM     21  N   UNL     1      46.900   8.327  13.015  0.00  0.00    +0.000 N 
ATOM     22  C   UNL     1      46.319   7.059  12.873  0.00  0.00    +0.000 A 
ATOM     23  C   UNL     1      45.101   6.943  12.208  0.00  0.00    +0.000 A 
ATOM     24  N   UNL     1      44.450   5.772  11.998  0.00  0.00    +0.000 NA
ATOM     25  C   UNL     1      45.081   4.656  12.486  0.00  0.00    +0.000 A 
ATOM     26  C   UNL     1      46.303   4.738  13.160  0.00  0.00    +0.000 A 
ATOM     27  C   UNL     1      47.036   3.590  13.771  0.00  0.00    +0.000 C 
ATOM     28  N   UNL     1      46.928   5.950  13.340  0.00  0.00    +0.000 NA
ATOM     29  H   UNL     1      46.237   8.948  13.474  0.00  0.00    +0.000 HD
BRANCH  25  30
ATOM     30  C   UNL     1      44.332   3.377  12.213  0.00  0.00    +0.000 C 
ATOM     31  N   UNL     1      44.609   2.798  10.997  0.00  0.00    +0.000 N 
ATOM     32  O   UNL     1      43.538   2.847  12.973  0.00  0.00    +0.000 OA
ATOM     33  H   UNL     1      45.296   3.225  10.387  0.00  0.00    +0.000 HD
ATOM     34  H   UNL     1      44.177   1.919  10.753  0.00  0.00    +0.000 HD
ENDBRANCH  25  30
ENDBRANCH  20  21
ENDBRANCH  18  20
ENDBRANCH   5  18
TORSDOF 8
ENDMDL
MODEL 4
REMARK VINA RESULT:    -6.858      1.529      2.241
REMARK INTER + INTRA:         -11.330
REMARK INTER:                 -10.300
REMARK INTRA:                  -1.029
REMARK UNBOUND:                -1.465
REMARK  Name = 
REMARK  11 active torsions:
REMARK  status: ('A' for Active; 'I' for Inactive)
REMARK    1  A    between atoms: C_1  and  O_2
REMARK    2  A    between atoms: O_2  and  C_3
REMARK    3  A    between atoms: C_5  and  C_6
REMARK    4  A    between atoms: C_11  and  C_12
REMARK    5  A    between atoms: C_12  and  O_13
REMARK    6  A    between atoms: C_15  and  C_16
REMARK    7  A    between atoms: C_16  and  C_17
REMARK    8  A    between atoms: C_16  and  C_18
REMARK    9  A    between atoms: C_18  and  N_19
REMARK   10  A    between atoms: C_23  and  C_24
REMARK   11  A    between atoms: C_27  and  C_28
REMARK                            x       y       z     vdW  Elec       q    Type
REMARK                         _______ _______ _______ _____ _____    ______ ____
ROOT
ATOM      1  C   UNL     1      45.405   8.783  12.308  0.00  0.00    +0.000 A 
ATOM      2  C   UNL     1      44.933   7.676  11.594  0.00  0.00    +0.000 A 
ATOM      3  C   UNL     1      45.627   6.456  11.576  0.00  0.00    +0.000 A 
ATOM      4  C   UNL     1      46.884   6.434  12.221  0.00  0.00    +0.000 A 
ATOM      5  C   UNL     1      47.421   7.551  12.887  0.00  0.00    +0.000 A 
ATOM      6  C   UNL     1      46.646   8.716  12.946  0.00  0.00    +0.000 A 
ENDROOT
BRANCH   3   7
ATOM      7  C   UNL     1      45.094   5.225  10.914  0.00  0.00    +0.000 A 
ATOM      8  C   UNL     1      45.463   4.986   9.566  0.00  0.00    +0.000 A 
ATOM      9  C   UNL     1      45.101   3.825   8.882  0.00  0.00    +0.000 A 
ATOM     10  C   UNL     1      44.327   2.870   9.515  0.00  0.00    +0.000 A 
ATOM     11  C   UNL     1      43.910   3.083  10.824  0.00  0.00    +0.000 A 
ATOM     12  C   UNL     1      44.285   4.240  11.550  0.00  0.00    +0.000 A 
BRANCH  12  13
ATOM     13  C   UNL     1      43.752   4.388  12.962  0.00  0.00    +0.000 C 
BRANCH  13  14
ATOM     14  O   UNL     1      42.726   5.373  13.069  0.00  0.00    +0.000 OA
ATOM     15  H   UNL     1      42.738   5.881  12.241  0.00  0.00    +0.000 HD
ENDBRANCH  13  14
ENDBRANCH  12  13
ENDBRANCH   3   7
BRANCH   1  17
ATOM     16  C   UNL     1      43.915  10.379  11.360  0.00  0.00    +0.000 C 
ATOM     17  O   UNL     1      44.745   9.976  12.445  0.00  0.00    +0.000 OA
ENDBRANCH   1  17
BRANCH   5  18
ATOM     18  C   UNL     1      48.798   7.499  13.538  0.00  0.00    +0.000 C 
ATOM     19  C   UNL     1      49.697   8.628  13.012  0.00  0.00    +0.000 C 
BRANCH  18  20
ATOM     20  C   UNL     1      48.703   7.508  15.091  0.00  0.00    +0.000 C 
BRANCH  20  21
ATOM     21  N   UNL     1      48.243   6.204  15.580  0.00  0.00    +0.000 N 
ATOM     22  C   UNL     1      48.458   5.926  16.937  0.00  0.00    +0.000 A 
ATOM     23  C   UNL     1      48.126   4.667  17.431  0.00  0.00    +0.000 A 
ATOM     24  N   UNL     1      48.300   4.278  18.719  0.00  0.00    +0.000 NA
ATOM     25  C   UNL     1      48.851   5.224  19.546  0.00  0.00    +0.000 A 
ATOM     26  C   UNL     1      49.193   6.497  19.083  0.00  0.00    +0.000 A 
ATOM     27  C   UNL     1      49.745   7.606  19.917  0.00  0.00    +0.000 C 
ATOM     28  N   UNL     1      49.005   6.841  17.764  0.00  0.00    +0.000 NA
ATOM     29  H   UNL     1      47.265   6.031  15.355  0.00  0.00    +0.000 HD
BRANCH  25  30
ATOM     30  C   UNL     1      49.044   4.741  20.961  0.00  0.00    +0.000 C 
ATOM     31  N   UNL     1      50.350   4.496  21.311  0.00  0.00    +0.000 N 
ATOM     32  O   UNL     1      48.152   4.572  21.777  0.00  0.00    +0.000 OA
ATOM     33  H   UNL     1      51.088   4.673  20.640  0.00  0.00    +0.000 HD
ATOM     34  H   UNL     1      50.569   4.205  22.253  0.00  0.00    +0.000 HD
ENDBRANCH  25  30
ENDBRANCH  20  21
ENDBRANCH  18  20
ENDBRANCH   5  18
TORSDOF 8
ENDMDL
MODEL 5
REMARK VINA RESULT:    -6.415      3.255      7.644
REMARK INTER + INTRA:         -10.693
REMARK INTER:                  -9.829
REMARK INTRA:                  -0.864
REMARK UNBOUND:                -1.465
REMARK  Name = 
REMARK  11 active torsions:
REMARK  status: ('A' for Active; 'I' for Inactive)
REMARK    1  A    between atoms: C_1  and  O_2
REMARK    2  A    between atoms: O_2  and  C_3
REMARK    3  A    between atoms: C_5  and  C_6
REMARK    4  A    between atoms: C_11  and  C_12
REMARK    5  A    between atoms: C_12  and  O_13
REMARK    6  A    between atoms: C_15  and  C_16
REMARK    7  A    between atoms: C_16  and  C_17
REMARK    8  A    between atoms: C_16  and  C_18
REMARK    9  A    between atoms: C_18  and  N_19
REMARK   10  A    between atoms: C_23  and  C_24
REMARK   11  A    between atoms: C_27  and  C_28
REMARK                            x       y       z     vdW  Elec       q    Type
REMARK                         _______ _______ _______ _____ _____    ______ ____
ROOT
ATOM      1  C   UNL     1      49.092   6.965  18.996  0.00  0.00    +0.000 A 
ATOM      2  C   UNL     1      49.700   5.705  18.955  0.00  0.00    +0.000 A 
ATOM      3  C   UNL     1      50.288   5.205  17.783  0.00  0.00    +0.000 A 
ATOM      4  C   UNL     1      50.136   5.986  16.616  0.00  0.00    +0.000 A 
ATOM      5  C   UNL     1      49.467   7.224  16.606  0.00  0.00    +0.000 A 
ATOM      6  C   UNL     1      48.976   7.714  17.822  0.00  0.00    +0.000 A 
ENDROOT
BRANCH   3   7
ATOM      7  C   UNL     1      51.040   3.912  17.736  0.00  0.00    +0.000 A 
ATOM      8  C   UNL     1      52.416   3.934  18.079  0.00  0.00    +0.000 A 
ATOM      9  C   UNL     1      53.189   2.776  18.160  0.00  0.00    +0.000 A 
ATOM     10  C   UNL     1      52.619   1.550  17.869  0.00  0.00    +0.000 A 
ATOM     11  C   UNL     1      51.283   1.487  17.490  0.00  0.00    +0.000 A 
ATOM     12  C   UNL     1      50.468   2.644  17.426  0.00  0.00    +0.000 A 
BRANCH  12  13
ATOM     13  C   UNL     1      49.032   2.469  16.973  0.00  0.00    +0.000 C 
BRANCH  13  14
ATOM     14  O   UNL     1      48.924   1.857  15.690  0.00  0.00    +0.000 OA
ATOM     15  H   UNL     1      48.765   0.911  15.842  0.00  0.00    +0.000 HD
ENDBRANCH  13  14
ENDBRANCH  12  13
ENDBRANCH   3   7
BRANCH   1  17
ATOM     16  C   UNL     1      48.885   6.950  21.367  0.00  0.00    +0.000 C 
ATOM     17  O   UNL     1      48.574   7.557  20.117  0.00  0.00    +0.000 OA
ENDBRANCH   1  17
BRANCH   5  18
ATOM     18  C   UNL     1      49.290   8.019  15.318  0.00  0.00    +0.000 C 
ATOM     19  C   UNL     1      50.574   7.987  14.474  0.00  0.00    +0.000 C 
BRANCH  18  20
ATOM     20  C   UNL     1      48.051   7.541  14.509  0.00  0.00    +0.000 C 
BRANCH  20  21
ATOM     21  N   UNL     1      47.913   6.083  14.603  0.00  0.00    +0.000 N 
ATOM     22  C   UNL     1      47.008   5.476  13.722  0.00  0.00    +0.000 A 
ATOM     23  C   UNL     1      46.770   4.108  13.834  0.00  0.00    +0.000 A 
ATOM     24  N   UNL     1      45.909   3.413  13.049  0.00  0.00    +0.000 NA
ATOM     25  C   UNL     1      45.248   4.157  12.104  0.00  0.00    +0.000 A 
ATOM     26  C   UNL     1      45.466   5.530  11.965  0.00  0.00    +0.000 A 
ATOM     27  C   UNL     1      44.836   6.409  10.935  0.00  0.00    +0.000 C 
ATOM     28  N   UNL     1      46.343   6.192  12.792  0.00  0.00    +0.000 NA
ATOM     29  H   UNL     1      48.811   5.607  14.540  0.00  0.00    +0.000 HD
BRANCH  25  30
ATOM     30  C   UNL     1      44.289   3.347  11.270  0.00  0.00    +0.000 C 
ATOM     31  N   UNL     1      42.977   3.415  11.676  0.00  0.00    +0.000 N 
ATOM     32  O   UNL     1      44.592   2.675  10.298  0.00  0.00    +0.000 OA
ATOM     33  H   UNL     1      42.728   4.003  12.462  0.00  0.00    +0.000 HD
ATOM     34  H   UNL     1      42.265   2.931  11.148  0.00  0.00    +0.000 HD
ENDBRANCH  25  30
ENDBRANCH  20  21
ENDBRANCH  18  20
ENDBRANCH   5  18
TORSDOF 8
ENDMDL
MODEL 6
REMARK VINA RESULT:    -6.182      3.199      8.711
REMARK INTER + INTRA:         -10.357
REMARK INTER:                  -9.444
REMARK INTRA:                  -0.913
REMARK UNBOUND:                -1.465
REMARK  Name = 
REMARK  11 active torsions:
REMARK  status: ('A' for Active; 'I' for Inactive)
REMARK    1  A    between atoms: C_1  and  O_2
REMARK    2  A    between atoms: O_2  and  C_3
REMARK    3  A    between atoms: C_5  and  C_6
REMARK    4  A    between atoms: C_11  and  C_12
REMARK    5  A    between atoms: C_12  and  O_13
REMARK    6  A    between atoms: C_15  and  C_16
REMARK    7  A    between atoms: C_16  and  C_17
REMARK    8  A    between atoms: C_16  and  C_18
REMARK    9  A    between atoms: C_18  and  N_19
REMARK   10  A    between atoms: C_23  and  C_24
REMARK   11  A    between atoms: C_27  and  C_28
REMARK                            x       y       z     vdW  Elec       q    Type
REMARK                         _______ _______ _______ _____ _____    ______ ____
ROOT
ATOM      1  C   UNL     1      50.980   6.341  17.973  0.00  0.00    +0.000 A 
ATOM      2  C   UNL     1      50.249   7.196  18.805  0.00  0.00    +0.000 A 
ATOM      3  C   UNL     1      48.915   6.930  19.150  0.00  0.00    +0.000 A 
ATOM      4  C   UNL     1      48.310   5.817  18.526  0.00  0.00    +0.000 A 
ATOM      5  C   UNL     1      48.995   4.978  17.627  0.00  0.00    +0.000 A 
ATOM      6  C   UNL     1      50.349   5.241  17.386  0.00  0.00    +0.000 A 
ENDROOT
BRANCH   3   7
ATOM      7  C   UNL     1      48.143   7.764  20.123  0.00  0.00    +0.000 A 
ATOM      8  C   UNL     1      47.658   9.020  19.680  0.00  0.00    +0.000 A 
ATOM      9  C   UNL     1      46.850   9.836  20.472  0.00  0.00    +0.000 A 
ATOM     10  C   UNL     1      46.520   9.437  21.754  0.00  0.00    +0.000 A 
ATOM     11  C   UNL     1      47.008   8.230  22.243  0.00  0.00    +0.000 A 
ATOM     12  C   UNL     1      47.808   7.370  21.452  0.00  0.00    +0.000 A 
BRANCH  12  13
ATOM     13  C   UNL     1      48.312   6.091  22.091  0.00  0.00    +0.000 C 
BRANCH  13  14
ATOM     14  O   UNL     1      47.427   4.989  21.903  0.00  0.00    +0.000 OA
ATOM     15  H   UNL     1      46.900   4.910  22.716  0.00  0.00    +0.000 HD
ENDBRANCH  13  14
ENDBRANCH  12  13
ENDBRANCH   3   7
BRANCH   1  17
ATOM     16  C   UNL     1      52.634   6.577  16.276  0.00  0.00    +0.000 C 
ATOM     17  O   UNL     1      52.306   6.486  17.659  0.00  0.00    +0.000 OA
ENDBRANCH   1  17
BRANCH   5  18
ATOM     18  C   UNL     1      48.296   3.809  16.944  0.00  0.00    +0.000 C 
ATOM     19  C   UNL     1      48.022   2.674  17.943  0.00  0.00    +0.000 C 
BRANCH  18  20
ATOM     20  C   UNL     1      47.003   4.260  16.207  0.00  0.00    +0.000 C 
BRANCH  20  21
ATOM     21  N   UNL     1      47.332   5.202  15.131  0.00  0.00    +0.000 N 
ATOM     22  C   UNL     1      46.578   5.104  13.953  0.00  0.00    +0.000 A 
ATOM     23  C   UNL     1      46.912   5.910  12.868  0.00  0.00    +0.000 A 
ATOM     24  N   UNL     1      46.266   5.896  11.675  0.00  0.00    +0.000 NA
ATOM     25  C   UNL     1      45.228   5.004  11.582  0.00  0.00    +0.000 A 
ATOM     26  C   UNL     1      44.866   4.183  12.654  0.00  0.00    +0.000 A 
ATOM     27  C   UNL     1      43.721   3.224  12.665  0.00  0.00    +0.000 C 
ATOM     28  N   UNL     1      45.558   4.228  13.841  0.00  0.00    +0.000 NA
ATOM     29  H   UNL     1      47.329   6.168  15.451  0.00  0.00    +0.000 HD
BRANCH  25  30
ATOM     30  C   UNL     1      44.553   5.010  10.234  0.00  0.00    +0.000 C 
ATOM     31  N   UNL     1      45.413   5.046   9.163  0.00  0.00    +0.000 N 
ATOM     32  O   UNL     1      43.348   4.977  10.047  0.00  0.00    +0.000 OA
ATOM     33  H   UNL     1      46.413   5.037   9.325  0.00  0.00    +0.000 HD
ATOM     34  H   UNL     1      45.042   5.014   8.224  0.00  0.00    +0.000 HD
ENDBRANCH  25  30
ENDBRANCH  20  21
ENDBRANCH  18  20
ENDBRANCH   5  18
TORSDOF 8
ENDMDL
MODEL 7
REMARK VINA RESULT:    -5.979      1.816      4.847
REMARK INTER + INTRA:         -10.065
REMARK INTER:                  -8.431
REMARK INTRA:                  -1.634
REMARK UNBOUND:                -1.465
REMARK  Name = 
REMARK  11 active torsions:
REMARK  status: ('A' for Active; 'I' for Inactive)
REMARK    1  A    between atoms: C_1  and  O_2
REMARK    2  A    between atoms: O_2  and  C_3
REMARK    3  A    between atoms: C_5  and  C_6
REMARK    4  A    between atoms: C_11  and  C_12
REMARK    5  A    between atoms: C_12  and  O_13
REMARK    6  A    between atoms: C_15  and  C_16
REMARK    7  A    between atoms: C_16  and  C_17
REMARK    8  A    between atoms: C_16  and  C_18
REMARK    9  A    between atoms: C_18  and  N_19
REMARK   10  A    between atoms: C_23  and  C_24
REMARK   11  A    between atoms: C_27  and  C_28
REMARK                            x       y       z     vdW  Elec       q    Type
REMARK                         _______ _______ _______ _____ _____    ______ ____
ROOT
ATOM      1  C   UNL     1      45.122   8.058  11.739  0.00  0.00    +0.000 A 
ATOM      2  C   UNL     1      46.417   8.585  11.796  0.00  0.00    +0.000 A 
ATOM      3  C   UNL     1      47.517   7.805  12.186  0.00  0.00    +0.000 A 
ATOM      4  C   UNL     1      47.238   6.492  12.627  0.00  0.00    +0.000 A 
ATOM      5  C   UNL     1      45.937   5.955  12.651  0.00  0.00    +0.000 A 
ATOM      6  C   UNL     1      44.889   6.749  12.170  0.00  0.00    +0.000 A 
ENDROOT
BRANCH   3   7
ATOM      7  C   UNL     1      48.925   8.308  12.151  0.00  0.00    +0.000 A 
ATOM      8  C   UNL     1      49.877   7.563  11.410  0.00  0.00    +0.000 A 
ATOM      9  C   UNL     1      51.193   7.989  11.233  0.00  0.00    +0.000 A 
ATOM     10  C   UNL     1      51.617   9.167  11.820  0.00  0.00    +0.000 A 
ATOM     11  C   UNL     1      50.727   9.909  12.588  0.00  0.00    +0.000 A 
ATOM     12  C   UNL     1      49.378   9.514  12.762  0.00  0.00    +0.000 A 
BRANCH  12  13
ATOM     13  C   UNL     1      48.499  10.379  13.644  0.00  0.00    +0.000 C 
BRANCH  13  14
ATOM     14  O   UNL     1      48.143   9.743  14.869  0.00  0.00    +0.000 OA
ATOM     15  H   UNL     1      47.176   9.801  14.945  0.00  0.00    +0.000 HD
ENDBRANCH  13  14
ENDBRANCH  12  13
ENDBRANCH   3   7
BRANCH   1  17
ATOM     16  C   UNL     1      44.211  10.064  10.838  0.00  0.00    +0.000 C 
ATOM     17  O   UNL     1      44.015   8.727  11.290  0.00  0.00    +0.000 OA
ENDBRANCH   1  17
BRANCH   5  18
ATOM     18  C   UNL     1      45.671   4.547  13.170  0.00  0.00    +0.000 C 
ATOM     19  C   UNL     1      45.116   3.647  12.055  0.00  0.00    +0.000 C 
BRANCH  18  20
ATOM     20  C   UNL     1      46.932   3.931  13.840  0.00  0.00    +0.000 C 
BRANCH  20  21
ATOM     21  N   UNL     1      46.749   3.848  15.293  0.00  0.00    +0.000 N 
ATOM     22  C   UNL     1      47.615   4.615  16.085  0.00  0.00    +0.000 A 
ATOM     23  C   UNL     1      47.544   4.501  17.470  0.00  0.00    +0.000 A 
ATOM     24  N   UNL     1      48.336   5.180  18.337  0.00  0.00    +0.000 NA
ATOM     25  C   UNL     1      49.257   6.016  17.757  0.00  0.00    +0.000 A 
ATOM     26  C   UNL     1      49.351   6.156  16.370  0.00  0.00    +0.000 A 
ATOM     27  C   UNL     1      50.280   7.077  15.651  0.00  0.00    +0.000 C 
ATOM     28  N   UNL     1      48.530   5.437  15.532  0.00  0.00    +0.000 NA
ATOM     29  H   UNL     1      45.788   4.036  15.571  0.00  0.00    +0.000 HD
BRANCH  25  30
ATOM     30  C   UNL     1      50.127   6.734  18.757  0.00  0.00    +0.000 C 
ATOM     31  N   UNL     1      49.535   7.821  19.356  0.00  0.00    +0.000 N 
ATOM     32  O   UNL     1      51.266   6.418  19.058  0.00  0.00    +0.000 OA
ATOM     33  H   UNL     1      48.577   8.056  19.127  0.00  0.00    +0.000 HD
ATOM     34  H   UNL     1      50.037   8.335  20.065  0.00  0.00    +0.000 HD
ENDBRANCH  25  30
ENDBRANCH  20  21
ENDBRANCH  18  20
ENDBRANCH   5  18
TORSDOF 8
ENDMDL
MODEL 8
REMARK VINA RESULT:    -5.852      3.941      5.363
REMARK INTER + INTRA:          -9.883
REMARK INTER:                  -9.265
REMARK INTRA:                  -0.618
REMARK UNBOUND:                -1.465
REMARK  Name = 
REMARK  11 active torsions:
REMARK  status: ('A' for Active; 'I' for Inactive)
REMARK    1  A    between atoms: C_1  and  O_2
REMARK    2  A    between atoms: O_2  and  C_3
REMARK    3  A    between atoms: C_5  and  C_6
REMARK    4  A    between atoms: C_11  and  C_12
REMARK    5  A    between atoms: C_12  and  O_13
REMARK    6  A    between atoms: C_15  and  C_16
REMARK    7  A    between atoms: C_16  and  C_17
REMARK    8  A    between atoms: C_16  and  C_18
REMARK    9  A    between atoms: C_18  and  N_19
REMARK   10  A    between atoms: C_23  and  C_24
REMARK   11  A    between atoms: C_27  and  C_28
REMARK                            x       y       z     vdW  Elec       q    Type
REMARK                         _______ _______ _______ _____ _____    ______ ____
ROOT
ATOM      1  C   UNL     1      50.476   7.972  13.422  0.00  0.00    +0.000 A 
ATOM      2  C   UNL     1      49.430   7.291  12.790  0.00  0.00    +0.000 A 
ATOM      3  C   UNL     1      48.405   6.667  13.519  0.00  0.00    +0.000 A 
ATOM      4  C   UNL     1      48.542   6.662  14.925  0.00  0.00    +0.000 A 
ATOM      5  C   UNL     1      49.620   7.275  15.590  0.00  0.00    +0.000 A 
ATOM      6  C   UNL     1      50.567   7.957  14.817  0.00  0.00    +0.000 A 
ENDROOT
BRANCH   3   7
ATOM      7  C   UNL     1      47.218   6.027  12.872  0.00  0.00    +0.000 A 
ATOM      8  C   UNL     1      46.774   6.556  11.633  0.00  0.00    +0.000 A 
ATOM      9  C   UNL     1      45.738   5.980  10.898  0.00  0.00    +0.000 A 
ATOM     10  C   UNL     1      45.084   4.866  11.392  0.00  0.00    +0.000 A 
ATOM     11  C   UNL     1      45.461   4.339  12.622  0.00  0.00    +0.000 A 
ATOM     12  C   UNL     1      46.527   4.888  13.376  0.00  0.00    +0.000 A 
BRANCH  12  13
ATOM     13  C   UNL     1      46.838   4.255  14.719  0.00  0.00    +0.000 C 
BRANCH  13  14
ATOM     14  O   UNL     1      47.590   3.049  14.604  0.00  0.00    +0.000 OA
ATOM     15  H   UNL     1      47.999   3.056  13.723  0.00  0.00    +0.000 HD
ENDBRANCH  13  14
ENDBRANCH  12  13
ENDBRANCH   3   7
BRANCH   1  17
ATOM     16  C   UNL     1      52.155   9.655  13.551  0.00  0.00    +0.000 C 
ATOM     17  O   UNL     1      51.462   8.676  12.783  0.00  0.00    +0.000 OA
ENDBRANCH   1  17
BRANCH   5  18
ATOM     18  C   UNL     1      49.753   7.215  17.108  0.00  0.00    +0.000 C 
ATOM     19  C   UNL     1      48.375   7.071  17.773  0.00  0.00    +0.000 C 
BRANCH  18  20
ATOM     20  C   UNL     1      50.735   6.097  17.557  0.00  0.00    +0.000 C 
BRANCH  20  21
ATOM     21  N   UNL     1      50.131   4.776  17.353  0.00  0.00    +0.000 N 
ATOM     22  C   UNL     1      50.971   3.665  17.511  0.00  0.00    +0.000 A 
ATOM     23  C   UNL     1      50.472   2.395  17.237  0.00  0.00    +0.000 A 
ATOM     24  N   UNL     1      51.191   1.249  17.341  0.00  0.00    +0.000 NA
ATOM     25  C   UNL     1      52.494   1.410  17.738  0.00  0.00    +0.000 A 
ATOM     26  C   UNL     1      53.025   2.671  18.024  0.00  0.00    +0.000 A 
ATOM     27  C   UNL     1      54.410   2.939  18.513  0.00  0.00    +0.000 C 
ATOM     28  N   UNL     1      52.257   3.804  17.894  0.00  0.00    +0.000 NA
ATOM     29  H   UNL     1      49.294   4.644  17.917  0.00  0.00    +0.000 HD
BRANCH  25  30
ATOM     30  C   UNL     1      53.259   0.114  17.821  0.00  0.00    +0.000 C 
ATOM     31  N   UNL     1      53.798  -0.311  16.630  0.00  0.00    +0.000 N 
ATOM     32  O   UNL     1      53.427  -0.544  18.835  0.00  0.00    +0.000 OA
ATOM     33  H   UNL     1      53.685   0.259  15.800  0.00  0.00    +0.000 HD
ATOM     34  H   UNL     1      54.357  -1.152  16.606  0.00  0.00    +0.000 HD
ENDBRANCH  25  30
ENDBRANCH  20  21
ENDBRANCH  18  20
ENDBRANCH   5  18
TORSDOF 8
ENDMDL
MODEL 9
REMARK VINA RESULT:    -5.714      3.110      4.238
REMARK INTER + INTRA:          -9.685
REMARK INTER:                  -8.596
REMARK INTRA:                  -1.089
REMARK UNBOUND:                -1.465
REMARK  Name = 
REMARK  11 active torsions:
REMARK  status: ('A' for Active; 'I' for Inactive)
REMARK    1  A    between atoms: C_1  and  O_2
REMARK    2  A    between atoms: O_2  and  C_3
REMARK    3  A    between atoms: C_5  and  C_6
REMARK    4  A    between atoms: C_11  and  C_12
REMARK    5  A    between atoms: C_12  and  O_13
REMARK    6  A    between atoms: C_15  and  C_16
REMARK    7  A    between atoms: C_16  and  C_17
REMARK    8  A    between atoms: C_16  and  C_18
REMARK    9  A    between atoms: C_18  and  N_19
REMARK   10  A    between atoms: C_23  and  C_24
REMARK   11  A    between atoms: C_27  and  C_28
REMARK                            x       y       z     vdW  Elec       q    Type
REMARK                         _______ _______ _______ _____ _____    ______ ____
ROOT
ATOM      1  C   UNL     1      50.028   7.907  12.274  0.00  0.00    +0.000 A 
ATOM      2  C   UNL     1      48.862   7.170  12.042  0.00  0.00    +0.000 A 
ATOM      3  C   UNL     1      47.851   7.060  13.010  0.00  0.00    +0.000 A 
ATOM      4  C   UNL     1      48.119   7.635  14.272  0.00  0.00    +0.000 A 
ATOM      5  C   UNL     1      49.313   8.320  14.562  0.00  0.00    +0.000 A 
ATOM      6  C   UNL     1      50.249   8.473  13.532  0.00  0.00    +0.000 A 
ENDROOT
BRANCH   3   7
ATOM      7  C   UNL     1      46.548   6.373  12.752  0.00  0.00    +0.000 A 
ATOM      8  C   UNL     1      45.675   6.946  11.793  0.00  0.00    +0.000 A 
ATOM      9  C   UNL     1      44.479   6.340  11.407  0.00  0.00    +0.000 A 
ATOM     10  C   UNL     1      44.095   5.148  11.992  0.00  0.00    +0.000 A 
ATOM     11  C   UNL     1      44.902   4.571  12.967  0.00  0.00    +0.000 A 
ATOM     12  C   UNL     1      46.134   5.151  13.358  0.00  0.00    +0.000 A 
BRANCH  12  13
ATOM     13  C   UNL     1      46.923   4.456  14.450  0.00  0.00    +0.000 C 
BRANCH  13  14
ATOM     14  O   UNL     1      47.325   3.136  14.092  0.00  0.00    +0.000 OA
ATOM     15  H   UNL     1      47.677   2.721  14.898  0.00  0.00    +0.000 HD
ENDBRANCH  13  14
ENDBRANCH  12  13
ENDBRANCH   3   7
BRANCH   1  17
ATOM     16  C   UNL     1      52.197   8.778  11.822  0.00  0.00    +0.000 C 
ATOM     17  O   UNL     1      51.018   8.131  11.353  0.00  0.00    +0.000 OA
ENDBRANCH   1  17
BRANCH   5  18
ATOM     18  C   UNL     1      49.582   8.894  15.949  0.00  0.00    +0.000 C 
ATOM     19  C   UNL     1      48.515   9.932  16.328  0.00  0.00    +0.000 C 
BRANCH  18  20
ATOM     20  C   UNL     1      49.711   7.775  17.021  0.00  0.00    +0.000 C 
BRANCH  20  21
ATOM     21  N   UNL     1      51.090   7.277  17.074  0.00  0.00    +0.000 N 
ATOM     22  C   UNL     1      51.258   5.893  17.214  0.00  0.00    +0.000 A 
ATOM     23  C   UNL     1      52.544   5.380  17.365  0.00  0.00    +0.000 A 
ATOM     24  N   UNL     1      52.830   4.063  17.521  0.00  0.00    +0.000 NA
ATOM     25  C   UNL     1      51.744   3.225  17.533  0.00  0.00    +0.000 A 
ATOM     26  C   UNL     1      50.441   3.708  17.382  0.00  0.00    +0.000 A 
ATOM     27  C   UNL     1      49.205   2.871  17.328  0.00  0.00    +0.000 C 
ATOM     28  N   UNL     1      50.202   5.055  17.235  0.00  0.00    +0.000 NA
ATOM     29  H   UNL     1      51.647   7.603  16.288  0.00  0.00    +0.000 HD
BRANCH  25  30
ATOM     30  C   UNL     1      52.108   1.775  17.729  0.00  0.00    +0.000 C 
ATOM     31  N   UNL     1      53.017   1.543  18.733  0.00  0.00    +0.000 N 
ATOM     32  O   UNL     1      51.660   0.841  17.084  0.00  0.00    +0.000 OA
ATOM     33  H   UNL     1      53.358   2.320  19.287  0.00  0.00    +0.000 HD
ATOM     34  H   UNL     1      53.286   0.595  18.954  0.00  0.00    +0.000 HD
ENDBRANCH  25  30
ENDBRANCH  20  21
ENDBRANCH  18  20
ENDBRANCH   5  18
TORSDOF 8
ENDMDL
