MODEL 1
REMARK VINA RESULT:    -7.023      0.000      0.000
REMARK INTER + INTRA:          -9.653
REMARK INTER:                  -8.871
REMARK INTRA:                  -0.782
REMARK UNBOUND:                -0.782
REMARK  Name = 
REMARK  5 active torsions:
REMARK  status: ('A' for Active; 'I' for Inactive)
REMARK    1  A    between atoms: C_2  and  OXT_3
REMARK    2  A    between atoms: C_2  and  CA_4
REMARK    3  A    between atoms: C_8  and  C_9
REMARK    4  A    between atoms: C_9  and  C_10
REMARK    5  A    between atoms: C_14  and  N_15
REMARK                            x       y       z     vdW  Elec       q    Type
REMARK                         _______ _______ _______ _____ _____    ______ ____
ROOT
ATOM      1  C   UNL     1      48.507   7.558  13.246  0.00  0.00    +0.000 C 
ATOM      2  C   UNL     1      49.600   7.219  12.233  0.00  0.00    +0.000 C 
ATOM      3  C   UNL     1      49.561   8.584  12.837  0.00  0.00    +0.000 C 
ENDROOT
BRANCH   1   8
ATOM      4  CA  UNL     1      48.028   5.119  16.017  0.00  0.00    +0.000 A 
ATOM      5  C   UNL     1      48.503   5.748  17.154  0.00  0.00    +0.000 A 
ATOM      6  C   UNL     1      49.074   7.002  16.997  0.00  0.00    +0.000 A 
ATOM      7  C   UNL     1      49.114   7.580  15.727  0.00  0.00    +0.000 A 
ATOM      8  C   UNL     1      48.589   6.897  14.621  0.00  0.00    +0.000 A 
ATOM      9  N   UNL     1      48.071   5.649  14.760  0.00  0.00    +0.000 NA
BRANCH   4  11
ATOM     10  O   UNL     1      46.690   3.391  17.026  0.00  0.00    +0.000 OA
ATOM     11  C   UNL     1      47.384   3.779  16.101  0.00  0.00    +0.000 C 
BRANCH  11  12
ATOM     12  OXT UNL     1      47.680   3.046  15.002  0.00  0.00    +0.000 OA
ATOM     13  HXT UNL     1      46.930   3.138  14.368  0.00  0.00    +0.000 HD
ENDBRANCH  11  12
ENDBRANCH   4  11
ENDBRANCH   1   8
BRANCH   1  14
ATOM     14  C   UNL     1      47.093   7.787  12.713  0.00  0.00    +0.000 A 
ATOM     15  C   UNL     1      46.558   9.082  12.638  0.00  0.00    +0.000 A 
ATOM     16  C   UNL     1      45.322   9.310  12.046  0.00  0.00    +0.000 A 
ATOM     17  C   UNL     1      44.604   8.240  11.513  0.00  0.00    +0.000 A 
ATOM     18  C   UNL     1      45.075   6.921  11.590  0.00  0.00    +0.000 A 
ATOM     19  C   UNL     1      46.304   6.720  12.233  0.00  0.00    +0.000 A 
BRANCH  18  20
ATOM     20  N   UNL     1      44.340   5.889  11.031  0.00  0.00    +0.000 N 
ATOM     21  C   UNL     1      42.942   5.636  11.389  0.00  0.00    +0.000 C 
ATOM     22  C   UNL     1      42.804   4.361  12.218  0.00  0.00    +0.000 C 
ATOM     23  C   UNL     1      43.495   3.180  11.542  0.00  0.00    +0.000 C 
ATOM     24  C   UNL     1      44.953   3.516  11.239  0.00  0.00    +0.000 C 
ATOM     25  C   UNL     1      45.065   4.784  10.393  0.00  0.00    +0.000 C 
ENDBRANCH  18  20
ENDBRANCH   1  14
TORSDOF 5
ENDMDL
MODEL 2
REMARK VINA RESULT:    -6.708      3.527      5.555
REMARK INTER + INTRA:          -9.255
REMARK INTER:                  -8.857
REMARK INTRA:                  -0.397
REMARK UNBOUND:                -0.782
REMARK  Name = 
REMARK  5 active torsions:
REMARK  status: ('A' for Active; 'I' for Inactive)
REMARK    1  A    between atoms: C_2  and  OXT_3
REMARK    2  A    between atoms: C_2  and  CA_4
REMARK    3  A    between atoms: C_8  and  C_9
REMARK    4  A    between atoms: C_9  and  C_10
REMARK    5  A    between atoms: C_14  and  N_15
REMARK                            x       y       z     vdW  Elec       q    Type
REMARK                         _______ _______ _______ _____ _____    ______ ____
ROOT
ATOM      1  C   UNL     1      46.578   7.211  12.223  0.00  0.00    +0.000 C 
ATOM      2  C   UNL     1      47.611   7.067  13.340  0.00  0.00    +0.000 C 
ATOM      3  C   UNL     1      48.050   6.947  11.918  0.00  0.00    +0.000 C 
ENDROOT
BRANCH   1   8
ATOM      4  CA  UNL     1      44.225   9.916  11.222  0.00  0.00    +0.000 A 
ATOM      5  C   UNL     1      44.954  11.089  11.292  0.00  0.00    +0.000 A 
ATOM      6  C   UNL     1      46.257  11.003  11.757  0.00  0.00    +0.000 A 
ATOM      7  C   UNL     1      46.779   9.754  12.098  0.00  0.00    +0.000 A 
ATOM      8  C   UNL     1      45.992   8.601  11.977  0.00  0.00    +0.000 A 
ATOM      9  N   UNL     1      44.700   8.684  11.567  0.00  0.00    +0.000 NA
BRANCH   4  11
ATOM     10  O   UNL     1      42.244  10.891  10.262  0.00  0.00    +0.000 OA
ATOM     11  C   UNL     1      42.824   9.919  10.716  0.00  0.00    +0.000 C 
BRANCH  11  12
ATOM     12  OXT UNL     1      42.280   8.685  10.834  0.00  0.00    +0.000 OA
ATOM     13  HXT UNL     1      42.767   8.209  11.548  0.00  0.00    +0.000 HD
ENDBRANCH  11  12
ENDBRANCH   4  11
ENDBRANCH   1   8
BRANCH   1  14
ATOM     14  C   UNL     1      45.616   6.045  11.992  0.00  0.00    +0.000 A 
ATOM     15  C   UNL     1      44.645   5.717  12.949  0.00  0.00    +0.000 A 
ATOM     16  C   UNL     1      43.694   4.737  12.695  0.00  0.00    +0.000 A 
ATOM     17  C   UNL     1      43.699   4.072  11.469  0.00  0.00    +0.000 A 
ATOM     18  C   UNL     1      44.668   4.335  10.489  0.00  0.00    +0.000 A 
ATOM     19  C   UNL     1      45.639   5.298  10.794  0.00  0.00    +0.000 A 
BRANCH  18  20
ATOM     20  N   UNL     1      44.626   3.666   9.277  0.00  0.00    +0.000 N 
ATOM     21  C   UNL     1      44.530   2.207   9.188  0.00  0.00    +0.000 C 
ATOM     22  C   UNL     1      45.839   1.594   8.694  0.00  0.00    +0.000 C 
ATOM     23  C   UNL     1      46.317   2.265   7.408  0.00  0.00    +0.000 C 
ATOM     24  C   UNL     1      46.424   3.775   7.602  0.00  0.00    +0.000 C 
ATOM     25  C   UNL     1      45.097   4.368   8.077  0.00  0.00    +0.000 C 
ENDBRANCH  18  20
ENDBRANCH   1  14
TORSDOF 5
ENDMDL
MODEL 3
REMARK VINA RESULT:    -6.467      1.515      2.540
REMARK INTER + INTRA:          -8.950
REMARK INTER:                  -8.567
REMARK INTRA:                  -0.383
REMARK UNBOUND:                -0.782
REMARK  Name = 
REMARK  5 active torsions:
REMARK  status: ('A' for Active; 'I' for Inactive)
REMARK    1  A    between atoms: C_2  and  OXT_3
REMARK    2  A    between atoms: C_2  and  CA_4
REMARK    3  A    between atoms: C_8  and  C_9
REMARK    4  A    between atoms: C_9  and  C_10
REMARK    5  A    between atoms: C_14  and  N_15
REMARK                            x       y       z     vdW  Elec       q    Type
REMARK                         _______ _______ _______ _____ _____    ______ ____
ROOT
ATOM      1  C   UNL     1      49.733   7.332  15.523  0.00  0.00    +0.000 C 
ATOM      2  C   UNL     1      51.261   7.288  15.528  0.00  0.00    +0.000 C 
ATOM      3  C   UNL     1      50.565   8.559  15.887  0.00  0.00    +0.000 C 
ENDROOT
BRANCH   1   8
ATOM      4  CA  UNL     1      48.007   4.587  17.350  0.00  0.00    +0.000 A 
ATOM      5  C   UNL     1      47.468   5.173  18.482  0.00  0.00    +0.000 A 
ATOM      6  C   UNL     1      47.742   6.515  18.697  0.00  0.00    +0.000 A 
ATOM      7  C   UNL     1      48.508   7.213  17.761  0.00  0.00    +0.000 A 
ATOM      8  C   UNL     1      49.001   6.563  16.621  0.00  0.00    +0.000 A 
ATOM      9  N   UNL     1      48.776   5.237  16.429  0.00  0.00    +0.000 NA
BRANCH   4  11
ATOM     10  O   UNL     1      48.452   2.450  16.334  0.00  0.00    +0.000 OA
ATOM     11  C   UNL     1      47.745   3.154  17.036  0.00  0.00    +0.000 C 
BRANCH  11  12
ATOM     12  OXT UNL     1      46.606   2.742  17.641  0.00  0.00    +0.000 OA
ATOM     13  HXT UNL     1      46.412   3.369  18.377  0.00  0.00    +0.000 HD
ENDBRANCH  11  12
ENDBRANCH   4  11
ENDBRANCH   1   8
BRANCH   1  14
ATOM     14  C   UNL     1      49.030   7.366  14.166  0.00  0.00    +0.000 A 
ATOM     15  C   UNL     1      49.680   7.884  13.036  0.00  0.00    +0.000 A 
ATOM     16  C   UNL     1      49.093   7.810  11.779  0.00  0.00    +0.000 A 
ATOM     17  C   UNL     1      47.844   7.208  11.635  0.00  0.00    +0.000 A 
ATOM     18  C   UNL     1      47.134   6.704  12.735  0.00  0.00    +0.000 A 
ATOM     19  C   UNL     1      47.734   6.834  13.995  0.00  0.00    +0.000 A 
BRANCH  18  20
ATOM     20  N   UNL     1      45.903   6.096  12.546  0.00  0.00    +0.000 N 
ATOM     21  C   UNL     1      45.469   4.940  13.334  0.00  0.00    +0.000 C 
ATOM     22  C   UNL     1      45.451   3.668  12.489  0.00  0.00    +0.000 C 
ATOM     23  C   UNL     1      44.664   3.870  11.196  0.00  0.00    +0.000 C 
ATOM     24  C   UNL     1      45.207   5.069  10.423  0.00  0.00    +0.000 C 
ATOM     25  C   UNL     1      45.196   6.333  11.282  0.00  0.00    +0.000 C 
ENDBRANCH  18  20
ENDBRANCH   1  14
TORSDOF 5
ENDMDL
MODEL 4
REMARK VINA RESULT:    -6.331      3.322      5.797
REMARK INTER + INTRA:          -8.779
REMARK INTER:                  -8.338
REMARK INTRA:                  -0.440
REMARK UNBOUND:                -0.782
REMARK  Name = 
REMARK  5 active torsions:
REMARK  status: ('A' for Active; 'I' for Inactive)
REMARK    1  A    between atoms: C_2  and  OXT_3
REMARK    2  A    between atoms: C_2  and  CA_4
REMARK    3  A    between atoms: C_8  and  C_9
REMARK    4  A    between atoms: C_9  and  C_10
REMARK    5  A    between atoms: C_14  and  N_15
REMARK                            x       y       z     vdW  Elec       q    Type
REMARK                         _______ _______ _______ _____ _____    ______ ____
ROOT
ATOM      1  C   UNL     1      46.237   7.194  12.304  0.00  0.00    +0.000 C 
ATOM      2  C   UNL     1      47.725   6.911  12.096  0.00  0.00    +0.000 C 
ATOM      3  C   UNL     1      47.206   7.115  13.481  0.00  0.00    +0.000 C 
ENDROOT
BRANCH   1   8
ATOM      4  CA  UNL     1      44.398   4.440  10.605  0.00  0.00    +0.000 A 
ATOM      5  C   UNL     1      43.352   4.114  11.449  0.00  0.00    +0.000 A 
ATOM      6  C   UNL     1      43.284   4.776  12.665  0.00  0.00    +0.000 A 
ATOM      7  C   UNL     1      44.238   5.749  12.967  0.00  0.00    +0.000 A 
ATOM      8  C   UNL     1      45.258   6.049  12.053  0.00  0.00    +0.000 A 
ATOM      9  N   UNL     1      45.357   5.371  10.879  0.00  0.00    +0.000 NA
BRANCH   4  11
ATOM     10  O   UNL     1      44.281   2.619   9.034  0.00  0.00    +0.000 OA
ATOM     11  C   UNL     1      44.533   3.789   9.272  0.00  0.00    +0.000 C 
BRANCH  11  12
ATOM     12  OXT UNL     1      44.980   4.681   8.357  0.00  0.00    +0.000 OA
ATOM     13  HXT UNL     1      44.312   5.403   8.289  0.00  0.00    +0.000 HD
ENDBRANCH  11  12
ENDBRANCH   4  11
ENDBRANCH   1   8
BRANCH   1  14
ATOM     14  C   UNL     1      45.724   8.587  11.939  0.00  0.00    +0.000 A 
ATOM     15  C   UNL     1      46.494   9.728  12.211  0.00  0.00    +0.000 A 
ATOM     16  C   UNL     1      46.088  10.984  11.778  0.00  0.00    +0.000 A 
ATOM     17  C   UNL     1      44.902  11.114  11.057  0.00  0.00    +0.000 A 
ATOM     18  C   UNL     1      44.076  10.014  10.786  0.00  0.00    +0.000 A 
ATOM     19  C   UNL     1      44.492   8.768  11.275  0.00  0.00    +0.000 A 
BRANCH  18  20
ATOM     20  N   UNL     1      42.914  10.183  10.050  0.00  0.00    +0.000 N 
ATOM     21  C   UNL     1      42.886  10.922   8.785  0.00  0.00    +0.000 C 
ATOM     22  C   UNL     1      42.162  12.258   8.938  0.00  0.00    +0.000 C 
ATOM     23  C   UNL     1      40.790  12.076   9.582  0.00  0.00    +0.000 C 
ATOM     24  C   UNL     1      40.917  11.332  10.909  0.00  0.00    +0.000 C 
ATOM     25  C   UNL     1      41.626   9.991  10.726  0.00  0.00    +0.000 C 
ENDBRANCH  18  20
ENDBRANCH   1  14
TORSDOF 5
ENDMDL
MODEL 5
REMARK VINA RESULT:    -6.226      2.557      6.312
REMARK INTER + INTRA:          -8.646
REMARK INTER:                  -8.012
REMARK INTRA:                  -0.634
REMARK UNBOUND:                -0.782
REMARK  Name = 
REMARK  5 active torsions:
REMARK  status: ('A' for Active; 'I' for Inactive)
REMARK    1  A    between atoms: C_2  and  OXT_3
REMARK    2  A    between atoms: C_2  and  CA_4
REMARK    3  A    between atoms: C_8  and  C_9
REMARK    4  A    between atoms: C_9  and  C_10
REMARK    5  A    between atoms: C_14  and  N_15
REMARK                            x       y       z     vdW  Elec       q    Type
REMARK                         _______ _______ _______ _____ _____    ______ ____
ROOT
ATOM      1  C   UNL     1      45.685   6.418  12.125  0.00  0.00    +0.000 C 
ATOM      2  C   UNL     1      44.726   7.599  12.271  0.00  0.00    +0.000 C 
ATOM      3  C   UNL     1      45.587   7.503  11.056  0.00  0.00    +0.000 C 
ENDROOT
BRANCH   1   8
ATOM      4  CA  UNL     1      44.672   3.288  10.384  0.00  0.00    +0.000 A 
ATOM      5  C   UNL     1      43.801   2.647  11.246  0.00  0.00    +0.000 A 
ATOM      6  C   UNL     1      43.589   3.228  12.486  0.00  0.00    +0.000 A 
ATOM      7  C   UNL     1      44.226   4.431  12.794  0.00  0.00    +0.000 A 
ATOM      8  C   UNL     1      45.076   5.041  11.862  0.00  0.00    +0.000 A 
ATOM      9  N   UNL     1      45.326   4.453  10.663  0.00  0.00    +0.000 NA
BRANCH   4  11
ATOM     10  O   UNL     1      45.598   1.738   8.790  0.00  0.00    +0.000 OA
ATOM     11  C   UNL     1      44.942   2.739   9.025  0.00  0.00    +0.000 C 
BRANCH  11  12
ATOM     12  OXT UNL     1      44.355   3.513   8.082  0.00  0.00    +0.000 OA
ATOM     13  HXT UNL     1      44.681   4.436   8.204  0.00  0.00    +0.000 HD
ENDBRANCH  11  12
ENDBRANCH   4  11
ENDBRANCH   1   8
BRANCH   1  14
ATOM     14  C   UNL     1      46.950   6.422  12.983  0.00  0.00    +0.000 A 
ATOM     15  C   UNL     1      48.071   7.175  12.603  0.00  0.00    +0.000 A 
ATOM     16  C   UNL     1      49.179   7.276  13.435  0.00  0.00    +0.000 A 
ATOM     17  C   UNL     1      49.176   6.627  14.669  0.00  0.00    +0.000 A 
ATOM     18  C   UNL     1      48.097   5.834  15.086  0.00  0.00    +0.000 A 
ATOM     19  C   UNL     1      47.014   5.716  14.204  0.00  0.00    +0.000 A 
BRANCH  18  20
ATOM     20  N   UNL     1      48.126   5.221  16.328  0.00  0.00    +0.000 N 
ATOM     21  C   UNL     1      49.179   5.488  17.311  0.00  0.00    +0.000 C 
ATOM     22  C   UNL     1      50.111   4.289  17.466  0.00  0.00    +0.000 C 
ATOM     23  C   UNL     1      49.327   3.005  17.728  0.00  0.00    +0.000 C 
ATOM     24  C   UNL     1      48.281   2.786  16.638  0.00  0.00    +0.000 C 
ATOM     25  C   UNL     1      47.348   3.991  16.516  0.00  0.00    +0.000 C 
ENDBRANCH  18  20
ENDBRANCH   1  14
TORSDOF 5
ENDMDL
MODEL 6
REMARK VINA RESULT:    -6.224      2.786      4.096
REMARK INTER + INTRA:          -8.643
REMARK INTER:                  -8.209
REMARK INTRA:                  -0.434
REMARK UNBOUND:                -0.782
REMARK  Name = 
REMARK  5 active torsions:
REMARK  status: ('A' for Active; 'I' for Inactive)
REMARK    1  A    between atoms: C_2  and  OXT_3
REMARK    2  A    between atoms: C_2  and  CA_4
REMARK    3  A    between atoms: C_8  and  C_9
REMARK    4  A    between atoms: C_9  and  C_10
REMARK    5  A    between atoms: C_14  and  N_15
REMARK                            x       y       z     vdW  Elec       q    Type
REMARK                         _______ _______ _______ _____ _____    ______ ____
ROOT
ATOM      1  C   UNL     1      48.122   4.570  16.717  0.00  0.00    +0.000 C 
ATOM      2  C   UNL     1      47.119   4.720  17.861  0.00  0.00    +0.000 C 
ATOM      3  C   UNL     1      47.187   3.429  17.113  0.00  0.00    +0.000 C 
ENDROOT
BRANCH   1   8
ATOM      4  CA  UNL     1      51.464   3.196  17.609  0.00  0.00    +0.000 A 
ATOM      5  C   UNL     1      52.233   4.288  17.969  0.00  0.00    +0.000 A 
ATOM      6  C   UNL     1      51.655   5.542  17.846  0.00  0.00    +0.000 A 
ATOM      7  C   UNL     1      50.334   5.645  17.405  0.00  0.00    +0.000 A 
ATOM      8  C   UNL     1      49.604   4.493  17.082  0.00  0.00    +0.000 A 
ATOM      9  N   UNL     1      50.179   3.265  17.154  0.00  0.00    +0.000 NA
BRANCH   4  11
ATOM     10  O   UNL     1      51.663   0.865  17.039  0.00  0.00    +0.000 OA
ATOM     11  C   UNL     1      52.004   1.812  17.727  0.00  0.00    +0.000 C 
BRANCH  11  12
ATOM     12  OXT UNL     1      52.928   1.752  18.714  0.00  0.00    +0.000 OA
ATOM     13  HXT UNL     1      52.819   2.554  19.278  0.00  0.00    +0.000 HD
ENDBRANCH  11  12
ENDBRANCH   4  11
ENDBRANCH   1   8
BRANCH   1  14
ATOM     14  C   UNL     1      47.807   5.281  15.401  0.00  0.00    +0.000 A 
ATOM     15  C   UNL     1      48.454   6.478  15.061  0.00  0.00    +0.000 A 
ATOM     16  C   UNL     1      48.260   7.066  13.818  0.00  0.00    +0.000 A 
ATOM     17  C   UNL     1      47.417   6.457  12.890  0.00  0.00    +0.000 A 
ATOM     18  C   UNL     1      46.718   5.278  13.188  0.00  0.00    +0.000 A 
ATOM     19  C   UNL     1      46.901   4.734  14.467  0.00  0.00    +0.000 A 
BRANCH  18  20
ATOM     20  N   UNL     1      45.905   4.694  12.231  0.00  0.00    +0.000 N 
ATOM     21  C   UNL     1      45.346   5.449  11.107  0.00  0.00    +0.000 C 
ATOM     22  C   UNL     1      43.840   5.651  11.267  0.00  0.00    +0.000 C 
ATOM     23  C   UNL     1      43.129   4.328  11.541  0.00  0.00    +0.000 C 
ATOM     24  C   UNL     1      43.749   3.628  12.748  0.00  0.00    +0.000 C 
ATOM     25  C   UNL     1      45.251   3.420  12.556  0.00  0.00    +0.000 C 
ENDBRANCH  18  20
ENDBRANCH   1  14
TORSDOF 5
ENDMDL
MODEL 7
REMARK VINA RESULT:    -5.965      3.045      5.962
REMARK INTER + INTRA:          -8.316
REMARK INTER:                  -7.645
REMARK INTRA:                  -0.671
REMARK UNBOUND:                -0.782
REMARK  Name = 
REMARK  5 active torsions:
REMARK  status: ('A' for Active; 'I' for Inactive)
REMARK    1  A    between atoms: C_2  and  OXT_3
REMARK    2  A    between atoms: C_2  and  CA_4
REMARK    3  A    between atoms: C_8  and  C_9
REMARK    4  A    between atoms: C_9  and  C_10
REMARK    5  A    between atoms: C_14  and  N_15
REMARK                            x       y       z     vdW  Elec       q    Type
REMARK                         _______ _______ _______ _____ _____    ______ ____
ROOT
ATOM      1  C   UNL     1      46.566   5.351  13.238  0.00  0.00    +0.000 C 
ATOM      2  C   UNL     1      47.508   4.264  13.754  0.00  0.00    +0.000 C 
ATOM      3  C   UNL     1      46.596   4.956  14.712  0.00  0.00    +0.000 C 
ENDROOT
BRANCH   1   8
ATOM      4  CA  UNL     1      44.553   4.452  10.239  0.00  0.00    +0.000 A 
ATOM      5  C   UNL     1      43.248   4.345  10.685  0.00  0.00    +0.000 A 
ATOM      6  C   UNL     1      43.023   4.502  12.044  0.00  0.00    +0.000 A 
ATOM      7  C   UNL     1      44.099   4.791  12.884  0.00  0.00    +0.000 A 
ATOM      8  C   UNL     1      45.394   4.913  12.361  0.00  0.00    +0.000 A 
ATOM      9  N   UNL     1      45.628   4.713  11.038  0.00  0.00    +0.000 NA
BRANCH   4  11
ATOM     10  O   UNL     1      44.411   3.469   8.046  0.00  0.00    +0.000 OA
ATOM     11  C   UNL     1      44.878   4.314   8.792  0.00  0.00    +0.000 C 
BRANCH  11  12
ATOM     12  OXT UNL     1      45.770   5.260   8.419  0.00  0.00    +0.000 OA
ATOM     13  HXT UNL     1      46.675   4.893   8.560  0.00  0.00    +0.000 HD
ENDBRANCH  11  12
ENDBRANCH   4  11
ENDBRANCH   1   8
BRANCH   1  14
ATOM     14  C   UNL     1      47.176   6.709  12.886  0.00  0.00    +0.000 A 
ATOM     15  C   UNL     1      48.542   6.825  12.592  0.00  0.00    +0.000 A 
ATOM     16  C   UNL     1      49.079   8.031  12.158  0.00  0.00    +0.000 A 
ATOM     17  C   UNL     1      48.248   9.140  12.006  0.00  0.00    +0.000 A 
ATOM     18  C   UNL     1      46.882   9.090  12.319  0.00  0.00    +0.000 A 
ATOM     19  C   UNL     1      46.381   7.872  12.796  0.00  0.00    +0.000 A 
BRANCH  18  20
ATOM     20  N   UNL     1      46.088  10.211  12.136  0.00  0.00    +0.000 N 
ATOM     21  C   UNL     1      44.646  10.122  11.896  0.00  0.00    +0.000 C 
ATOM     22  C   UNL     1      44.299  10.493  10.455  0.00  0.00    +0.000 C 
ATOM     23  C   UNL     1      44.912  11.835  10.064  0.00  0.00    +0.000 C 
ATOM     24  C   UNL     1      46.418  11.827  10.312  0.00  0.00    +0.000 C 
ATOM     25  C   UNL     1      46.739  11.472  11.763  0.00  0.00    +0.000 C 
ENDBRANCH  18  20
ENDBRANCH   1  14
TORSDOF 5
ENDMDL
MODEL 8
REMARK VINA RESULT:    -5.835      1.895      5.753
REMARK INTER + INTRA:          -8.152
REMARK INTER:                  -7.747
REMARK INTRA:                  -0.405
REMARK UNBOUND:                -0.782
REMARK  Name = 
REMARK  5 active torsions:
REMARK  status: ('A' for Active; 'I' for Inactive)
REMARK    1  A    between atoms: C_2  and  OXT_3
REMARK    2  A    between atoms: C_2  and  CA_4
REMARK    3  A    between atoms: C_8  and  C_9
REMARK    4  A    between atoms: C_9  and  C_10
REMARK    5  A    between atoms: C_14  and  N_15
REMARK                            x       y       z     vdW  Elec       q    Type
REMARK                         _______ _______ _______ _____ _____    ______ ____
ROOT
ATOM      1  C   UNL     1      48.237   7.527  13.133  0.00  0.00    +0.000 C 
ATOM      2  C   UNL     1      48.849   8.602  12.235  0.00  0.00    +0.000 C 
ATOM      3  C   UNL     1      49.492   7.256  12.308  0.00  0.00    +0.000 C 
ENDROOT
BRANCH   1   8
ATOM      4  CA  UNL     1      45.610   5.026  12.299  0.00  0.00    +0.000 A 
ATOM      5  C   UNL     1      44.585   5.744  11.709  0.00  0.00    +0.000 A 
ATOM      6  C   UNL     1      44.726   7.122  11.646  0.00  0.00    +0.000 A 
ATOM      7  C   UNL     1      45.891   7.712  12.140  0.00  0.00    +0.000 A 
ATOM      8  C   UNL     1      46.903   6.921  12.701  0.00  0.00    +0.000 A 
ATOM      9  N   UNL     1      46.750   5.575  12.809  0.00  0.00    +0.000 NA
BRANCH   4  11
ATOM     10  O   UNL     1      46.129   2.863  13.220  0.00  0.00    +0.000 OA
ATOM     11  C   UNL     1      45.545   3.541  12.391  0.00  0.00    +0.000 C 
BRANCH  11  12
ATOM     12  OXT UNL     1      44.743   3.045  11.419  0.00  0.00    +0.000 OA
ATOM     13  HXT UNL     1      45.131   2.191  11.115  0.00  0.00    +0.000 HD
ENDBRANCH  11  12
ENDBRANCH   4  11
ENDBRANCH   1   8
BRANCH   1  14
ATOM     14  C   UNL     1      48.433   7.669  14.642  0.00  0.00    +0.000 A 
ATOM     15  C   UNL     1      48.299   8.918  15.268  0.00  0.00    +0.000 A 
ATOM     16  C   UNL     1      48.359   9.034  16.651  0.00  0.00    +0.000 A 
ATOM     17  C   UNL     1      48.550   7.895  17.431  0.00  0.00    +0.000 A 
ATOM     18  C   UNL     1      48.724   6.626  16.858  0.00  0.00    +0.000 A 
ATOM     19  C   UNL     1      48.703   6.550  15.459  0.00  0.00    +0.000 A 
BRANCH  18  20
ATOM     20  N   UNL     1      48.892   5.517  17.670  0.00  0.00    +0.000 N 
ATOM     21  C   UNL     1      50.201   5.113  18.190  0.00  0.00    +0.000 C 
ATOM     22  C   UNL     1      50.696   3.835  17.516  0.00  0.00    +0.000 C 
ATOM     23  C   UNL     1      49.641   2.734  17.570  0.00  0.00    +0.000 C 
ATOM     24  C   UNL     1      48.324   3.227  16.976  0.00  0.00    +0.000 C 
ATOM     25  C   UNL     1      47.839   4.494  17.679  0.00  0.00    +0.000 C 
ENDBRANCH  18  20
ENDBRANCH   1  14
TORSDOF 5
ENDMDL
MODEL 9
REMARK VINA RESULT:    -5.759      2.716      6.512
REMARK INTER + INTRA:          -8.056
REMARK INTER:                  -7.419
REMARK INTRA:                  -0.637
REMARK UNBOUND:                -0.782
REMARK  Name = 
REMARK  5 active torsions:
REMARK  status: ('A' for Active; 'I' for Inactive)
REMARK    1  A    between atoms: C_2  and  OXT_3
REMARK    2  A    between atoms: C_2  and  CA_4
REMARK    3  A    between atoms: C_8  and  C_9
REMARK    4  A    between atoms: C_9  and  C_10
REMARK    5  A    between atoms: C_14  and  N_15
REMARK                            x       y       z     vdW  Elec       q    Type
REMARK                         _______ _______ _______ _____ _____    ______ ____
ROOT
ATOM      1  C   UNL     1      46.834   7.429  12.504  0.00  0.00    +0.000 C 
ATOM      2  C   UNL     1      45.927   8.423  13.229  0.00  0.00    +0.000 C 
ATOM      3  C   UNL     1      46.029   8.477  11.740  0.00  0.00    +0.000 C 
ENDROOT
BRANCH   1   8
ATOM      4  CA  UNL     1      44.955   4.335  11.637  0.00  0.00    +0.000 A 
ATOM      5  C   UNL     1      45.394   3.370  12.526  0.00  0.00    +0.000 A 
ATOM      6  C   UNL     1      46.405   3.727  13.406  0.00  0.00    +0.000 A 
ATOM      7  C   UNL     1      46.904   5.030  13.379  0.00  0.00    +0.000 A 
ATOM      8  C   UNL     1      46.394   5.966  12.469  0.00  0.00    +0.000 A 
ATOM      9  N   UNL     1      45.437   5.610  11.573  0.00  0.00    +0.000 NA
BRANCH   4  11
ATOM     10  O   UNL     1      43.851   4.371   9.498  0.00  0.00    +0.000 OA
ATOM     11  C   UNL     1      43.860   4.039  10.672  0.00  0.00    +0.000 C 
BRANCH  11  12
ATOM     12  OXT UNL     1      42.869   3.348  11.283  0.00  0.00    +0.000 OA
ATOM     13  HXT UNL     1      42.013   3.775  11.044  0.00  0.00    +0.000 HD
ENDBRANCH  11  12
ENDBRANCH   4  11
ENDBRANCH   1   8
BRANCH   1  14
ATOM     14  C   UNL     1      48.344   7.657  12.585  0.00  0.00    +0.000 A 
ATOM     15  C   UNL     1      49.081   7.986  11.437  0.00  0.00    +0.000 A 
ATOM     16  C   UNL     1      50.429   8.310  11.523  0.00  0.00    +0.000 A 
ATOM     17  C   UNL     1      51.059   8.315  12.767  0.00  0.00    +0.000 A 
ATOM     18  C   UNL     1      50.380   7.962  13.942  0.00  0.00    +0.000 A 
ATOM     19  C   UNL     1      49.033   7.598  13.815  0.00  0.00    +0.000 A 
BRANCH  18  20
ATOM     20  N   UNL     1      51.038   7.999  15.161  0.00  0.00    +0.000 N 
ATOM     21  C   UNL     1      52.483   8.212  15.267  0.00  0.00    +0.000 C 
ATOM     22  C   UNL     1      53.202   6.936  15.701  0.00  0.00    +0.000 C 
ATOM     23  C   UNL     1      52.569   6.340  16.955  0.00  0.00    +0.000 C 
ATOM     24  C   UNL     1      51.073   6.117  16.743  0.00  0.00    +0.000 C 
ATOM     25  C   UNL     1      50.373   7.411  16.330  0.00  0.00    +0.000 C 
ENDBRANCH  18  20
ENDBRANCH   1  14
TORSDOF 5
ENDMDL
