MODEL 1
REMARK VINA RESULT:    -8.182      0.000      0.000
REMARK INTER + INTRA:         -10.955
REMARK INTER:                 -10.096
REMARK INTRA:                  -0.860
REMARK UNBOUND:                -0.860
REMARK  Name = 
REMARK  4 active torsions:
REMARK  status: ('A' for Active; 'I' for Inactive)
REMARK    1  A    between atoms: C_4  and  C_5
REMARK    2  A    between atoms: C_5  and  C_6
REMARK    3  A    between atoms: C_6  and  C_7
REMARK    4  A    between atoms: C_11  and  C_12
REMARK                            x       y       z     vdW  Elec       q    Type
REMARK                         _______ _______ _______ _____ _____    ______ ____
ROOT
ATOM      1  C   UNL     1      45.427   4.807  11.828  0.00  0.00    +0.000 A 
ATOM      2  C   UNL     1      45.894   6.083  11.469  0.00  0.00    +0.000 A 
ATOM      3  C   UNL     1      46.878   6.740  12.209  0.00  0.00    +0.000 A 
ATOM      4  C   UNL     1      47.395   6.146  13.358  0.00  0.00    +0.000 A 
ATOM      5  C   UNL     1      46.969   4.874  13.764  0.00  0.00    +0.000 A 
ATOM      6  C   UNL     1      46.036   4.204  12.946  0.00  0.00    +0.000 A 
ENDROOT
BRANCH   5   7
ATOM      7  C   UNL     1      47.384   4.285  15.051  0.00  0.00    +0.000 A 
ATOM      8  C   UNL     1      47.261   4.983  16.254  0.00  0.00    +0.000 A 
ATOM      9  C   UNL     1      47.600   4.354  17.450  0.00  0.00    +0.000 A 
ATOM     10  C   UNL     1      48.047   3.042  17.420  0.00  0.00    +0.000 A 
ATOM     11  C   UNL     1      48.132   2.410  16.192  0.00  0.00    +0.000 A 
ATOM     12  N   UNL     1      47.810   2.996  15.017  0.00  0.00    +0.000 NA
ENDBRANCH   5   7
BRANCH   1  13
ATOM     13  C   UNL     1      44.185   4.196  11.151  0.00  0.00    +0.000 C 
ATOM     14  C   UNL     1      43.335   3.119  11.817  0.00  0.00    +0.000 C 
ATOM     15  C   UNL     1      42.906   4.546  11.927  0.00  0.00    +0.000 C 
BRANCH  13  16
ATOM     16  C   UNL     1      44.093   4.275   9.628  0.00  0.00    +0.000 C 
BRANCH  16  20
ATOM     17  C   UNL     1      46.999   2.349   7.175  0.00  0.00    +0.000 A 
ATOM     18  C   UNL     1      46.280   1.566   8.073  0.00  0.00    +0.000 A 
ATOM     19  C   UNL     1      45.347   2.170   8.915  0.00  0.00    +0.000 A 
ATOM     20  C   UNL     1      45.173   3.552   8.854  0.00  0.00    +0.000 A 
ATOM     21  N   UNL     1      45.874   4.321   7.980  0.00  0.00    +0.000 NA
ATOM     22  C   UNL     1      46.766   3.711   7.172  0.00  0.00    +0.000 A 
ENDBRANCH  16  20
ENDBRANCH  13  16
ENDBRANCH   1  13
TORSDOF 4
ENDMDL
MODEL 2
REMARK VINA RESULT:    -7.462      2.131      4.037
REMARK INTER + INTRA:         -10.067
REMARK INTER:                  -9.243
REMARK INTRA:                  -0.824
REMARK UNBOUND:                -0.860
REMARK  Name = 
REMARK  4 active torsions:
REMARK  status: ('A' for Active; 'I' for Inactive)
REMARK    1  A    between atoms: C_4  and  C_5
REMARK    2  A    between atoms: C_5  and  C_6
REMARK    3  A    between atoms: C_6  and  C_7
REMARK    4  A    between atoms: C_11  and  C_12
REMARK                            x       y       z     vdW  Elec       q    Type
REMARK                         _______ _______ _______ _____ _____    ______ ____
ROOT
ATOM      1  C   UNL     1      45.221   4.920  12.089  0.00  0.00    +0.000 A 
ATOM      2  C   UNL     1      45.904   4.069  12.976  0.00  0.00    +0.000 A 
ATOM      3  C   UNL     1      47.043   4.487  13.664  0.00  0.00    +0.000 A 
ATOM      4  C   UNL     1      47.554   5.765  13.451  0.00  0.00    +0.000 A 
ATOM      5  C   UNL     1      46.915   6.658  12.580  0.00  0.00    +0.000 A 
ATOM      6  C   UNL     1      45.719   6.232  11.966  0.00  0.00    +0.000 A 
ENDROOT
BRANCH   5   7
ATOM      7  C   UNL     1      47.511   7.959  12.219  0.00  0.00    +0.000 A 
ATOM      8  C   UNL     1      48.843   8.072  11.815  0.00  0.00    +0.000 A 
ATOM      9  C   UNL     1      49.335   9.311  11.416  0.00  0.00    +0.000 A 
ATOM     10  C   UNL     1      48.489  10.409  11.421  0.00  0.00    +0.000 A 
ATOM     11  C   UNL     1      47.178  10.219  11.822  0.00  0.00    +0.000 A 
ATOM     12  N   UNL     1      46.673   9.027  12.215  0.00  0.00    +0.000 NA
ENDBRANCH   5   7
BRANCH   1  13
ATOM     13  C   UNL     1      44.115   4.380  11.163  0.00  0.00    +0.000 C 
ATOM     14  C   UNL     1      43.210   3.218  11.559  0.00  0.00    +0.000 C 
ATOM     15  C   UNL     1      42.723   4.615  11.771  0.00  0.00    +0.000 C 
BRANCH  13  16
ATOM     16  C   UNL     1      44.249   4.642   9.664  0.00  0.00    +0.000 C 
BRANCH  16  20
ATOM     17  C   UNL     1      46.876   2.279   7.280  0.00  0.00    +0.000 A 
ATOM     18  C   UNL     1      46.112   1.632   8.247  0.00  0.00    +0.000 A 
ATOM     19  C   UNL     1      45.268   2.381   9.067  0.00  0.00    +0.000 A 
ATOM     20  C   UNL     1      45.229   3.766   8.916  0.00  0.00    +0.000 A 
ATOM     21  N   UNL     1      45.975   4.402   7.975  0.00  0.00    +0.000 NA
ATOM     22  C   UNL     1      46.778   3.653   7.190  0.00  0.00    +0.000 A 
ENDBRANCH  16  20
ENDBRANCH  13  16
ENDBRANCH   1  13
TORSDOF 4
ENDMDL
MODEL 3
REMARK VINA RESULT:    -7.027      3.165      5.432
REMARK INTER + INTRA:          -9.530
REMARK INTER:                  -8.839
REMARK INTRA:                  -0.691
REMARK UNBOUND:                -0.860
REMARK  Name = 
REMARK  4 active torsions:
REMARK  status: ('A' for Active; 'I' for Inactive)
REMARK    1  A    between atoms: C_4  and  C_5
REMARK    2  A    between atoms: C_5  and  C_6
REMARK    3  A    between atoms: C_6  and  C_7
REMARK    4  A    between atoms: C_11  and  C_12
REMARK                            x       y       z     vdW  Elec       q    Type
REMARK                         _______ _______ _______ _____ _____    ______ ____
ROOT
ATOM      1  C   UNL     1      45.183   5.905  11.795  0.00  0.00    +0.000 A 
ATOM      2  C   UNL     1      46.528   6.028  12.188  0.00  0.00    +0.000 A 
ATOM      3  C   UNL     1      47.137   7.273  12.341  0.00  0.00    +0.000 A 
ATOM      4  C   UNL     1      46.421   8.436  12.066  0.00  0.00    +0.000 A 
ATOM      5  C   UNL     1      45.076   8.375  11.672  0.00  0.00    +0.000 A 
ATOM      6  C   UNL     1      44.469   7.105  11.610  0.00  0.00    +0.000 A 
ENDROOT
BRANCH   5   7
ATOM      7  C   UNL     1      44.337   9.573  11.231  0.00  0.00    +0.000 A 
ATOM      8  C   UNL     1      43.109   9.480  10.572  0.00  0.00    +0.000 A 
ATOM      9  C   UNL     1      42.418  10.643  10.241  0.00  0.00    +0.000 A 
ATOM     10  C   UNL     1      42.962  11.872  10.581  0.00  0.00    +0.000 A 
ATOM     11  C   UNL     1      44.177  11.887  11.244  0.00  0.00    +0.000 A 
ATOM     12  N   UNL     1      44.869  10.774  11.577  0.00  0.00    +0.000 NA
ENDBRANCH   5   7
BRANCH   1  13
ATOM     13  C   UNL     1      44.592   4.538  11.402  0.00  0.00    +0.000 C 
ATOM     14  C   UNL     1      44.864   3.267  12.202  0.00  0.00    +0.000 C 
ATOM     15  C   UNL     1      43.610   4.034  12.472  0.00  0.00    +0.000 C 
BRANCH  13  16
ATOM     16  C   UNL     1      44.169   4.335   9.949  0.00  0.00    +0.000 C 
BRANCH  16  20
ATOM     17  C   UNL     1      46.836   2.520   7.162  0.00  0.00    +0.000 A 
ATOM     18  C   UNL     1      46.188   1.696   8.077  0.00  0.00    +0.000 A 
ATOM     19  C   UNL     1      45.336   2.262   9.025  0.00  0.00    +0.000 A 
ATOM     20  C   UNL     1      45.172   3.646   9.050  0.00  0.00    +0.000 A 
ATOM     21  N   UNL     1      45.804   4.455   8.159  0.00  0.00    +0.000 NA
ATOM     22  C   UNL     1      46.617   3.882   7.248  0.00  0.00    +0.000 A 
ENDBRANCH  16  20
ENDBRANCH  13  16
ENDBRANCH   1  13
TORSDOF 4
ENDMDL
MODEL 4
REMARK VINA RESULT:    -6.859      2.572      3.282
REMARK INTER + INTRA:          -9.322
REMARK INTER:                  -8.671
REMARK INTRA:                  -0.651
REMARK UNBOUND:                -0.860
REMARK  Name = 
REMARK  4 active torsions:
REMARK  status: ('A' for Active; 'I' for Inactive)
REMARK    1  A    between atoms: C_4  and  C_5
REMARK    2  A    between atoms: C_5  and  C_6
REMARK    3  A    between atoms: C_6  and  C_7
REMARK    4  A    between atoms: C_11  and  C_12
REMARK                            x       y       z     vdW  Elec       q    Type
REMARK                         _______ _______ _______ _____ _____    ______ ____
ROOT
ATOM      1  C   UNL     1      45.253   6.070  11.451  0.00  0.00    +0.000 A 
ATOM      2  C   UNL     1      44.416   7.199  11.393  0.00  0.00    +0.000 A 
ATOM      3  C   UNL     1      44.880   8.474  11.718  0.00  0.00    +0.000 A 
ATOM      4  C   UNL     1      46.193   8.647  12.148  0.00  0.00    +0.000 A 
ATOM      5  C   UNL     1      47.074   7.559  12.224  0.00  0.00    +0.000 A 
ATOM      6  C   UNL     1      46.596   6.299  11.808  0.00  0.00    +0.000 A 
ENDROOT
BRANCH   5   7
ATOM      7  C   UNL     1      48.420   7.683  12.816  0.00  0.00    +0.000 A 
ATOM      8  C   UNL     1      49.511   8.141  12.074  0.00  0.00    +0.000 A 
ATOM      9  C   UNL     1      50.743   8.309  12.700  0.00  0.00    +0.000 A 
ATOM     10  C   UNL     1      50.860   8.023  14.051  0.00  0.00    +0.000 A 
ATOM     11  C   UNL     1      49.733   7.585  14.725  0.00  0.00    +0.000 A 
ATOM     12  N   UNL     1      48.524   7.413  14.142  0.00  0.00    +0.000 NA
ENDBRANCH   5   7
BRANCH   1  13
ATOM     13  C   UNL     1      44.677   4.648  11.321  0.00  0.00    +0.000 C 
ATOM     14  C   UNL     1      45.030   3.529  12.297  0.00  0.00    +0.000 C 
ATOM     15  C   UNL     1      43.774   4.307  12.518  0.00  0.00    +0.000 C 
BRANCH  13  16
ATOM     16  C   UNL     1      44.173   4.204   9.949  0.00  0.00    +0.000 C 
BRANCH  16  20
ATOM     17  C   UNL     1      46.880   2.477   7.146  0.00  0.00    +0.000 A 
ATOM     18  C   UNL     1      46.241   1.628   8.044  0.00  0.00    +0.000 A 
ATOM     19  C   UNL     1      45.376   2.165   8.997  0.00  0.00    +0.000 A 
ATOM     20  C   UNL     1      45.190   3.546   9.044  0.00  0.00    +0.000 A 
ATOM     21  N   UNL     1      45.815   4.379   8.170  0.00  0.00    +0.000 NA
ATOM     22  C   UNL     1      46.641   3.833   7.254  0.00  0.00    +0.000 A 
ENDBRANCH  16  20
ENDBRANCH  13  16
ENDBRANCH   1  13
TORSDOF 4
ENDMDL
MODEL 5
REMARK VINA RESULT:    -6.338      3.207      5.660
REMARK INTER + INTRA:          -8.679
REMARK INTER:                  -7.634
REMARK INTRA:                  -1.046
REMARK UNBOUND:                -0.860
REMARK  Name = 
REMARK  4 active torsions:
REMARK  status: ('A' for Active; 'I' for Inactive)
REMARK    1  A    between atoms: C_4  and  C_5
REMARK    2  A    between atoms: C_5  and  C_6
REMARK    3  A    between atoms: C_6  and  C_7
REMARK    4  A    between atoms: C_11  and  C_12
REMARK                            x       y       z     vdW  Elec       q    Type
REMARK                         _______ _______ _______ _____ _____    ______ ____
ROOT
ATOM      1  C   UNL     1      47.091   6.448  13.016  0.00  0.00    +0.000 A 
ATOM      2  C   UNL     1      48.471   6.489  12.749  0.00  0.00    +0.000 A 
ATOM      3  C   UNL     1      49.097   7.650  12.295  0.00  0.00    +0.000 A 
ATOM      4  C   UNL     1      48.345   8.799  12.060  0.00  0.00    +0.000 A 
ATOM      5  C   UNL     1      46.965   8.818  12.311  0.00  0.00    +0.000 A 
ATOM      6  C   UNL     1      46.381   7.653  12.848  0.00  0.00    +0.000 A 
ENDROOT
BRANCH   5   7
ATOM      7  C   UNL     1      46.119   9.965  11.932  0.00  0.00    +0.000 A 
ATOM      8  C   UNL     1      44.752   9.821  11.683  0.00  0.00    +0.000 A 
ATOM      9  C   UNL     1      43.984  10.948  11.401  0.00  0.00    +0.000 A 
ATOM     10  C   UNL     1      44.592  12.193  11.380  0.00  0.00    +0.000 A 
ATOM     11  C   UNL     1      45.949  12.261  11.649  0.00  0.00    +0.000 A 
ATOM     12  N   UNL     1      46.718  11.183  11.925  0.00  0.00    +0.000 NA
ENDBRANCH   5   7
BRANCH   1  13
ATOM     13  C   UNL     1      46.374   5.112  13.286  0.00  0.00    +0.000 C 
ATOM     14  C   UNL     1      47.130   3.828  13.617  0.00  0.00    +0.000 C 
ATOM     15  C   UNL     1      46.588   4.655  14.738  0.00  0.00    +0.000 C 
BRANCH  13  16
ATOM     16  C   UNL     1      44.966   4.932  12.723  0.00  0.00    +0.000 C 
BRANCH  16  20
ATOM     17  C   UNL     1      44.875   3.378   8.755  0.00  0.00    +0.000 A 
ATOM     18  C   UNL     1      45.399   4.653   8.945  0.00  0.00    +0.000 A 
ATOM     19  C   UNL     1      45.412   5.204  10.226  0.00  0.00    +0.000 A 
ATOM     20  C   UNL     1      44.874   4.475  11.285  0.00  0.00    +0.000 A 
ATOM     21  N   UNL     1      44.358   3.230  11.103  0.00  0.00    +0.000 NA
ATOM     22  C   UNL     1      44.365   2.717   9.855  0.00  0.00    +0.000 A 
ENDBRANCH  16  20
ENDBRANCH  13  16
ENDBRANCH   1  13
TORSDOF 4
ENDMDL
MODEL 6
REMARK VINA RESULT:    -6.255      3.102      4.947
REMARK INTER + INTRA:          -8.577
REMARK INTER:                  -7.730
REMARK INTRA:                  -0.847
REMARK UNBOUND:                -0.860
REMARK  Name = 
REMARK  4 active torsions:
REMARK  status: ('A' for Active; 'I' for Inactive)
REMARK    1  A    between atoms: C_4  and  C_5
REMARK    2  A    between atoms: C_5  and  C_6
REMARK    3  A    between atoms: C_6  and  C_7
REMARK    4  A    between atoms: C_11  and  C_12
REMARK                            x       y       z     vdW  Elec       q    Type
REMARK                         _______ _______ _______ _____ _____    ______ ____
ROOT
ATOM      1  C   UNL     1      46.211   6.614  12.339  0.00  0.00    +0.000 A 
ATOM      2  C   UNL     1      45.334   7.638  12.738  0.00  0.00    +0.000 A 
ATOM      3  C   UNL     1      45.712   8.980  12.713  0.00  0.00    +0.000 A 
ATOM      4  C   UNL     1      47.001   9.332  12.320  0.00  0.00    +0.000 A 
ATOM      5  C   UNL     1      47.919   8.354  11.910  0.00  0.00    +0.000 A 
ATOM      6  C   UNL     1      47.476   7.017  11.867  0.00  0.00    +0.000 A 
ENDROOT
BRANCH   5   7
ATOM      7  C   UNL     1      49.332   8.677  11.633  0.00  0.00    +0.000 A 
ATOM      8  C   UNL     1      50.278   7.682  11.376  0.00  0.00    +0.000 A 
ATOM      9  C   UNL     1      51.582   8.044  11.049  0.00  0.00    +0.000 A 
ATOM     10  C   UNL     1      51.913   9.388  10.976  0.00  0.00    +0.000 A 
ATOM     11  C   UNL     1      50.920  10.318  11.231  0.00  0.00    +0.000 A 
ATOM     12  N   UNL     1      49.646   9.995  11.552  0.00  0.00    +0.000 NA
ENDBRANCH   5   7
BRANCH   1  13
ATOM     13  C   UNL     1      45.871   5.133  12.592  0.00  0.00    +0.000 C 
ATOM     14  C   UNL     1      46.918   4.117  13.039  0.00  0.00    +0.000 C 
ATOM     15  C   UNL     1      46.060   4.769  14.073  0.00  0.00    +0.000 C 
BRANCH  13  16
ATOM     16  C   UNL     1      44.631   4.560  11.909  0.00  0.00    +0.000 C 
BRANCH  16  20
ATOM     17  C   UNL     1      45.328   2.945   8.026  0.00  0.00    +0.000 A 
ATOM     18  C   UNL     1      45.671   4.275   8.251  0.00  0.00    +0.000 A 
ATOM     19  C   UNL     1      45.424   4.844   9.501  0.00  0.00    +0.000 A 
ATOM     20  C   UNL     1      44.814   4.073  10.489  0.00  0.00    +0.000 A 
ATOM     21  N   UNL     1      44.475   2.775  10.272  0.00  0.00    +0.000 NA
ATOM     22  C   UNL     1      44.732   2.247   9.057  0.00  0.00    +0.000 A 
ENDBRANCH  16  20
ENDBRANCH  13  16
ENDBRANCH   1  13
TORSDOF 4
ENDMDL
MODEL 7
REMARK VINA RESULT:    -5.996      2.486      8.465
REMARK INTER + INTRA:          -8.257
REMARK INTER:                  -7.575
REMARK INTRA:                  -0.683
REMARK UNBOUND:                -0.860
REMARK  Name = 
REMARK  4 active torsions:
REMARK  status: ('A' for Active; 'I' for Inactive)
REMARK    1  A    between atoms: C_4  and  C_5
REMARK    2  A    between atoms: C_5  and  C_6
REMARK    3  A    between atoms: C_6  and  C_7
REMARK    4  A    between atoms: C_11  and  C_12
REMARK                            x       y       z     vdW  Elec       q    Type
REMARK                         _______ _______ _______ _____ _____    ______ ____
ROOT
ATOM      1  C   UNL     1      48.035   4.988  16.074  0.00  0.00    +0.000 A 
ATOM      2  C   UNL     1      48.840   6.119  15.854  0.00  0.00    +0.000 A 
ATOM      3  C   UNL     1      48.713   6.899  14.704  0.00  0.00    +0.000 A 
ATOM      4  C   UNL     1      47.794   6.541  13.720  0.00  0.00    +0.000 A 
ATOM      5  C   UNL     1      46.962   5.425  13.886  0.00  0.00    +0.000 A 
ATOM      6  C   UNL     1      47.059   4.710  15.096  0.00  0.00    +0.000 A 
ENDROOT
BRANCH   5   7
ATOM      7  C   UNL     1      46.088   4.935  12.803  0.00  0.00    +0.000 A 
ATOM      8  C   UNL     1      45.869   5.678  11.640  0.00  0.00    +0.000 A 
ATOM      9  C   UNL     1      45.094   5.138  10.617  0.00  0.00    +0.000 A 
ATOM     10  C   UNL     1      44.561   3.867  10.772  0.00  0.00    +0.000 A 
ATOM     11  C   UNL     1      44.830   3.185  11.946  0.00  0.00    +0.000 A 
ATOM     12  N   UNL     1      45.579   3.686  12.955  0.00  0.00    +0.000 NA
ENDBRANCH   5   7
BRANCH   1  13
ATOM     13  C   UNL     1      48.340   4.006  17.221  0.00  0.00    +0.000 C 
ATOM     14  C   UNL     1      47.384   2.885  17.617  0.00  0.00    +0.000 C 
ATOM     15  C   UNL     1      48.514   2.574  16.689  0.00  0.00    +0.000 C 
BRANCH  13  16
ATOM     16  C   UNL     1      49.331   4.451  18.295  0.00  0.00    +0.000 C 
BRANCH  16  20
ATOM     17  C   UNL     1      47.494   6.128  21.757  0.00  0.00    +0.000 A 
ATOM     18  C   UNL     1      47.379   6.822  20.556  0.00  0.00    +0.000 A 
ATOM     19  C   UNL     1      47.998   6.318  19.412  0.00  0.00    +0.000 A 
ATOM     20  C   UNL     1      48.740   5.142  19.504  0.00  0.00    +0.000 A 
ATOM     21  N   UNL     1      48.857   4.463  20.676  0.00  0.00    +0.000 NA
ATOM     22  C   UNL     1      48.243   4.968  21.766  0.00  0.00    +0.000 A 
ENDBRANCH  16  20
ENDBRANCH  13  16
ENDBRANCH   1  13
TORSDOF 4
ENDMDL
MODEL 8
REMARK VINA RESULT:    -5.954      2.404      7.282
REMARK INTER + INTRA:          -8.206
REMARK INTER:                  -7.498
REMARK INTRA:                  -0.708
REMARK UNBOUND:                -0.860
REMARK  Name = 
REMARK  4 active torsions:
REMARK  status: ('A' for Active; 'I' for Inactive)
REMARK    1  A    between atoms: C_4  and  C_5
REMARK    2  A    between atoms: C_5  and  C_6
REMARK    3  A    between atoms: C_6  and  C_7
REMARK    4  A    between atoms: C_11  and  C_12
REMARK                            x       y       z     vdW  Elec       q    Type
REMARK                         _______ _______ _______ _____ _____    ______ ____
ROOT
ATOM      1  C   UNL     1      47.028   7.502  12.546  0.00  0.00    +0.000 A 
ATOM      2  C   UNL     1      46.046   8.503  12.653  0.00  0.00    +0.000 A 
ATOM      3  C   UNL     1      44.768   8.338  12.121  0.00  0.00    +0.000 A 
ATOM      4  C   UNL     1      44.448   7.172  11.429  0.00  0.00    +0.000 A 
ATOM      5  C   UNL     1      45.386   6.138  11.292  0.00  0.00    +0.000 A 
ATOM      6  C   UNL     1      46.639   6.304  11.915  0.00  0.00    +0.000 A 
ENDROOT
BRANCH   5   7
ATOM      7  C   UNL     1      45.130   4.960  10.442  0.00  0.00    +0.000 A 
ATOM      8  C   UNL     1      45.555   4.905   9.112  0.00  0.00    +0.000 A 
ATOM      9  C   UNL     1      45.353   3.742   8.375  0.00  0.00    +0.000 A 
ATOM     10  C   UNL     1      44.739   2.656   8.980  0.00  0.00    +0.000 A 
ATOM     11  C   UNL     1      44.355   2.779  10.304  0.00  0.00    +0.000 A 
ATOM     12  N   UNL     1      44.539   3.897  11.043  0.00  0.00    +0.000 NA
ENDBRANCH   5   7
BRANCH   1  13
ATOM     13  C   UNL     1      48.494   7.784  12.924  0.00  0.00    +0.000 C 
ATOM     14  C   UNL     1      49.668   7.194  12.149  0.00  0.00    +0.000 C 
ATOM     15  C   UNL     1      49.207   8.575  11.815  0.00  0.00    +0.000 C 
BRANCH  13  16
ATOM     16  C   UNL     1      48.790   8.217  14.358  0.00  0.00    +0.000 C 
BRANCH  16  20
ATOM     17  C   UNL     1      50.201   5.326  17.155  0.00  0.00    +0.000 A 
ATOM     18  C   UNL     1      51.121   6.229  16.630  0.00  0.00    +0.000 A 
ATOM     19  C   UNL     1      50.698   7.166  15.686  0.00  0.00    +0.000 A 
ATOM     20  C   UNL     1      49.368   7.159  15.271  0.00  0.00    +0.000 A 
ATOM     21  N   UNL     1      48.467   6.276  15.779  0.00  0.00    +0.000 NA
ATOM     22  C   UNL     1      48.900   5.386  16.696  0.00  0.00    +0.000 A 
ENDBRANCH  16  20
ENDBRANCH  13  16
ENDBRANCH   1  13
TORSDOF 4
ENDMDL
MODEL 9
REMARK VINA RESULT:    -5.790      3.180      6.928
REMARK INTER + INTRA:          -8.004
REMARK INTER:                  -7.167
REMARK INTRA:                  -0.836
REMARK UNBOUND:                -0.860
REMARK  Name = 
REMARK  4 active torsions:
REMARK  status: ('A' for Active; 'I' for Inactive)
REMARK    1  A    between atoms: C_4  and  C_5
REMARK    2  A    between atoms: C_5  and  C_6
REMARK    3  A    between atoms: C_6  and  C_7
REMARK    4  A    between atoms: C_11  and  C_12
REMARK                            x       y       z     vdW  Elec       q    Type
REMARK                         _______ _______ _______ _____ _____    ______ ____
ROOT
ATOM      1  C   UNL     1      46.948   7.243  12.781  0.00  0.00    +0.000 A 
ATOM      2  C   UNL     1      46.017   8.297  12.794  0.00  0.00    +0.000 A 
ATOM      3  C   UNL     1      44.821   8.230  12.080  0.00  0.00    +0.000 A 
ATOM      4  C   UNL     1      44.541   7.112  11.297  0.00  0.00    +0.000 A 
ATOM      5  C   UNL     1      45.430   6.030  11.246  0.00  0.00    +0.000 A 
ATOM      6  C   UNL     1      46.589   6.095  12.047  0.00  0.00    +0.000 A 
ENDROOT
BRANCH   5   7
ATOM      7  C   UNL     1      45.235   4.902  10.315  0.00  0.00    +0.000 A 
ATOM      8  C   UNL     1      44.523   3.758  10.682  0.00  0.00    +0.000 A 
ATOM      9  C   UNL     1      44.305   2.755   9.742  0.00  0.00    +0.000 A 
ATOM     10  C   UNL     1      44.796   2.915   8.456  0.00  0.00    +0.000 A 
ATOM     11  C   UNL     1      45.483   4.080   8.161  0.00  0.00    +0.000 A 
ATOM     12  N   UNL     1      45.708   5.071   9.054  0.00  0.00    +0.000 NA
ENDBRANCH   5   7
BRANCH   1  13
ATOM     13  C   UNL     1      48.358   7.421  13.375  0.00  0.00    +0.000 C 
ATOM     14  C   UNL     1      48.613   8.202  14.660  0.00  0.00    +0.000 C 
ATOM     15  C   UNL     1      48.476   6.716  14.735  0.00  0.00    +0.000 C 
BRANCH  13  16
ATOM     16  C   UNL     1      49.551   7.275  12.433  0.00  0.00    +0.000 C 
BRANCH  16  20
ATOM     17  C   UNL     1      50.993  10.848  10.611  0.00  0.00    +0.000 A 
ATOM     18  C   UNL     1      49.636  10.767  10.905  0.00  0.00    +0.000 A 
ATOM     19  C   UNL     1      49.126   9.599  11.469  0.00  0.00    +0.000 A 
ATOM     20  C   UNL     1      49.985   8.526  11.703  0.00  0.00    +0.000 A 
ATOM     21  N   UNL     1      51.311   8.600  11.415  0.00  0.00    +0.000 NA
ATOM     22  C   UNL     1      51.780   9.744  10.876  0.00  0.00    +0.000 A 
ENDBRANCH  16  20
ENDBRANCH  13  16
ENDBRANCH   1  13
TORSDOF 4
ENDMDL
