MODEL 1
REMARK VINA RESULT:    -8.293      0.000      0.000
REMARK INTER + INTRA:         -14.019
REMARK INTER:                 -12.656
REMARK INTRA:                  -1.363
REMARK UNBOUND:                -1.363
REMARK  Name = 
REMARK  12 active torsions:
REMARK  status: ('A' for Active; 'I' for Inactive)
REMARK    1  A    between atoms: C_1  and  C_2
REMARK    2  A    between atoms: C_2  and  N_3
REMARK    3  A    between atoms: C_5  and  C_6
REMARK    4  A    between atoms: N_8  and  C_9
REMARK    5  A    between atoms: C_9  and  C_10
REMARK    6  A    between atoms: C_13  and  N_14
REMARK    7  A    between atoms: N_14  and  C_15
REMARK    8  A    between atoms: C_15  and  C_16
REMARK    9  A    between atoms: C_15  and  C_17
REMARK   10  A    between atoms: C_17  and  C_18
REMARK   11  A    between atoms: C_27  and  O_28
REMARK   12  A    between atoms: O_28  and  C_29
REMARK                            x       y       z     vdW  Elec       q    Type
REMARK                         _______ _______ _______ _____ _____    ______ ____
ROOT
ATOM      1  C   UNL     1      47.482   5.401  15.054  0.00  0.00    +0.000 C 
ENDROOT
BRANCH   1   2
ATOM      2  C   UNL     1      46.880   5.482  13.673  0.00  0.00    +0.000 A 
ATOM      3  C   UNL     1      47.150   6.536  12.790  0.00  0.00    +0.000 A 
ATOM      4  C   UNL     1      46.676   6.528  11.482  0.00  0.00    +0.000 A 
ATOM      5  C   UNL     1      45.870   5.493  11.023  0.00  0.00    +0.000 A 
ATOM      6  C   UNL     1      45.489   4.511  11.944  0.00  0.00    +0.000 A 
ATOM      7  C   UNL     1      46.003   4.484  13.243  0.00  0.00    +0.000 A 
BRANCH   5   8
ATOM      8  N   UNL     1      45.369   5.449   9.728  0.00  0.00    +0.000 N 
ATOM      9  H   UNL     1      44.530   6.004   9.597  0.00  0.00    +0.000 HD
BRANCH   8  10
ATOM     10  C   UNL     1      45.399   4.209   8.944  0.00  0.00    +0.000 C 
ATOM     11  C   UNL     1      44.005   3.896   8.381  0.00  0.00    +0.000 C 
BRANCH  10  12
ATOM     12  C   UNL     1      46.393   4.365   7.775  0.00  0.00    +0.000 C 
BRANCH  12  13
ATOM     13  C   UNL     1      46.688   3.093   7.012  0.00  0.00    +0.000 A 
ATOM     14  C   UNL     1      46.916   3.113   5.630  0.00  0.00    +0.000 A 
ATOM     15  C   UNL     1      47.241   1.937   4.949  0.00  0.00    +0.000 A 
ATOM     16  C   UNL     1      47.342   0.733   5.643  0.00  0.00    +0.000 A 
ATOM     17  C   UNL     1      47.102   0.699   7.014  0.00  0.00    +0.000 A 
ATOM     18  C   UNL     1      46.776   1.872   7.696  0.00  0.00    +0.000 A 
ENDBRANCH  12  13
ENDBRANCH  10  12
ENDBRANCH   8  10
ENDBRANCH   5   8
ENDBRANCH   1   2
BRANCH   1  21
ATOM     19  C   UNL     1      47.073   3.916  17.093  0.00  0.00    +0.000 C 
ATOM     20  O   UNL     1      46.539   2.875  17.469  0.00  0.00    +0.000 OA
ATOM     21  N   UNL     1      46.959   4.268  15.777  0.00  0.00    +0.000 N 
ATOM     22  H   UNL     1      46.427   3.594  15.244  0.00  0.00    +0.000 HD
BRANCH  19  25
ATOM     23  N   UNL     1      48.342   6.394  19.487  0.00  0.00    +0.000 N 
ATOM     24  C   UNL     1      47.324   5.762  18.840  0.00  0.00    +0.000 A 
ATOM     25  C   UNL     1      47.828   4.781  18.007  0.00  0.00    +0.000 A 
ATOM     26  C   UNL     1      49.241   4.773  18.257  0.00  0.00    +0.000 A 
ATOM     27  C   UNL     1      50.348   4.061  17.785  0.00  0.00    +0.000 A 
ATOM     28  N   UNL     1      51.586   4.362  18.241  0.00  0.00    +0.000 NA
ATOM     29  C   UNL     1      51.695   5.355  19.142  0.00  0.00    +0.000 A 
ATOM     30  N   UNL     1      50.724   6.124  19.658  0.00  0.00    +0.000 NA
ATOM     31  C   UNL     1      49.518   5.782  19.178  0.00  0.00    +0.000 A 
BRANCH  23  33
ATOM     32  C   UNL     1      47.561   7.199  21.672  0.00  0.00    +0.000 C 
ATOM     33  C   UNL     1      48.135   7.567  20.313  0.00  0.00    +0.000 C 
ENDBRANCH  23  33
BRANCH  27  34
ATOM     34  O   UNL     1      50.184   3.100  16.811  0.00  0.00    +0.000 OA
ATOM     35  C   UNL     1      50.703   1.827  17.165  0.00  0.00    +0.000 C 
ENDBRANCH  27  34
ENDBRANCH  19  25
ENDBRANCH   1  21
TORSDOF 9
ENDMDL
MODEL 2
REMARK VINA RESULT:    -8.078      1.623      3.077
REMARK INTER + INTRA:         -13.691
REMARK INTER:                 -12.135
REMARK INTRA:                  -1.556
REMARK UNBOUND:                -1.363
REMARK  Name = 
REMARK  12 active torsions:
REMARK  status: ('A' for Active; 'I' for Inactive)
REMARK    1  A    between atoms: C_1  and  C_2
REMARK    2  A    between atoms: C_2  and  N_3
REMARK    3  A    between atoms: C_5  and  C_6
REMARK    4  A    between atoms: N_8  and  C_9
REMARK    5  A    between atoms: C_9  and  C_10
REMARK    6  A    between atoms: C_13  and  N_14
REMARK    7  A    between atoms: N_14  and  C_15
REMARK    8  A    between atoms: C_15  and  C_16
REMARK    9  A    between atoms: C_15  and  C_17
REMARK   10  A    between atoms: C_17  and  C_18
REMARK   11  A    between atoms: C_27  and  O_28
REMARK   12  A    between atoms: O_28  and  C_29
REMARK                            x       y       z     vdW  Elec       q    Type
REMARK                         _______ _______ _______ _____ _____    ______ ____
ROOT
ATOM      1  C   UNL     1      48.789   6.528  15.101  0.00  0.00    +0.000 C 
ENDROOT
BRANCH   1   2
ATOM      2  C   UNL     1      47.851   6.130  13.988  0.00  0.00    +0.000 A 
ATOM      3  C   UNL     1      47.027   5.000  14.061  0.00  0.00    +0.000 A 
ATOM      4  C   UNL     1      46.088   4.719  13.073  0.00  0.00    +0.000 A 
ATOM      5  C   UNL     1      45.973   5.529  11.950  0.00  0.00    +0.000 A 
ATOM      6  C   UNL     1      46.887   6.580  11.811  0.00  0.00    +0.000 A 
ATOM      7  C   UNL     1      47.798   6.898  12.823  0.00  0.00    +0.000 A 
BRANCH   5   8
ATOM      8  N   UNL     1      45.056   5.283  10.936  0.00  0.00    +0.000 N 
ATOM      9  H   UNL     1      44.223   5.860  10.991  0.00  0.00    +0.000 HD
BRANCH   8  10
ATOM     10  C   UNL     1      44.813   3.920  10.447  0.00  0.00    +0.000 C 
ATOM     11  C   UNL     1      43.502   3.369  11.026  0.00  0.00    +0.000 C 
BRANCH  10  12
ATOM     12  C   UNL     1      44.718   3.937   8.907  0.00  0.00    +0.000 C 
BRANCH  12  13
ATOM     13  C   UNL     1      45.708   3.041   8.197  0.00  0.00    +0.000 A 
ATOM     14  C   UNL     1      45.793   1.674   8.497  0.00  0.00    +0.000 A 
ATOM     15  C   UNL     1      46.674   0.849   7.794  0.00  0.00    +0.000 A 
ATOM     16  C   UNL     1      47.476   1.381   6.786  0.00  0.00    +0.000 A 
ATOM     17  C   UNL     1      47.410   2.740   6.490  0.00  0.00    +0.000 A 
ATOM     18  C   UNL     1      46.532   3.566   7.192  0.00  0.00    +0.000 A 
ENDBRANCH  12  13
ENDBRANCH  10  12
ENDBRANCH   8  10
ENDBRANCH   5   8
ENDBRANCH   1   2
BRANCH   1  21
ATOM     19  C   UNL     1      48.441   6.079  17.592  0.00  0.00    +0.000 C 
ATOM     20  O   UNL     1      47.659   6.237  18.527  0.00  0.00    +0.000 OA
ATOM     21  N   UNL     1      48.096   6.573  16.365  0.00  0.00    +0.000 N 
ATOM     22  H   UNL     1      47.193   7.026  16.374  0.00  0.00    +0.000 HD
BRANCH  19  25
ATOM     23  N   UNL     1      51.892   4.959  18.157  0.00  0.00    +0.000 N 
ATOM     24  C   UNL     1      50.913   5.904  18.210  0.00  0.00    +0.000 A 
ATOM     25  C   UNL     1      49.720   5.377  17.753  0.00  0.00    +0.000 A 
ATOM     26  C   UNL     1      49.998   3.991  17.503  0.00  0.00    +0.000 A 
ATOM     27  C   UNL     1      49.283   2.884  17.039  0.00  0.00    +0.000 A 
ATOM     28  N   UNL     1      49.908   1.693  16.891  0.00  0.00    +0.000 NA
ATOM     29  C   UNL     1      51.216   1.632  17.199  0.00  0.00    +0.000 A 
ATOM     30  N   UNL     1      52.018   2.617  17.631  0.00  0.00    +0.000 NA
ATOM     31  C   UNL     1      51.350   3.773  17.765  0.00  0.00    +0.000 A 
BRANCH  23  33
ATOM     32  C   UNL     1      53.736   6.518  17.710  0.00  0.00    +0.000 C 
ATOM     33  C   UNL     1      53.284   5.258  18.430  0.00  0.00    +0.000 C 
ENDBRANCH  23  33
BRANCH  27  34
ATOM     34  O   UNL     1      47.961   3.022  16.674  0.00  0.00    +0.000 OA
ATOM     35  C   UNL     1      47.043   2.790  17.732  0.00  0.00    +0.000 C 
ENDBRANCH  27  34
ENDBRANCH  19  25
ENDBRANCH   1  21
TORSDOF 9
ENDMDL
MODEL 3
REMARK VINA RESULT:    -7.712      1.264      2.944
REMARK INTER + INTRA:         -13.132
REMARK INTER:                 -12.484
REMARK INTRA:                  -0.648
REMARK UNBOUND:                -1.363
REMARK  Name = 
REMARK  12 active torsions:
REMARK  status: ('A' for Active; 'I' for Inactive)
REMARK    1  A    between atoms: C_1  and  C_2
REMARK    2  A    between atoms: C_2  and  N_3
REMARK    3  A    between atoms: C_5  and  C_6
REMARK    4  A    between atoms: N_8  and  C_9
REMARK    5  A    between atoms: C_9  and  C_10
REMARK    6  A    between atoms: C_13  and  N_14
REMARK    7  A    between atoms: N_14  and  C_15
REMARK    8  A    between atoms: C_15  and  C_16
REMARK    9  A    between atoms: C_15  and  C_17
REMARK   10  A    between atoms: C_17  and  C_18
REMARK   11  A    between atoms: C_27  and  O_28
REMARK   12  A    between atoms: O_28  and  C_29
REMARK                            x       y       z     vdW  Elec       q    Type
REMARK                         _______ _______ _______ _____ _____    ______ ____
ROOT
ATOM      1  C   UNL     1      47.393   4.791  14.968  0.00  0.00    +0.000 C 
ENDROOT
BRANCH   1   2
ATOM      2  C   UNL     1      46.507   4.880  13.750  0.00  0.00    +0.000 A 
ATOM      3  C   UNL     1      46.212   6.095  13.117  0.00  0.00    +0.000 A 
ATOM      4  C   UNL     1      45.489   6.138  11.929  0.00  0.00    +0.000 A 
ATOM      5  C   UNL     1      44.989   4.975  11.357  0.00  0.00    +0.000 A 
ATOM      6  C   UNL     1      45.168   3.778  12.059  0.00  0.00    +0.000 A 
ATOM      7  C   UNL     1      45.937   3.719  13.224  0.00  0.00    +0.000 A 
BRANCH   5   8
ATOM      8  N   UNL     1      44.256   4.973  10.177  0.00  0.00    +0.000 N 
ATOM      9  H   UNL     1      43.297   4.661  10.293  0.00  0.00    +0.000 HD
BRANCH   8  10
ATOM     10  C   UNL     1      44.869   4.575   8.903  0.00  0.00    +0.000 C 
ATOM     11  C   UNL     1      46.261   5.206   8.759  0.00  0.00    +0.000 C 
BRANCH  10  12
ATOM     12  C   UNL     1      45.001   3.039   8.856  0.00  0.00    +0.000 C 
BRANCH  12  13
ATOM     13  C   UNL     1      45.887   2.509   7.751  0.00  0.00    +0.000 A 
ATOM     14  C   UNL     1      46.088   3.238   6.570  0.00  0.00    +0.000 A 
ATOM     15  C   UNL     1      46.952   2.760   5.582  0.00  0.00    +0.000 A 
ATOM     16  C   UNL     1      47.623   1.553   5.765  0.00  0.00    +0.000 A 
ATOM     17  C   UNL     1      47.420   0.813   6.927  0.00  0.00    +0.000 A 
ATOM     18  C   UNL     1      46.556   1.288   7.915  0.00  0.00    +0.000 A 
ENDBRANCH  12  13
ENDBRANCH  10  12
ENDBRANCH   8  10
ENDBRANCH   5   8
ENDBRANCH   1   2
BRANCH   1  21
ATOM     19  C   UNL     1      47.351   3.326  17.061  0.00  0.00    +0.000 C 
ATOM     20  O   UNL     1      46.625   2.632  17.770  0.00  0.00    +0.000 OA
ATOM     21  N   UNL     1      46.800   3.944  15.974  0.00  0.00    +0.000 N 
ATOM     22  H   UNL     1      45.815   3.742  15.876  0.00  0.00    +0.000 HD
BRANCH  19  25
ATOM     23  N   UNL     1      50.988   3.113  17.525  0.00  0.00    +0.000 N 
ATOM     24  C   UNL     1      49.808   2.627  17.048  0.00  0.00    +0.000 A 
ATOM     25  C   UNL     1      48.780   3.503  17.344  0.00  0.00    +0.000 A 
ATOM     26  C   UNL     1      49.420   4.633  17.955  0.00  0.00    +0.000 A 
ATOM     27  C   UNL     1      49.014   5.857  18.492  0.00  0.00    +0.000 A 
ATOM     28  N   UNL     1      49.930   6.690  19.037  0.00  0.00    +0.000 NA
ATOM     29  C   UNL     1      51.214   6.290  19.041  0.00  0.00    +0.000 A 
ATOM     30  N   UNL     1      51.730   5.140  18.581  0.00  0.00    +0.000 NA
ATOM     31  C   UNL     1      50.783   4.353  18.047  0.00  0.00    +0.000 A 
BRANCH  23  33
ATOM     32  C   UNL     1      51.954   0.863  17.704  0.00  0.00    +0.000 C 
ATOM     33  C   UNL     1      52.217   2.346  17.498  0.00  0.00    +0.000 C 
ENDBRANCH  23  33
BRANCH  27  34
ATOM     34  O   UNL     1      47.676   6.186  18.522  0.00  0.00    +0.000 OA
ATOM     35  C   UNL     1      47.414   7.493  19.008  0.00  0.00    +0.000 C 
ENDBRANCH  27  34
ENDBRANCH  19  25
ENDBRANCH   1  21
TORSDOF 9
ENDMDL
MODEL 4
REMARK VINA RESULT:    -7.693      2.349      3.236
REMARK INTER + INTRA:         -13.103
REMARK INTER:                 -11.364
REMARK INTRA:                  -1.739
REMARK UNBOUND:                -1.363
REMARK  Name = 
REMARK  12 active torsions:
REMARK  status: ('A' for Active; 'I' for Inactive)
REMARK    1  A    between atoms: C_1  and  C_2
REMARK    2  A    between atoms: C_2  and  N_3
REMARK    3  A    between atoms: C_5  and  C_6
REMARK    4  A    between atoms: N_8  and  C_9
REMARK    5  A    between atoms: C_9  and  C_10
REMARK    6  A    between atoms: C_13  and  N_14
REMARK    7  A    between atoms: N_14  and  C_15
REMARK    8  A    between atoms: C_15  and  C_16
REMARK    9  A    between atoms: C_15  and  C_17
REMARK   10  A    between atoms: C_17  and  C_18
REMARK   11  A    between atoms: C_27  and  O_28
REMARK   12  A    between atoms: O_28  and  C_29
REMARK                            x       y       z     vdW  Elec       q    Type
REMARK                         _______ _______ _______ _____ _____    ______ ____
ROOT
ATOM      1  C   UNL     1      49.177   7.099  13.848  0.00  0.00    +0.000 C 
ENDROOT
BRANCH   1   2
ATOM      2  C   UNL     1      47.944   6.614  13.126  0.00  0.00    +0.000 A 
ATOM      3  C   UNL     1      47.536   7.135  11.892  0.00  0.00    +0.000 A 
ATOM      4  C   UNL     1      46.463   6.592  11.191  0.00  0.00    +0.000 A 
ATOM      5  C   UNL     1      45.726   5.540  11.723  0.00  0.00    +0.000 A 
ATOM      6  C   UNL     1      46.049   5.109  13.014  0.00  0.00    +0.000 A 
ATOM      7  C   UNL     1      47.156   5.614  13.701  0.00  0.00    +0.000 A 
BRANCH   5   8
ATOM      8  N   UNL     1      44.643   4.973  11.062  0.00  0.00    +0.000 N 
ATOM      9  H   UNL     1      43.751   5.386  11.311  0.00  0.00    +0.000 HD
BRANCH   8  10
ATOM     10  C   UNL     1      44.587   3.529  10.799  0.00  0.00    +0.000 C 
ATOM     11  C   UNL     1      43.486   2.873  11.645  0.00  0.00    +0.000 C 
BRANCH  10  12
ATOM     12  C   UNL     1      44.284   3.292   9.305  0.00  0.00    +0.000 C 
BRANCH  12  13
ATOM     13  C   UNL     1      45.457   2.800   8.487  0.00  0.00    +0.000 A 
ATOM     14  C   UNL     1      45.817   1.446   8.477  0.00  0.00    +0.000 A 
ATOM     15  C   UNL     1      46.869   0.998   7.674  0.00  0.00    +0.000 A 
ATOM     16  C   UNL     1      47.569   1.899   6.874  0.00  0.00    +0.000 A 
ATOM     17  C   UNL     1      47.230   3.250   6.887  0.00  0.00    +0.000 A 
ATOM     18  C   UNL     1      46.180   3.699   7.689  0.00  0.00    +0.000 A 
ENDBRANCH  12  13
ENDBRANCH  10  12
ENDBRANCH   8  10
ENDBRANCH   5   8
ENDBRANCH   1   2
BRANCH   1  21
ATOM     19  C   UNL     1      48.848   7.553  16.341  0.00  0.00    +0.000 C 
ATOM     20  O   UNL     1      48.471   8.396  17.153  0.00  0.00    +0.000 OA
ATOM     21  N   UNL     1      48.819   7.872  15.012  0.00  0.00    +0.000 N 
ATOM     22  H   UNL     1      48.469   8.806  14.849  0.00  0.00    +0.000 HD
BRANCH  19  25
ATOM     23  N   UNL     1      49.342   4.069  17.390  0.00  0.00    +0.000 N 
ATOM     24  C   UNL     1      48.556   5.088  16.945  0.00  0.00    +0.000 A 
ATOM     25  C   UNL     1      49.318   6.226  16.753  0.00  0.00    +0.000 A 
ATOM     26  C   UNL     1      50.669   5.815  17.014  0.00  0.00    +0.000 A 
ATOM     27  C   UNL     1      51.928   6.421  17.015  0.00  0.00    +0.000 A 
ATOM     28  N   UNL     1      53.020   5.703  17.361  0.00  0.00    +0.000 NA
ATOM     29  C   UNL     1      52.838   4.413  17.699  0.00  0.00    +0.000 A 
ATOM     30  N   UNL     1      51.690   3.721  17.759  0.00  0.00    +0.000 NA
ATOM     31  C   UNL     1      50.640   4.476  17.403  0.00  0.00    +0.000 A 
BRANCH  23  33
ATOM     32  C   UNL     1      47.284   2.767  17.711  0.00  0.00    +0.000 C 
ATOM     33  C   UNL     1      48.800   2.795  17.821  0.00  0.00    +0.000 C 
ENDBRANCH  23  33
BRANCH  27  34
ATOM     34  O   UNL     1      52.046   7.764  16.725  0.00  0.00    +0.000 OA
ATOM     35  C   UNL     1      52.739   8.034  15.516  0.00  0.00    +0.000 C 
ENDBRANCH  27  34
ENDBRANCH  19  25
ENDBRANCH   1  21
TORSDOF 9
ENDMDL
MODEL 5
REMARK VINA RESULT:    -7.461      2.135      3.108
REMARK INTER + INTRA:         -12.749
REMARK INTER:                 -11.124
REMARK INTRA:                  -1.625
REMARK UNBOUND:                -1.363
REMARK  Name = 
REMARK  12 active torsions:
REMARK  status: ('A' for Active; 'I' for Inactive)
REMARK    1  A    between atoms: C_1  and  C_2
REMARK    2  A    between atoms: C_2  and  N_3
REMARK    3  A    between atoms: C_5  and  C_6
REMARK    4  A    between atoms: N_8  and  C_9
REMARK    5  A    between atoms: C_9  and  C_10
REMARK    6  A    between atoms: C_13  and  N_14
REMARK    7  A    between atoms: N_14  and  C_15
REMARK    8  A    between atoms: C_15  and  C_16
REMARK    9  A    between atoms: C_15  and  C_17
REMARK   10  A    between atoms: C_17  and  C_18
REMARK   11  A    between atoms: C_27  and  O_28
REMARK   12  A    between atoms: O_28  and  C_29
REMARK                            x       y       z     vdW  Elec       q    Type
REMARK                         _______ _______ _______ _____ _____    ______ ____
ROOT
ATOM      1  C   UNL     1      48.024   8.579  14.104  0.00  0.00    +0.000 C 
ENDROOT
BRANCH   1   2
ATOM      2  C   UNL     1      47.123   7.856  13.133  0.00  0.00    +0.000 A 
ATOM      3  C   UNL     1      47.439   6.600  12.600  0.00  0.00    +0.000 A 
ATOM      4  C   UNL     1      46.539   5.903  11.799  0.00  0.00    +0.000 A 
ATOM      5  C   UNL     1      45.313   6.459  11.457  0.00  0.00    +0.000 A 
ATOM      6  C   UNL     1      45.054   7.768  11.877  0.00  0.00    +0.000 A 
ATOM      7  C   UNL     1      45.929   8.454  12.724  0.00  0.00    +0.000 A 
BRANCH   5   8
ATOM      8  N   UNL     1      44.388   5.803  10.653  0.00  0.00    +0.000 N 
ATOM      9  H   UNL     1      43.439   6.143  10.762  0.00  0.00    +0.000 HD
BRANCH   8  10
ATOM     10  C   UNL     1      44.486   4.358  10.408  0.00  0.00    +0.000 C 
ATOM     11  C   UNL     1      43.429   3.603  11.228  0.00  0.00    +0.000 C 
BRANCH  10  12
ATOM     12  C   UNL     1      44.260   4.077   8.908  0.00  0.00    +0.000 C 
BRANCH  12  13
ATOM     13  C   UNL     1      45.298   3.188   8.262  0.00  0.00    +0.000 A 
ATOM     14  C   UNL     1      46.229   3.705   7.350  0.00  0.00    +0.000 A 
ATOM     15  C   UNL     1      47.217   2.882   6.804  0.00  0.00    +0.000 A 
ATOM     16  C   UNL     1      47.284   1.538   7.163  0.00  0.00    +0.000 A 
ATOM     17  C   UNL     1      46.355   1.010   8.057  0.00  0.00    +0.000 A 
ATOM     18  C   UNL     1      45.367   1.829   8.603  0.00  0.00    +0.000 A 
ENDBRANCH  12  13
ENDBRANCH  10  12
ENDBRANCH   8  10
ENDBRANCH   5   8
ENDBRANCH   1   2
BRANCH   1  21
ATOM     19  C   UNL     1      49.923   7.457  15.395  0.00  0.00    +0.000 C 
ATOM     20  O   UNL     1      51.002   6.882  15.268  0.00  0.00    +0.000 OA
ATOM     21  N   UNL     1      49.273   7.876  14.267  0.00  0.00    +0.000 N 
ATOM     22  H   UNL     1      49.785   7.656  13.425  0.00  0.00    +0.000 HD
BRANCH  19  25
ATOM     23  N   UNL     1      48.736   8.713  18.636  0.00  0.00    +0.000 N 
ATOM     24  C   UNL     1      49.350   8.888  17.432  0.00  0.00    +0.000 A 
ATOM     25  C   UNL     1      49.321   7.710  16.709  0.00  0.00    +0.000 A 
ATOM     26  C   UNL     1      48.548   6.803  17.510  0.00  0.00    +0.000 A 
ATOM     27  C   UNL     1      48.124   5.475  17.409  0.00  0.00    +0.000 A 
ATOM     28  N   UNL     1      47.411   4.918  18.415  0.00  0.00    +0.000 NA
ATOM     29  C   UNL     1      47.143   5.684  19.489  0.00  0.00    +0.000 A 
ATOM     30  N   UNL     1      47.507   6.955  19.718  0.00  0.00    +0.000 NA
ATOM     31  C   UNL     1      48.206   7.461  18.690  0.00  0.00    +0.000 A 
BRANCH  23  33
ATOM     32  C   UNL     1      47.529  10.637  19.567  0.00  0.00    +0.000 C 
ATOM     33  C   UNL     1      48.742   9.728  19.670  0.00  0.00    +0.000 C 
ENDBRANCH  23  33
BRANCH  27  34
ATOM     34  O   UNL     1      48.486   4.717  16.316  0.00  0.00    +0.000 OA
ATOM     35  C   UNL     1      47.402   4.380  15.464  0.00  0.00    +0.000 C 
ENDBRANCH  27  34
ENDBRANCH  19  25
ENDBRANCH   1  21
TORSDOF 9
ENDMDL
MODEL 6
REMARK VINA RESULT:    -6.886      1.943      3.015
REMARK INTER + INTRA:         -11.872
REMARK INTER:                 -10.527
REMARK INTRA:                  -1.345
REMARK UNBOUND:                -1.363
REMARK  Name = 
REMARK  12 active torsions:
REMARK  status: ('A' for Active; 'I' for Inactive)
REMARK    1  A    between atoms: C_1  and  C_2
REMARK    2  A    between atoms: C_2  and  N_3
REMARK    3  A    between atoms: C_5  and  C_6
REMARK    4  A    between atoms: N_8  and  C_9
REMARK    5  A    between atoms: C_9  and  C_10
REMARK    6  A    between atoms: C_13  and  N_14
REMARK    7  A    between atoms: N_14  and  C_15
REMARK    8  A    between atoms: C_15  and  C_16
REMARK    9  A    between atoms: C_15  and  C_17
REMARK   10  A    between atoms: C_17  and  C_18
REMARK   11  A    between atoms: C_27  and  O_28
REMARK   12  A    between atoms: O_28  and  C_29
REMARK                            x       y       z     vdW  Elec       q    Type
REMARK                         _______ _______ _______ _____ _____    ______ ____
ROOT
ATOM      1  C   UNL     1      48.403   5.811  15.336  0.00  0.00    +0.000 C 
ENDROOT
BRANCH   1   2
ATOM      2  C   UNL     1      47.572   5.808  14.077  0.00  0.00    +0.000 A 
ATOM      3  C   UNL     1      47.665   6.814  13.106  0.00  0.00    +0.000 A 
ATOM      4  C   UNL     1      46.973   6.729  11.901  0.00  0.00    +0.000 A 
ATOM      5  C   UNL     1      46.123   5.661  11.643  0.00  0.00    +0.000 A 
ATOM      6  C   UNL     1      45.926   4.727  12.666  0.00  0.00    +0.000 A 
ATOM      7  C   UNL     1      46.655   4.777  13.857  0.00  0.00    +0.000 A 
BRANCH   5   8
ATOM      8  N   UNL     1      45.408   5.540  10.458  0.00  0.00    +0.000 N 
ATOM      9  H   UNL     1      44.717   6.270  10.322  0.00  0.00    +0.000 HD
BRANCH   8  10
ATOM     10  C   UNL     1      45.002   4.224   9.948  0.00  0.00    +0.000 C 
ATOM     11  C   UNL     1      43.577   3.886  10.408  0.00  0.00    +0.000 C 
BRANCH  10  12
ATOM     12  C   UNL     1      45.046   4.237   8.405  0.00  0.00    +0.000 C 
BRANCH  12  13
ATOM     13  C   UNL     1      45.914   3.167   7.782  0.00  0.00    +0.000 A 
ATOM     14  C   UNL     1      46.031   1.898   8.365  0.00  0.00    +0.000 A 
ATOM     15  C   UNL     1      46.793   0.903   7.748  0.00  0.00    +0.000 A 
ATOM     16  C   UNL     1      47.444   1.167   6.545  0.00  0.00    +0.000 A 
ATOM     17  C   UNL     1      47.347   2.429   5.965  0.00  0.00    +0.000 A 
ATOM     18  C   UNL     1      46.587   3.425   6.580  0.00  0.00    +0.000 A 
ENDBRANCH  12  13
ENDBRANCH  10  12
ENDBRANCH   8  10
ENDBRANCH   5   8
ENDBRANCH   1   2
BRANCH   1  21
ATOM     19  C   UNL     1      47.929   5.354  17.805  0.00  0.00    +0.000 C 
ATOM     20  O   UNL     1      47.049   5.035  18.602  0.00  0.00    +0.000 OA
ATOM     21  N   UNL     1      47.598   5.473  16.484  0.00  0.00    +0.000 N 
ATOM     22  H   UNL     1      46.624   5.268  16.312  0.00  0.00    +0.000 HD
BRANCH  19  25
ATOM     23  N   UNL     1      51.400   5.296  19.004  0.00  0.00    +0.000 N 
ATOM     24  C   UNL     1      50.250   4.671  18.626  0.00  0.00    +0.000 A 
ATOM     25  C   UNL     1      49.312   5.606  18.226  0.00  0.00    +0.000 A 
ATOM     26  C   UNL     1      49.997   6.866  18.284  0.00  0.00    +0.000 A 
ATOM     27  C   UNL     1      49.679   8.202  18.028  0.00  0.00    +0.000 A 
ATOM     28  N   UNL     1      50.605   9.166  18.235  0.00  0.00    +0.000 NA
ATOM     29  C   UNL     1      51.812   8.785  18.691  0.00  0.00    +0.000 A 
ATOM     30  N   UNL     1      52.236   7.548  18.994  0.00  0.00    +0.000 NA
ATOM     31  C   UNL     1      51.283   6.631  18.767  0.00  0.00    +0.000 A 
BRANCH  23  33
ATOM     32  C   UNL     1      52.376   4.536  21.124  0.00  0.00    +0.000 C 
ATOM     33  C   UNL     1      52.509   4.588  19.611  0.00  0.00    +0.000 C 
ENDBRANCH  23  33
BRANCH  27  34
ATOM     34  O   UNL     1      48.405   8.542  17.626  0.00  0.00    +0.000 OA
ATOM     35  C   UNL     1      48.365   9.373  16.476  0.00  0.00    +0.000 C 
ENDBRANCH  27  34
ENDBRANCH  19  25
ENDBRANCH   1  21
TORSDOF 9
ENDMDL
MODEL 7
REMARK VINA RESULT:    -6.706      2.051      2.826
REMARK INTER + INTRA:         -11.596
REMARK INTER:                  -9.989
REMARK INTRA:                  -1.608
REMARK UNBOUND:                -1.363
REMARK  Name = 
REMARK  12 active torsions:
REMARK  status: ('A' for Active; 'I' for Inactive)
REMARK    1  A    between atoms: C_1  and  C_2
REMARK    2  A    between atoms: C_2  and  N_3
REMARK    3  A    between atoms: C_5  and  C_6
REMARK    4  A    between atoms: N_8  and  C_9
REMARK    5  A    between atoms: C_9  and  C_10
REMARK    6  A    between atoms: C_13  and  N_14
REMARK    7  A    between atoms: N_14  and  C_15
REMARK    8  A    between atoms: C_15  and  C_16
REMARK    9  A    between atoms: C_15  and  C_17
REMARK   10  A    between atoms: C_17  and  C_18
REMARK   11  A    between atoms: C_27  and  O_28
REMARK   12  A    between atoms: O_28  and  C_29
REMARK                            x       y       z     vdW  Elec       q    Type
REMARK                         _______ _______ _______ _____ _____    ______ ____
ROOT
ATOM      1  C   UNL     1      47.948   4.260  16.071  0.00  0.00    +0.000 C 
ENDROOT
BRANCH   1   2
ATOM      2  C   UNL     1      47.263   4.598  14.769  0.00  0.00    +0.000 A 
ATOM      3  C   UNL     1      47.274   5.887  14.221  0.00  0.00    +0.000 A 
ATOM      4  C   UNL     1      46.735   6.147  12.964  0.00  0.00    +0.000 A 
ATOM      5  C   UNL     1      46.119   5.140  12.232  0.00  0.00    +0.000 A 
ATOM      6  C   UNL     1      45.988   3.885  12.837  0.00  0.00    +0.000 A 
ATOM      7  C   UNL     1      46.571   3.603  14.075  0.00  0.00    +0.000 A 
BRANCH   5   8
ATOM      8  N   UNL     1      45.561   5.357  10.978  0.00  0.00    +0.000 N 
ATOM      9  H   UNL     1      45.340   6.330  10.793  0.00  0.00    +0.000 HD
BRANCH   8  10
ATOM     10  C   UNL     1      44.612   4.401  10.393  0.00  0.00    +0.000 C 
ATOM     11  C   UNL     1      43.174   4.764  10.789  0.00  0.00    +0.000 C 
BRANCH  10  12
ATOM     12  C   UNL     1      44.737   4.431   8.856  0.00  0.00    +0.000 C 
BRANCH  12  13
ATOM     13  C   UNL     1      45.654   3.381   8.269  0.00  0.00    +0.000 A 
ATOM     14  C   UNL     1      45.543   2.034   8.640  0.00  0.00    +0.000 A 
ATOM     15  C   UNL     1      46.361   1.068   8.049  0.00  0.00    +0.000 A 
ATOM     16  C   UNL     1      47.294   1.439   7.083  0.00  0.00    +0.000 A 
ATOM     17  C   UNL     1      47.423   2.776   6.718  0.00  0.00    +0.000 A 
ATOM     18  C   UNL     1      46.608   3.743   7.308  0.00  0.00    +0.000 A 
ENDBRANCH  12  13
ENDBRANCH  10  12
ENDBRANCH   8  10
ENDBRANCH   5   8
ENDBRANCH   1   2
BRANCH   1  21
ATOM     19  C   UNL     1      47.392   5.694  18.111  0.00  0.00    +0.000 C 
ATOM     20  O   UNL     1      46.563   5.873  19.001  0.00  0.00    +0.000 OA
ATOM     21  N   UNL     1      47.162   4.706  17.195  0.00  0.00    +0.000 N 
ATOM     22  H   UNL     1      46.298   4.213  17.372  0.00  0.00    +0.000 HD
BRANCH  19  25
ATOM     23  N   UNL     1      50.128   8.007  17.301  0.00  0.00    +0.000 N 
ATOM     24  C   UNL     1      48.855   7.550  17.140  0.00  0.00    +0.000 A 
ATOM     25  C   UNL     1      48.614   6.502  18.008  0.00  0.00    +0.000 A 
ATOM     26  C   UNL     1      49.803   6.400  18.806  0.00  0.00    +0.000 A 
ATOM     27  C   UNL     1      50.254   5.588  19.850  0.00  0.00    +0.000 A 
ATOM     28  N   UNL     1      51.498   5.765  20.351  0.00  0.00    +0.000 NA
ATOM     29  C   UNL     1      52.258   6.732  19.807  0.00  0.00    +0.000 A 
ATOM     30  N   UNL     1      51.956   7.561  18.796  0.00  0.00    +0.000 NA
ATOM     31  C   UNL     1      50.713   7.347  18.338  0.00  0.00    +0.000 A 
BRANCH  23  33
ATOM     32  C   UNL     1      51.427   8.356  15.247  0.00  0.00    +0.000 C 
ATOM     33  C   UNL     1      50.718   9.001  16.427  0.00  0.00    +0.000 C 
ENDBRANCH  23  33
BRANCH  27  34
ATOM     34  O   UNL     1      49.456   4.568  20.323  0.00  0.00    +0.000 OA
ATOM     35  C   UNL     1      48.783   4.877  21.534  0.00  0.00    +0.000 C 
ENDBRANCH  27  34
ENDBRANCH  19  25
ENDBRANCH   1  21
TORSDOF 9
ENDMDL
MODEL 8
REMARK VINA RESULT:    -6.406      2.062      3.049
REMARK INTER + INTRA:         -11.140
REMARK INTER:                  -9.913
REMARK INTRA:                  -1.227
REMARK UNBOUND:                -1.363
REMARK  Name = 
REMARK  12 active torsions:
REMARK  status: ('A' for Active; 'I' for Inactive)
REMARK    1  A    between atoms: C_1  and  C_2
REMARK    2  A    between atoms: C_2  and  N_3
REMARK    3  A    between atoms: C_5  and  C_6
REMARK    4  A    between atoms: N_8  and  C_9
REMARK    5  A    between atoms: C_9  and  C_10
REMARK    6  A    between atoms: C_13  and  N_14
REMARK    7  A    between atoms: N_14  and  C_15
REMARK    8  A    between atoms: C_15  and  C_16
REMARK    9  A    between atoms: C_15  and  C_17
REMARK   10  A    between atoms: C_17  and  C_18
REMARK   11  A    between atoms: C_27  and  O_28
REMARK   12  A    between atoms: O_28  and  C_29
REMARK                            x       y       z     vdW  Elec       q    Type
REMARK                         _______ _______ _______ _____ _____    ______ ____
ROOT
ATOM      1  C   UNL     1      48.955   6.796  15.450  0.00  0.00    +0.000 C 
ENDROOT
BRANCH   1   2
ATOM      2  C   UNL     1      48.092   6.434  14.266  0.00  0.00    +0.000 A 
ATOM      3  C   UNL     1      47.369   5.236  14.196  0.00  0.00    +0.000 A 
ATOM      4  C   UNL     1      46.490   4.978  13.148  0.00  0.00    +0.000 A 
ATOM      5  C   UNL     1      46.342   5.884  12.104  0.00  0.00    +0.000 A 
ATOM      6  C   UNL     1      47.164   7.016  12.106  0.00  0.00    +0.000 A 
ATOM      7  C   UNL     1      48.009   7.308  13.180  0.00  0.00    +0.000 A 
BRANCH   5   8
ATOM      8  N   UNL     1      45.483   5.664  11.035  0.00  0.00    +0.000 N 
ATOM      9  H   UNL     1      44.955   6.485  10.759  0.00  0.00    +0.000 HD
BRANCH   8  10
ATOM     10  C   UNL     1      44.744   4.401  10.902  0.00  0.00    +0.000 C 
ATOM     11  C   UNL     1      43.489   4.420  11.786  0.00  0.00    +0.000 C 
BRANCH  10  12
ATOM     12  C   UNL     1      44.324   4.206   9.430  0.00  0.00    +0.000 C 
BRANCH  12  13
ATOM     13  C   UNL     1      45.237   3.313   8.619  0.00  0.00    +0.000 A 
ATOM     14  C   UNL     1      46.107   3.847   7.659  0.00  0.00    +0.000 A 
ATOM     15  C   UNL     1      46.983   3.015   6.957  0.00  0.00    +0.000 A 
ATOM     16  C   UNL     1      46.997   1.645   7.209  0.00  0.00    +0.000 A 
ATOM     17  C   UNL     1      46.126   1.102   8.150  0.00  0.00    +0.000 A 
ATOM     18  C   UNL     1      45.250   1.930   8.851  0.00  0.00    +0.000 A 
ENDBRANCH  12  13
ENDBRANCH  10  12
ENDBRANCH   8  10
ENDBRANCH   5   8
ENDBRANCH   1   2
BRANCH   1  21
ATOM     19  C   UNL     1      48.548   7.027  17.963  0.00  0.00    +0.000 C 
ATOM     20  O   UNL     1      47.679   7.004  18.832  0.00  0.00    +0.000 OA
ATOM     21  N   UNL     1      48.173   6.837  16.662  0.00  0.00    +0.000 N 
ATOM     22  H   UNL     1      47.178   6.688  16.568  0.00  0.00    +0.000 HD
BRANCH  19  25
ATOM     23  N   UNL     1      51.974   8.228  18.523  0.00  0.00    +0.000 N 
ATOM     24  C   UNL     1      50.663   8.438  18.216  0.00  0.00    +0.000 A 
ATOM     25  C   UNL     1      49.964   7.246  18.279  0.00  0.00    +0.000 A 
ATOM     26  C   UNL     1      50.917   6.283  18.752  0.00  0.00    +0.000 A 
ATOM     27  C   UNL     1      50.914   4.916  19.044  0.00  0.00    +0.000 A 
ATOM     28  N   UNL     1      52.054   4.311  19.450  0.00  0.00    +0.000 NA
ATOM     29  C   UNL     1      53.160   5.070  19.552  0.00  0.00    +0.000 A 
ATOM     30  N   UNL     1      53.303   6.377  19.285  0.00  0.00    +0.000 NA
ATOM     31  C   UNL     1      52.145   6.929  18.891  0.00  0.00    +0.000 A 
BRANCH  23  33
ATOM     32  C   UNL     1      53.762   9.123  17.098  0.00  0.00    +0.000 C 
ATOM     33  C   UNL     1      52.982   9.261  18.394  0.00  0.00    +0.000 C 
ENDBRANCH  23  33
BRANCH  27  34
ATOM     34  O   UNL     1      49.767   4.175  18.856  0.00  0.00    +0.000 OA
ATOM     35  C   UNL     1      49.740   3.453  17.634  0.00  0.00    +0.000 C 
ENDBRANCH  27  34
ENDBRANCH  19  25
ENDBRANCH   1  21
TORSDOF 9
ENDMDL
MODEL 9
REMARK VINA RESULT:    -6.320      3.920      5.894
REMARK INTER + INTRA:         -11.009
REMARK INTER:                  -8.918
REMARK INTRA:                  -2.091
REMARK UNBOUND:                -1.363
REMARK  Name = 
REMARK  12 active torsions:
REMARK  status: ('A' for Active; 'I' for Inactive)
REMARK    1  A    between atoms: C_1  and  C_2
REMARK    2  A    between atoms: C_2  and  N_3
REMARK    3  A    between atoms: C_5  and  C_6
REMARK    4  A    between atoms: N_8  and  C_9
REMARK    5  A    between atoms: C_9  and  C_10
REMARK    6  A    between atoms: C_13  and  N_14
REMARK    7  A    between atoms: N_14  and  C_15
REMARK    8  A    between atoms: C_15  and  C_16
REMARK    9  A    between atoms: C_15  and  C_17
REMARK   10  A    between atoms: C_17  and  C_18
REMARK   11  A    between atoms: C_27  and  O_28
REMARK   12  A    between atoms: O_28  and  C_29
REMARK                            x       y       z     vdW  Elec       q    Type
REMARK                         _______ _______ _______ _____ _____    ______ ____
ROOT
ATOM      1  C   UNL     1      51.501   7.397  17.310  0.00  0.00    +0.000 C 
ENDROOT
BRANCH   1   2
ATOM      2  C   UNL     1      50.363   7.754  16.387  0.00  0.00    +0.000 A 
ATOM      3  C   UNL     1      50.042   6.998  15.253  0.00  0.00    +0.000 A 
ATOM      4  C   UNL     1      48.917   7.281  14.484  0.00  0.00    +0.000 A 
ATOM      5  C   UNL     1      48.100   8.363  14.790  0.00  0.00    +0.000 A 
ATOM      6  C   UNL     1      48.496   9.198  15.840  0.00  0.00    +0.000 A 
ATOM      7  C   UNL     1      49.594   8.891  16.649  0.00  0.00    +0.000 A 
BRANCH   5   8
ATOM      8  N   UNL     1      46.973   8.687  14.045  0.00  0.00    +0.000 N 
ATOM      9  H   UNL     1      46.127   8.226  14.365  0.00  0.00    +0.000 HD
BRANCH   8  10
ATOM     10  C   UNL     1      47.049   8.864  12.590  0.00  0.00    +0.000 C 
ATOM     11  C   UNL     1      48.274   9.711  12.217  0.00  0.00    +0.000 C 
BRANCH  10  12
ATOM     12  C   UNL     1      47.163   7.483  11.911  0.00  0.00    +0.000 C 
BRANCH  12  13
ATOM     13  C   UNL     1      45.992   6.556  12.149  0.00  0.00    +0.000 A 
ATOM     14  C   UNL     1      46.111   5.441  12.989  0.00  0.00    +0.000 A 
ATOM     15  C   UNL     1      45.005   4.625  13.243  0.00  0.00    +0.000 A 
ATOM     16  C   UNL     1      43.774   4.917  12.661  0.00  0.00    +0.000 A 
ATOM     17  C   UNL     1      43.648   6.014  11.812  0.00  0.00    +0.000 A 
ATOM     18  C   UNL     1      44.751   6.829  11.556  0.00  0.00    +0.000 A 
ENDBRANCH  12  13
ENDBRANCH  10  12
ENDBRANCH   8  10
ENDBRANCH   5   8
ENDBRANCH   1   2
BRANCH   1  21
ATOM     19  C   UNL     1      50.675   6.083  19.341  0.00  0.00    +0.000 C 
ATOM     20  O   UNL     1      50.283   6.196  20.501  0.00  0.00    +0.000 OA
ATOM     21  N   UNL     1      51.030   7.216  18.661  0.00  0.00    +0.000 N 
ATOM     22  H   UNL     1      50.917   8.049  19.220  0.00  0.00    +0.000 HD
BRANCH  19  25
ATOM     23  N   UNL     1      51.564   2.825  17.899  0.00  0.00    +0.000 N 
ATOM     24  C   UNL     1      51.827   3.895  18.699  0.00  0.00    +0.000 A 
ATOM     25  C   UNL     1      50.766   4.782  18.669  0.00  0.00    +0.000 A 
ATOM     26  C   UNL     1      49.766   4.135  17.867  0.00  0.00    +0.000 A 
ATOM     27  C   UNL     1      48.476   4.437  17.423  0.00  0.00    +0.000 A 
ATOM     28  N   UNL     1      47.821   3.569  16.618  0.00  0.00    +0.000 NA
ATOM     29  C   UNL     1      48.458   2.435  16.274  0.00  0.00    +0.000 A 
ATOM     30  N   UNL     1      49.694   2.037  16.612  0.00  0.00    +0.000 NA
ATOM     31  C   UNL     1      50.297   2.930  17.412  0.00  0.00    +0.000 A 
BRANCH  23  33
ATOM     32  C   UNL     1      53.966   2.326  17.798  0.00  0.00    +0.000 C 
ATOM     33  C   UNL     1      52.551   1.803  17.612  0.00  0.00    +0.000 C 
ENDBRANCH  23  33
BRANCH  27  34
ATOM     34  O   UNL     1      47.899   5.645  17.752  0.00  0.00    +0.000 OA
ATOM     35  C   UNL     1      47.076   5.594  18.907  0.00  0.00    +0.000 C 
ENDBRANCH  27  34
ENDBRANCH  19  25
ENDBRANCH   1  21
TORSDOF 9
ENDMDL
