MODEL 1
REMARK VINA RESULT:    -7.287      0.000      0.000
REMARK INTER + INTRA:          -9.538
REMARK INTER:                  -8.991
REMARK INTRA:                  -0.547
REMARK UNBOUND:                -0.547
REMARK  Name = 
REMARK  5 active torsions:
REMARK  status: ('A' for Active; 'I' for Inactive)
REMARK    1  A    between atoms: C_1  and  C_2
REMARK    2  A    between atoms: N_4  and  C_5
REMARK    3  A    between atoms: C_9  and  C_10
REMARK    4  A    between atoms: C_10  and  N_11
REMARK    5  A    between atoms: C_15  and  C_16
REMARK                            x       y       z     vdW  Elec       q    Type
REMARK                         _______ _______ _______ _____ _____    ______ ____
ROOT
ATOM      1  C   UNL     1      45.198   6.427  11.221  0.00  0.00    +0.000 A 
ATOM      2  C   UNL     1      44.563   7.619  11.596  0.00  0.00    +0.000 A 
ATOM      3  C   UNL     1      45.261   8.661  12.216  0.00  0.00    +0.000 A 
ATOM      4  C   UNL     1      46.621   8.532  12.486  0.00  0.00    +0.000 A 
ATOM      5  C   UNL     1      47.286   7.345  12.164  0.00  0.00    +0.000 A 
ATOM      6  C   UNL     1      46.565   6.322  11.521  0.00  0.00    +0.000 A 
ENDROOT
BRANCH   1  10
ATOM      7  C   UNL     1      43.866   3.223  12.824  0.00  0.00    +0.000 C 
ATOM      8  C   UNL     1      43.204   3.447  11.460  0.00  0.00    +0.000 C 
ATOM      9  C   UNL     1      43.184   4.948  11.063  0.00  0.00    +0.000 C 
ATOM     10  N   UNL     1      44.506   5.403  10.610  0.00  0.00    +0.000 N 
ATOM     11  C   UNL     1      45.100   4.583   9.548  0.00  0.00    +0.000 C 
ATOM     12  C   UNL     1      45.101   3.093   9.962  0.00  0.00    +0.000 C 
ATOM     13  N   UNL     1      43.796   2.576  10.417  0.00  0.00    +0.000 NA
ATOM     14  H   UNL     1      43.924   1.638  10.795  0.00  0.00    +0.000 HD
ENDBRANCH   1  10
BRANCH   5  15
ATOM     15  C   UNL     1      48.733   7.125  12.536  0.00  0.00    +0.000 C 
BRANCH  15  16
ATOM     16  N   UNL     1      48.991   7.539  13.914  0.00  0.00    +0.000 N 
ATOM     17  C   UNL     1      48.626   6.565  14.861  0.00  0.00    +0.000 A 
ATOM     18  C   UNL     1      48.814   6.829  16.217  0.00  0.00    +0.000 A 
ATOM     19  C   UNL     1      48.418   5.881  17.165  0.00  0.00    +0.000 A 
ATOM     20  C   UNL     1      47.839   4.682  16.745  0.00  0.00    +0.000 A 
ATOM     21  C   UNL     1      47.702   4.500  15.380  0.00  0.00    +0.000 A 
ATOM     22  N   UNL     1      48.090   5.400  14.444  0.00  0.00    +0.000 NA
ATOM     23  H   UNL     1      48.492   8.396  14.132  0.00  0.00    +0.000 HD
BRANCH  20  24
ATOM     24  C   UNL     1      47.390   3.691  17.747  0.00  0.00    +0.000 C 
ATOM     25  N   UNL     1      47.994   3.657  18.976  0.00  0.00    +0.000 N 
ATOM     26  O   UNL     1      46.493   2.896  17.488  0.00  0.00    +0.000 OA
ATOM     27  H   UNL     1      48.734   4.261  19.298  0.00  0.00    +0.000 HD
ATOM     28  H   UNL     1      47.652   2.960  19.620  0.00  0.00    +0.000 HD
ENDBRANCH  20  24
ENDBRANCH  15  16
ENDBRANCH   5  15
TORSDOF 4
ENDMDL
MODEL 2
REMARK VINA RESULT:    -7.263      3.197      7.637
REMARK INTER + INTRA:          -9.508
REMARK INTER:                  -8.912
REMARK INTRA:                  -0.597
REMARK UNBOUND:                -0.547
REMARK  Name = 
REMARK  5 active torsions:
REMARK  status: ('A' for Active; 'I' for Inactive)
REMARK    1  A    between atoms: C_1  and  C_2
REMARK    2  A    between atoms: N_4  and  C_5
REMARK    3  A    between atoms: C_9  and  C_10
REMARK    4  A    between atoms: C_10  and  N_11
REMARK    5  A    between atoms: C_15  and  C_16
REMARK                            x       y       z     vdW  Elec       q    Type
REMARK                         _______ _______ _______ _____ _____    ______ ____
ROOT
ATOM      1  C   UNL     1      47.002   6.563  13.192  0.00  0.00    +0.000 A 
ATOM      2  C   UNL     1      47.058   5.480  14.080  0.00  0.00    +0.000 A 
ATOM      3  C   UNL     1      46.324   4.309  13.859  0.00  0.00    +0.000 A 
ATOM      4  C   UNL     1      45.505   4.196  12.738  0.00  0.00    +0.000 A 
ATOM      5  C   UNL     1      45.390   5.266  11.847  0.00  0.00    +0.000 A 
ATOM      6  C   UNL     1      46.155   6.423  12.082  0.00  0.00    +0.000 A 
ENDROOT
BRANCH   1  10
ATOM      7  C   UNL     1      50.186   7.701  11.409  0.00  0.00    +0.000 C 
ATOM      8  C   UNL     1      49.555   8.875  12.166  0.00  0.00    +0.000 C 
ATOM      9  C   UNL     1      48.025   8.690  12.356  0.00  0.00    +0.000 C 
ATOM     10  N   UNL     1      47.727   7.715  13.414  0.00  0.00    +0.000 N 
ATOM     11  C   UNL     1      48.389   7.988  14.694  0.00  0.00    +0.000 C 
ATOM     12  C   UNL     1      49.910   8.176  14.480  0.00  0.00    +0.000 C 
ATOM     13  N   UNL     1      50.270   9.153  13.434  0.00  0.00    +0.000 NA
ATOM     14  H   UNL     1      51.275   9.108  13.271  0.00  0.00    +0.000 HD
ENDBRANCH   1  10
BRANCH   5  15
ATOM     15  C   UNL     1      44.432   5.222  10.680  0.00  0.00    +0.000 C 
BRANCH  15  16
ATOM     16  N   UNL     1      45.139   5.406   9.413  0.00  0.00    +0.000 N 
ATOM     17  C   UNL     1      45.537   4.193   8.823  0.00  0.00    +0.000 A 
ATOM     18  C   UNL     1      46.225   4.219   7.611  0.00  0.00    +0.000 A 
ATOM     19  C   UNL     1      46.656   3.019   7.036  0.00  0.00    +0.000 A 
ATOM     20  C   UNL     1      46.394   1.809   7.682  0.00  0.00    +0.000 A 
ATOM     21  C   UNL     1      45.695   1.878   8.875  0.00  0.00    +0.000 A 
ATOM     22  N   UNL     1      45.257   3.028   9.441  0.00  0.00    +0.000 NA
ATOM     23  H   UNL     1      45.965   5.981   9.542  0.00  0.00    +0.000 HD
BRANCH  20  24
ATOM     24  C   UNL     1      46.877   0.542   7.093  0.00  0.00    +0.000 C 
ATOM     25  N   UNL     1      47.329   0.530   5.801  0.00  0.00    +0.000 N 
ATOM     26  O   UNL     1      46.868  -0.499   7.743  0.00  0.00    +0.000 OA
ATOM     27  H   UNL     1      47.386   1.320   5.178  0.00  0.00    +0.000 HD
ATOM     28  H   UNL     1      47.644  -0.362   5.448  0.00  0.00    +0.000 HD
ENDBRANCH  20  24
ENDBRANCH  15  16
ENDBRANCH   5  15
TORSDOF 4
ENDMDL
MODEL 3
REMARK VINA RESULT:    -7.257      3.210      4.016
REMARK INTER + INTRA:          -9.501
REMARK INTER:                  -8.862
REMARK INTRA:                  -0.639
REMARK UNBOUND:                -0.547
REMARK  Name = 
REMARK  5 active torsions:
REMARK  status: ('A' for Active; 'I' for Inactive)
REMARK    1  A    between atoms: C_1  and  C_2
REMARK    2  A    between atoms: N_4  and  C_5
REMARK    3  A    between atoms: C_9  and  C_10
REMARK    4  A    between atoms: C_10  and  N_11
REMARK    5  A    between atoms: C_15  and  C_16
REMARK                            x       y       z     vdW  Elec       q    Type
REMARK                         _______ _______ _______ _____ _____    ______ ____
ROOT
ATOM      1  C   UNL     1      46.315   4.940  12.914  0.00  0.00    +0.000 A 
ATOM      2  C   UNL     1      46.895   6.192  12.668  0.00  0.00    +0.000 A 
ATOM      3  C   UNL     1      47.734   6.811  13.600  0.00  0.00    +0.000 A 
ATOM      4  C   UNL     1      48.010   6.190  14.816  0.00  0.00    +0.000 A 
ATOM      5  C   UNL     1      47.423   4.959  15.120  0.00  0.00    +0.000 A 
ATOM      6  C   UNL     1      46.600   4.349  14.155  0.00  0.00    +0.000 A 
ENDROOT
BRANCH   1  10
ATOM      7  C   UNL     1      42.662   5.767  12.150  0.00  0.00    +0.000 C 
ATOM      8  C   UNL     1      43.258   4.914  11.026  0.00  0.00    +0.000 C 
ATOM      9  C   UNL     1      44.799   5.075  10.926  0.00  0.00    +0.000 C 
ATOM     10  N   UNL     1      45.488   4.334  11.992  0.00  0.00    +0.000 N 
ATOM     11  C   UNL     1      45.110   2.920  12.091  0.00  0.00    +0.000 C 
ATOM     12  C   UNL     1      43.572   2.784  12.180  0.00  0.00    +0.000 C 
ATOM     13  N   UNL     1      42.825   3.500  11.127  0.00  0.00    +0.000 NA
ATOM     14  H   UNL     1      41.830   3.467  11.346  0.00  0.00    +0.000 HD
ENDBRANCH   1  10
BRANCH   5  15
ATOM     15  C   UNL     1      47.611   4.304  16.468  0.00  0.00    +0.000 C 
BRANCH  15  16
ATOM     16  N   UNL     1      48.771   4.859  17.164  0.00  0.00    +0.000 N 
ATOM     17  C   UNL     1      49.818   3.933  17.317  0.00  0.00    +0.000 A 
ATOM     18  C   UNL     1      50.987   4.327  17.967  0.00  0.00    +0.000 A 
ATOM     19  C   UNL     1      52.017   3.401  18.156  0.00  0.00    +0.000 A 
ATOM     20  C   UNL     1      51.865   2.092  17.692  0.00  0.00    +0.000 A 
ATOM     21  C   UNL     1      50.677   1.793  17.048  0.00  0.00    +0.000 A 
ATOM     22  N   UNL     1      49.672   2.679  16.844  0.00  0.00    +0.000 NA
ATOM     23  H   UNL     1      48.511   5.197  18.085  0.00  0.00    +0.000 HD
BRANCH  20  24
ATOM     24  C   UNL     1      52.940   1.102  17.919  0.00  0.00    +0.000 C 
ATOM     25  N   UNL     1      53.111   0.079  17.025  0.00  0.00    +0.000 N 
ATOM     26  O   UNL     1      53.672   1.180  18.900  0.00  0.00    +0.000 OA
ATOM     27  H   UNL     1      52.575  -0.081  16.187  0.00  0.00    +0.000 HD
ATOM     28  H   UNL     1      53.856  -0.570  17.229  0.00  0.00    +0.000 HD
ENDBRANCH  20  24
ENDBRANCH  15  16
ENDBRANCH   5  15
TORSDOF 4
ENDMDL
MODEL 4
REMARK VINA RESULT:    -7.191      4.070      7.653
REMARK INTER + INTRA:          -9.419
REMARK INTER:                  -8.991
REMARK INTRA:                  -0.428
REMARK UNBOUND:                -0.547
REMARK  Name = 
REMARK  5 active torsions:
REMARK  status: ('A' for Active; 'I' for Inactive)
REMARK    1  A    between atoms: C_1  and  C_2
REMARK    2  A    between atoms: N_4  and  C_5
REMARK    3  A    between atoms: C_9  and  C_10
REMARK    4  A    between atoms: C_10  and  N_11
REMARK    5  A    between atoms: C_15  and  C_16
REMARK                            x       y       z     vdW  Elec       q    Type
REMARK                         _______ _______ _______ _____ _____    ______ ____
ROOT
ATOM      1  C   UNL     1      45.734   7.819  12.356  0.00  0.00    +0.000 A 
ATOM      2  C   UNL     1      46.541   7.035  13.190  0.00  0.00    +0.000 A 
ATOM      3  C   UNL     1      46.488   5.637  13.164  0.00  0.00    +0.000 A 
ATOM      4  C   UNL     1      45.612   4.984  12.299  0.00  0.00    +0.000 A 
ATOM      5  C   UNL     1      44.762   5.728  11.477  0.00  0.00    +0.000 A 
ATOM      6  C   UNL     1      44.851   7.131  11.508  0.00  0.00    +0.000 A 
ENDROOT
BRANCH   1  10
ATOM      7  C   UNL     1      44.187  10.276   9.869  0.00  0.00    +0.000 C 
ATOM      8  C   UNL     1      44.572  11.003  11.161  0.00  0.00    +0.000 C 
ATOM      9  C   UNL     1      44.591  10.047  12.384  0.00  0.00    +0.000 C 
ATOM     10  N   UNL     1      45.790   9.196  12.385  0.00  0.00    +0.000 N 
ATOM     11  C   UNL     1      47.055   9.930  12.269  0.00  0.00    +0.000 C 
ATOM     12  C   UNL     1      47.010  10.881  11.049  0.00  0.00    +0.000 C 
ATOM     13  N   UNL     1      45.831  11.769  11.001  0.00  0.00    +0.000 NA
ATOM     14  H   UNL     1      45.819  12.254  10.104  0.00  0.00    +0.000 HD
ENDBRANCH   1  10
BRANCH   5  15
ATOM     15  C   UNL     1      43.725   5.060  10.603  0.00  0.00    +0.000 C 
BRANCH  15  16
ATOM     16  N   UNL     1      44.012   3.636  10.441  0.00  0.00    +0.000 N 
ATOM     17  C   UNL     1      44.882   3.367   9.369  0.00  0.00    +0.000 A 
ATOM     18  C   UNL     1      45.240   2.047   9.097  0.00  0.00    +0.000 A 
ATOM     19  C   UNL     1      46.074   1.769   8.011  0.00  0.00    +0.000 A 
ATOM     20  C   UNL     1      46.541   2.814   7.211  0.00  0.00    +0.000 A 
ATOM     21  C   UNL     1      46.145   4.093   7.562  0.00  0.00    +0.000 A 
ATOM     22  N   UNL     1      45.347   4.385   8.618  0.00  0.00    +0.000 NA
ATOM     23  H   UNL     1      43.156   3.111  10.294  0.00  0.00    +0.000 HD
BRANCH  20  24
ATOM     24  C   UNL     1      47.398   2.520   6.042  0.00  0.00    +0.000 C 
ATOM     25  N   UNL     1      48.753   2.416   6.211  0.00  0.00    +0.000 N 
ATOM     26  O   UNL     1      46.912   2.377   4.925  0.00  0.00    +0.000 OA
ATOM     27  H   UNL     1      49.258   2.509   7.078  0.00  0.00    +0.000 HD
ATOM     28  H   UNL     1      49.291   2.217   5.381  0.00  0.00    +0.000 HD
ENDBRANCH  20  24
ENDBRANCH  15  16
ENDBRANCH   5  15
TORSDOF 4
ENDMDL
MODEL 5
REMARK VINA RESULT:    -7.134      3.734      7.846
REMARK INTER + INTRA:          -9.349
REMARK INTER:                  -8.868
REMARK INTRA:                  -0.481
REMARK UNBOUND:                -0.547
REMARK  Name = 
REMARK  5 active torsions:
REMARK  status: ('A' for Active; 'I' for Inactive)
REMARK    1  A    between atoms: C_1  and  C_2
REMARK    2  A    between atoms: N_4  and  C_5
REMARK    3  A    between atoms: C_9  and  C_10
REMARK    4  A    between atoms: C_10  and  N_11
REMARK    5  A    between atoms: C_15  and  C_16
REMARK                            x       y       z     vdW  Elec       q    Type
REMARK                         _______ _______ _______ _____ _____    ______ ____
ROOT
ATOM      1  C   UNL     1      47.235   6.972  12.336  0.00  0.00    +0.000 A 
ATOM      2  C   UNL     1      47.456   6.261  13.523  0.00  0.00    +0.000 A 
ATOM      3  C   UNL     1      46.682   5.148  13.869  0.00  0.00    +0.000 A 
ATOM      4  C   UNL     1      45.655   4.720  13.031  0.00  0.00    +0.000 A 
ATOM      5  C   UNL     1      45.375   5.423  11.857  0.00  0.00    +0.000 A 
ATOM      6  C   UNL     1      46.182   6.525  11.522  0.00  0.00    +0.000 A 
ENDROOT
BRANCH   1  10
ATOM      7  C   UNL     1      50.511   8.117  13.939  0.00  0.00    +0.000 C 
ATOM      8  C   UNL     1      50.315   8.807  12.585  0.00  0.00    +0.000 C 
ATOM      9  C   UNL     1      49.419   7.972  11.630  0.00  0.00    +0.000 C 
ATOM     10  N   UNL     1      48.000   8.069  12.000  0.00  0.00    +0.000 N 
ATOM     11  C   UNL     1      47.499   9.442  12.128  0.00  0.00    +0.000 C 
ATOM     12  C   UNL     1      48.410  10.256  13.077  0.00  0.00    +0.000 C 
ATOM     13  N   UNL     1      49.849  10.204  12.748  0.00  0.00    +0.000 NA
ATOM     14  H   UNL     1      50.376  10.651  13.497  0.00  0.00    +0.000 HD
ENDBRANCH   1  10
BRANCH   5  15
ATOM     15  C   UNL     1      44.204   5.055  10.976  0.00  0.00    +0.000 C 
BRANCH  15  16
ATOM     16  N   UNL     1      44.215   3.630  10.653  0.00  0.00    +0.000 N 
ATOM     17  C   UNL     1      44.985   3.327   9.515  0.00  0.00    +0.000 A 
ATOM     18  C   UNL     1      45.081   2.003   9.090  0.00  0.00    +0.000 A 
ATOM     19  C   UNL     1      45.813   1.700   7.938  0.00  0.00    +0.000 A 
ATOM     20  C   UNL     1      46.439   2.726   7.226  0.00  0.00    +0.000 A 
ATOM     21  C   UNL     1      46.300   4.008   7.728  0.00  0.00    +0.000 A 
ATOM     22  N   UNL     1      45.605   4.321   8.849  0.00  0.00    +0.000 NA
ATOM     23  H   UNL     1      43.272   3.288  10.498  0.00  0.00    +0.000 HD
BRANCH  20  24
ATOM     24  C   UNL     1      47.187   2.412   5.990  0.00  0.00    +0.000 C 
ATOM     25  N   UNL     1      48.527   2.136   6.066  0.00  0.00    +0.000 N 
ATOM     26  O   UNL     1      46.627   2.406   4.899  0.00  0.00    +0.000 OA
ATOM     27  H   UNL     1      49.087   2.109   6.903  0.00  0.00    +0.000 HD
ATOM     28  H   UNL     1      48.989   1.932   5.193  0.00  0.00    +0.000 HD
ENDBRANCH  20  24
ENDBRANCH  15  16
ENDBRANCH   5  15
TORSDOF 4
ENDMDL
MODEL 6
REMARK VINA RESULT:    -6.836      1.629      2.148
REMARK INTER + INTRA:          -8.981
REMARK INTER:                  -8.292
REMARK INTRA:                  -0.690
REMARK UNBOUND:                -0.547
REMARK  Name = 
REMARK  5 active torsions:
REMARK  status: ('A' for Active; 'I' for Inactive)
REMARK    1  A    between atoms: C_1  and  C_2
REMARK    2  A    between atoms: N_4  and  C_5
REMARK    3  A    between atoms: C_9  and  C_10
REMARK    4  A    between atoms: C_10  and  N_11
REMARK    5  A    between atoms: C_15  and  C_16
REMARK                            x       y       z     vdW  Elec       q    Type
REMARK                         _______ _______ _______ _____ _____    ______ ____
ROOT
ATOM      1  C   UNL     1      45.661   6.311  12.604  0.00  0.00    +0.000 A 
ATOM      2  C   UNL     1      45.280   7.542  12.055  0.00  0.00    +0.000 A 
ATOM      3  C   UNL     1      46.145   8.641  12.040  0.00  0.00    +0.000 A 
ATOM      4  C   UNL     1      47.422   8.536  12.587  0.00  0.00    +0.000 A 
ATOM      5  C   UNL     1      47.830   7.339  13.180  0.00  0.00    +0.000 A 
ATOM      6  C   UNL     1      46.948   6.243  13.161  0.00  0.00    +0.000 A 
ENDROOT
BRANCH   1  10
ATOM      7  C   UNL     1      44.730   4.034   9.679  0.00  0.00    +0.000 C 
ATOM      8  C   UNL     1      44.337   3.378  11.006  0.00  0.00    +0.000 C 
ATOM      9  C   UNL     1      45.208   3.884  12.187  0.00  0.00    +0.000 C 
ATOM     10  N   UNL     1      44.805   5.230  12.616  0.00  0.00    +0.000 N 
ATOM     11  C   UNL     1      43.376   5.369  12.917  0.00  0.00    +0.000 C 
ATOM     12  C   UNL     1      42.528   4.851  11.731  0.00  0.00    +0.000 C 
ATOM     13  N   UNL     1      42.882   3.496  11.262  0.00  0.00    +0.000 NA
ATOM     14  H   UNL     1      42.371   3.300  10.403  0.00  0.00    +0.000 HD
ENDBRANCH   1  10
BRANCH   5  15
ATOM     15  C   UNL     1      49.165   7.217  13.877  0.00  0.00    +0.000 C 
BRANCH  15  16
ATOM     16  N   UNL     1      49.152   7.911  15.163  0.00  0.00    +0.000 N 
ATOM     17  C   UNL     1      49.053   7.038  16.262  0.00  0.00    +0.000 A 
ATOM     18  C   UNL     1      49.026   7.566  17.551  0.00  0.00    +0.000 A 
ATOM     19  C   UNL     1      48.891   6.707  18.646  0.00  0.00    +0.000 A 
ATOM     20  C   UNL     1      48.783   5.331  18.436  0.00  0.00    +0.000 A 
ATOM     21  C   UNL     1      48.831   4.895  17.124  0.00  0.00    +0.000 A 
ATOM     22  N   UNL     1      48.975   5.709  16.050  0.00  0.00    +0.000 NA
ATOM     23  H   UNL     1      48.379   8.568  15.210  0.00  0.00    +0.000 HD
BRANCH  20  24
ATOM     24  C   UNL     1      48.608   4.422  19.590  0.00  0.00    +0.000 C 
ATOM     25  N   UNL     1      48.418   3.084  19.369  0.00  0.00    +0.000 N 
ATOM     26  O   UNL     1      48.620   4.853  20.738  0.00  0.00    +0.000 OA
ATOM     27  H   UNL     1      48.393   2.622  18.474  0.00  0.00    +0.000 HD
ATOM     28  H   UNL     1      48.300   2.510  20.191  0.00  0.00    +0.000 HD
ENDBRANCH  20  24
ENDBRANCH  15  16
ENDBRANCH   5  15
TORSDOF 4
ENDMDL
MODEL 7
REMARK VINA RESULT:    -6.666      2.266      6.726
REMARK INTER + INTRA:          -8.771
REMARK INTER:                  -8.033
REMARK INTRA:                  -0.738
REMARK UNBOUND:                -0.547
REMARK  Name = 
REMARK  5 active torsions:
REMARK  status: ('A' for Active; 'I' for Inactive)
REMARK    1  A    between atoms: C_1  and  C_2
REMARK    2  A    between atoms: N_4  and  C_5
REMARK    3  A    between atoms: C_9  and  C_10
REMARK    4  A    between atoms: C_10  and  N_11
REMARK    5  A    between atoms: C_15  and  C_16
REMARK                            x       y       z     vdW  Elec       q    Type
REMARK                         _______ _______ _______ _____ _____    ______ ____
ROOT
ATOM      1  C   UNL     1      49.000   6.742  17.121  0.00  0.00    +0.000 A 
ATOM      2  C   UNL     1      48.757   8.051  17.557  0.00  0.00    +0.000 A 
ATOM      3  C   UNL     1      48.439   9.078  16.661  0.00  0.00    +0.000 A 
ATOM      4  C   UNL     1      48.363   8.819  15.295  0.00  0.00    +0.000 A 
ATOM      5  C   UNL     1      48.636   7.536  14.813  0.00  0.00    +0.000 A 
ATOM      6  C   UNL     1      48.931   6.517  15.737  0.00  0.00    +0.000 A 
ENDROOT
BRANCH   1  10
ATOM      7  C   UNL     1      47.314   3.329  17.469  0.00  0.00    +0.000 C 
ATOM      8  C   UNL     1      48.669   3.325  18.184  0.00  0.00    +0.000 C 
ATOM      9  C   UNL     1      49.648   4.367  17.580  0.00  0.00    +0.000 C 
ATOM     10  N   UNL     1      49.313   5.733  18.007  0.00  0.00    +0.000 N 
ATOM     11  C   UNL     1      49.190   5.902  19.459  0.00  0.00    +0.000 C 
ATOM     12  C   UNL     1      48.216   4.849  20.039  0.00  0.00    +0.000 C 
ATOM     13  N   UNL     1      48.511   3.455  19.652  0.00  0.00    +0.000 NA
ATOM     14  H   UNL     1      47.747   2.857  19.963  0.00  0.00    +0.000 HD
ENDBRANCH   1  10
BRANCH   5  15
ATOM     15  C   UNL     1      48.668   7.239  13.331  0.00  0.00    +0.000 C 
BRANCH  15  16
ATOM     16  N   UNL     1      47.434   7.674  12.681  0.00  0.00    +0.000 N 
ATOM     17  C   UNL     1      46.496   6.637  12.525  0.00  0.00    +0.000 A 
ATOM     18  C   UNL     1      45.273   6.911  11.916  0.00  0.00    +0.000 A 
ATOM     19  C   UNL     1      44.351   5.877  11.724  0.00  0.00    +0.000 A 
ATOM     20  C   UNL     1      44.666   4.583  12.144  0.00  0.00    +0.000 A 
ATOM     21  C   UNL     1      45.898   4.406  12.750  0.00  0.00    +0.000 A 
ATOM     22  N   UNL     1      46.799   5.397  12.956  0.00  0.00    +0.000 NA
ATOM     23  H   UNL     1      47.628   8.066  11.765  0.00  0.00    +0.000 HD
BRANCH  20  24
ATOM     24  C   UNL     1      43.707   3.481  11.913  0.00  0.00    +0.000 C 
ATOM     25  N   UNL     1      43.852   2.308  12.603  0.00  0.00    +0.000 N 
ATOM     26  O   UNL     1      42.791   3.602  11.106  0.00  0.00    +0.000 OA
ATOM     27  H   UNL     1      44.560   2.099  13.289  0.00  0.00    +0.000 HD
ATOM     28  H   UNL     1      43.172   1.588  12.406  0.00  0.00    +0.000 HD
ENDBRANCH  20  24
ENDBRANCH  15  16
ENDBRANCH   5  15
TORSDOF 4
ENDMDL
MODEL 8
REMARK VINA RESULT:    -6.504      3.152      8.235
REMARK INTER + INTRA:          -8.572
REMARK INTER:                  -7.992
REMARK INTRA:                  -0.579
REMARK UNBOUND:                -0.547
REMARK  Name = 
REMARK  5 active torsions:
REMARK  status: ('A' for Active; 'I' for Inactive)
REMARK    1  A    between atoms: C_1  and  C_2
REMARK    2  A    between atoms: N_4  and  C_5
REMARK    3  A    between atoms: C_9  and  C_10
REMARK    4  A    between atoms: C_10  and  N_11
REMARK    5  A    between atoms: C_15  and  C_16
REMARK                            x       y       z     vdW  Elec       q    Type
REMARK                         _______ _______ _______ _____ _____    ______ ____
ROOT
ATOM      1  C   UNL     1      49.143   6.047  18.208  0.00  0.00    +0.000 A 
ATOM      2  C   UNL     1      49.934   5.052  18.798  0.00  0.00    +0.000 A 
ATOM      3  C   UNL     1      49.919   3.731  18.337  0.00  0.00    +0.000 A 
ATOM      4  C   UNL     1      49.099   3.369  17.270  0.00  0.00    +0.000 A 
ATOM      5  C   UNL     1      48.266   4.320  16.678  0.00  0.00    +0.000 A 
ATOM      6  C   UNL     1      48.317   5.646  17.146  0.00  0.00    +0.000 A 
ENDROOT
BRANCH   1  10
ATOM      7  C   UNL     1      47.596   7.415  21.424  0.00  0.00    +0.000 C 
ATOM      8  C   UNL     1      48.604   8.419  20.853  0.00  0.00    +0.000 C 
ATOM      9  C   UNL     1      49.687   7.725  19.984  0.00  0.00    +0.000 C 
ATOM     10  N   UNL     1      49.161   7.347  18.665  0.00  0.00    +0.000 N 
ATOM     11  C   UNL     1      48.518   8.443  17.931  0.00  0.00    +0.000 C 
ATOM     12  C   UNL     1      47.449   9.124  18.818  0.00  0.00    +0.000 C 
ATOM     13  N   UNL     1      47.924   9.536  20.154  0.00  0.00    +0.000 NA
ATOM     14  H   UNL     1      47.126   9.844  20.708  0.00  0.00    +0.000 HD
ENDBRANCH   1  10
BRANCH   5  15
ATOM     15  C   UNL     1      47.286   3.945  15.590  0.00  0.00    +0.000 C 
BRANCH  15  16
ATOM     16  N   UNL     1      46.970   5.097  14.747  0.00  0.00    +0.000 N 
ATOM     17  C   UNL     1      46.269   4.749  13.578  0.00  0.00    +0.000 A 
ATOM     18  C   UNL     1      45.905   5.750  12.679  0.00  0.00    +0.000 A 
ATOM     19  C   UNL     1      45.241   5.408  11.498  0.00  0.00    +0.000 A 
ATOM     20  C   UNL     1      44.950   4.069  11.230  0.00  0.00    +0.000 A 
ATOM     21  C   UNL     1      45.337   3.144  12.184  0.00  0.00    +0.000 A 
ATOM     22  N   UNL     1      45.970   3.456  13.341  0.00  0.00    +0.000 NA
ATOM     23  H   UNL     1      47.816   5.587  14.475  0.00  0.00    +0.000 HD
BRANCH  20  24
ATOM     24  C   UNL     1      44.276   3.701   9.966  0.00  0.00    +0.000 C 
ATOM     25  N   UNL     1      44.049   4.664   9.020  0.00  0.00    +0.000 N 
ATOM     26  O   UNL     1      43.910   2.549   9.760  0.00  0.00    +0.000 OA
ATOM     27  H   UNL     1      44.308   5.636   9.079  0.00  0.00    +0.000 HD
ATOM     28  H   UNL     1      43.583   4.360   8.178  0.00  0.00    +0.000 HD
ENDBRANCH  20  24
ENDBRANCH  15  16
ENDBRANCH   5  15
TORSDOF 4
ENDMDL
MODEL 9
REMARK VINA RESULT:    -6.502      5.365      7.966
REMARK INTER + INTRA:          -8.569
REMARK INTER:                  -7.942
REMARK INTRA:                  -0.626
REMARK UNBOUND:                -0.547
REMARK  Name = 
REMARK  5 active torsions:
REMARK  status: ('A' for Active; 'I' for Inactive)
REMARK    1  A    between atoms: C_1  and  C_2
REMARK    2  A    between atoms: N_4  and  C_5
REMARK    3  A    between atoms: C_9  and  C_10
REMARK    4  A    between atoms: C_10  and  N_11
REMARK    5  A    between atoms: C_15  and  C_16
REMARK                            x       y       z     vdW  Elec       q    Type
REMARK                         _______ _______ _______ _____ _____    ______ ____
ROOT
ATOM      1  C   UNL     1      45.618   7.556  11.804  0.00  0.00    +0.000 A 
ATOM      2  C   UNL     1      46.701   8.366  12.172  0.00  0.00    +0.000 A 
ATOM      3  C   UNL     1      46.606   9.762  12.185  0.00  0.00    +0.000 A 
ATOM      4  C   UNL     1      45.416  10.387  11.820  0.00  0.00    +0.000 A 
ATOM      5  C   UNL     1      44.322   9.620  11.410  0.00  0.00    +0.000 A 
ATOM      6  C   UNL     1      44.438   8.218  11.427  0.00  0.00    +0.000 A 
ENDROOT
BRANCH   1  10
ATOM      7  C   UNL     1      42.953   5.013  12.824  0.00  0.00    +0.000 C 
ATOM      8  C   UNL     1      44.056   4.327  12.012  0.00  0.00    +0.000 C 
ATOM      9  C   UNL     1      44.781   5.317  11.061  0.00  0.00    +0.000 C 
ATOM     10  N   UNL     1      45.716   6.181  11.793  0.00  0.00    +0.000 N 
ATOM     11  C   UNL     1      46.677   5.459  12.636  0.00  0.00    +0.000 C 
ATOM     12  C   UNL     1      45.934   4.474  13.568  0.00  0.00    +0.000 C 
ATOM     13  N   UNL     1      44.986   3.572  12.885  0.00  0.00    +0.000 NA
ATOM     14  H   UNL     1      44.450   3.062  13.587  0.00  0.00    +0.000 HD
ENDBRANCH   1  10
BRANCH   5  15
ATOM     15  C   UNL     1      43.051  10.262  10.906  0.00  0.00    +0.000 C 
BRANCH  15  16
ATOM     16  N   UNL     1      42.460  11.128  11.925  0.00  0.00    +0.000 N 
ATOM     17  C   UNL     1      41.059  11.021  11.996  0.00  0.00    +0.000 A 
ATOM     18  C   UNL     1      40.363  11.795  12.924  0.00  0.00    +0.000 A 
ATOM     19  C   UNL     1      38.968  11.721  12.975  0.00  0.00    +0.000 A 
ATOM     20  C   UNL     1      38.288  10.874  12.098  0.00  0.00    +0.000 A 
ATOM     21  C   UNL     1      39.060  10.135  11.219  0.00  0.00    +0.000 A 
ATOM     22  N   UNL     1      40.413  10.182  11.162  0.00  0.00    +0.000 NA
ATOM     23  H   UNL     1      42.695  12.101  11.751  0.00  0.00    +0.000 HD
BRANCH  20  24
ATOM     24  C   UNL     1      36.810  10.818  12.128  0.00  0.00    +0.000 C 
ATOM     25  N   UNL     1      36.104  11.909  12.560  0.00  0.00    +0.000 N 
ATOM     26  O   UNL     1      36.211   9.805  11.781  0.00  0.00    +0.000 OA
ATOM     27  H   UNL     1      36.488  12.790  12.863  0.00  0.00    +0.000 HD
ATOM     28  H   UNL     1      35.099  11.816  12.563  0.00  0.00    +0.000 HD
ENDBRANCH  20  24
ENDBRANCH  15  16
ENDBRANCH   5  15
TORSDOF 4
ENDMDL
