MODEL 1
REMARK VINA RESULT:    -8.545      0.000      0.000
REMARK INTER + INTRA:         -12.795
REMARK INTER:                 -11.542
REMARK INTRA:                  -1.254
REMARK UNBOUND:                -1.254
REMARK  Name = 
REMARK  6 active torsions:
REMARK  status: ('A' for Active; 'I' for Inactive)
REMARK    1  A    between atoms: C_2  and  C_19
REMARK    2  A    between atoms: N_3  and  C_4
REMARK    3  A    between atoms: C_4  and  C_5
REMARK    4  A    between atoms: C_8  and  C_9
REMARK    5  A    between atoms: C_9  and  C_10
REMARK    6  A    between atoms: C_10  and  C_11
REMARK                            x       y       z     vdW  Elec       q    Type
REMARK                         _______ _______ _______ _____ _____    ______ ____
ROOT
ATOM      1  O   UNL     1      49.056   6.689  13.192  0.00  0.00    +0.000 OA
ATOM      2  C   UNL     1      48.288   6.655  14.146  0.00  0.00    +0.000 C 
ATOM      3  N   UNL     1      46.953   6.963  14.041  0.00  0.00    +0.000 N 
ATOM      4  H   UNL     1      46.419   7.113  14.887  0.00  0.00    +0.000 HD
ENDROOT
BRANCH   2   5
ATOM      5  C   UNL     1      48.733   6.215  15.476  0.00  0.00    +0.000 A 
ATOM      6  C   UNL     1      49.690   6.946  16.164  0.00  0.00    +0.000 A 
ATOM      7  S   UNL     1      50.121   6.267  17.668  0.00  0.00    +0.000 S 
ATOM      8  C   UNL     1      49.002   5.001  17.479  0.00  0.00    +0.000 A 
ATOM      9  N   UNL     1      48.850   4.050  18.441  0.00  0.00    +0.000 NA
ATOM     10  C   UNL     1      47.936   3.175  18.186  0.00  0.00    +0.000 A 
ATOM     11  N   UNL     1      47.164   3.156  17.053  0.00  0.00    +0.000 N 
ATOM     12  C   UNL     1      47.336   4.049  16.021  0.00  0.00    +0.000 A 
ATOM     13  O   UNL     1      46.721   3.922  14.968  0.00  0.00    +0.000 OA
ATOM     14  C   UNL     1      48.326   5.081  16.274  0.00  0.00    +0.000 A 
ATOM     15  H   UNL     1      46.483   2.429  16.900  0.00  0.00    +0.000 HD
ENDBRANCH   2   5
BRANCH   3  16
ATOM     16  C   UNL     1      46.367   7.495  12.838  0.00  0.00    +0.000 C 
BRANCH  16  17
ATOM     17  C   UNL     1      45.863   6.391  11.946  0.00  0.00    +0.000 A 
ATOM     18  C   UNL     1      46.172   6.409  10.584  0.00  0.00    +0.000 A 
ATOM     19  C   UNL     1      45.702   5.406   9.737  0.00  0.00    +0.000 A 
ATOM     20  C   UNL     1      44.922   4.349  10.224  0.00  0.00    +0.000 A 
ATOM     21  C   UNL     1      44.577   4.359  11.584  0.00  0.00    +0.000 A 
ATOM     22  C   UNL     1      45.040   5.369  12.437  0.00  0.00    +0.000 A 
BRANCH  20  23
ATOM     23  C   UNL     1      44.388   3.257   9.316  0.00  0.00    +0.000 C 
BRANCH  23  24
ATOM     24  C   UNL     1      45.334   2.061   9.137  0.00  0.00    +0.000 C 
BRANCH  24  25
ATOM     25  C   UNL     1      46.120   2.090   7.850  0.00  0.00    +0.000 A 
ATOM     26  C   UNL     1      46.834   0.955   7.438  0.00  0.00    +0.000 A 
ATOM     27  C   UNL     1      47.499   0.943   6.212  0.00  0.00    +0.000 A 
ATOM     28  C   UNL     1      47.466   2.068   5.391  0.00  0.00    +0.000 A 
ATOM     29  C   UNL     1      46.777   3.209   5.802  0.00  0.00    +0.000 A 
ATOM     30  C   UNL     1      46.109   3.222   7.027  0.00  0.00    +0.000 A 
ENDBRANCH  24  25
ENDBRANCH  23  24
ENDBRANCH  20  23
ENDBRANCH  16  17
ENDBRANCH   3  16
TORSDOF 6
ENDMDL
MODEL 2
REMARK VINA RESULT:    -7.894      2.348      3.040
REMARK INTER + INTRA:         -11.916
REMARK INTER:                 -10.637
REMARK INTRA:                  -1.278
REMARK UNBOUND:                -1.254
REMARK  Name = 
REMARK  6 active torsions:
REMARK  status: ('A' for Active; 'I' for Inactive)
REMARK    1  A    between atoms: C_2  and  C_19
REMARK    2  A    between atoms: N_3  and  C_4
REMARK    3  A    between atoms: C_4  and  C_5
REMARK    4  A    between atoms: C_8  and  C_9
REMARK    5  A    between atoms: C_9  and  C_10
REMARK    6  A    between atoms: C_10  and  C_11
REMARK                            x       y       z     vdW  Elec       q    Type
REMARK                         _______ _______ _______ _____ _____    ______ ____
ROOT
ATOM      1  O   UNL     1      50.252   6.456  15.576  0.00  0.00    +0.000 OA
ATOM      2  C   UNL     1      49.115   6.488  16.035  0.00  0.00    +0.000 C 
ATOM      3  N   UNL     1      48.003   6.705  15.259  0.00  0.00    +0.000 N 
ATOM      4  H   UNL     1      47.125   6.919  15.714  0.00  0.00    +0.000 HD
ENDROOT
BRANCH   2   5
ATOM      5  C   UNL     1      48.854   6.229  17.459  0.00  0.00    +0.000 A 
ATOM      6  C   UNL     1      49.146   4.986  18.002  0.00  0.00    +0.000 A 
ATOM      7  S   UNL     1      48.738   4.847  19.652  0.00  0.00    +0.000 S 
ATOM      8  C   UNL     1      48.207   6.461  19.714  0.00  0.00    +0.000 A 
ATOM      9  N   UNL     1      47.734   7.000  20.870  0.00  0.00    +0.000 NA
ATOM     10  C   UNL     1      47.407   8.246  20.783  0.00  0.00    +0.000 A 
ATOM     11  N   UNL     1      47.501   9.003  19.644  0.00  0.00    +0.000 N 
ATOM     12  C   UNL     1      47.899   8.481  18.436  0.00  0.00    +0.000 A 
ATOM     13  O   UNL     1      47.844   9.151  17.410  0.00  0.00    +0.000 OA
ATOM     14  C   UNL     1      48.317   7.091  18.486  0.00  0.00    +0.000 A 
ATOM     15  H   UNL     1      47.205   9.966  19.634  0.00  0.00    +0.000 HD
ENDBRANCH   2   5
BRANCH   3  16
ATOM     16  C   UNL     1      48.081   7.061  13.866  0.00  0.00    +0.000 C 
BRANCH  16  17
ATOM     17  C   UNL     1      47.138   6.226  13.039  0.00  0.00    +0.000 A 
ATOM     18  C   UNL     1      46.794   6.644  11.752  0.00  0.00    +0.000 A 
ATOM     19  C   UNL     1      45.912   5.896  10.974  0.00  0.00    +0.000 A 
ATOM     20  C   UNL     1      45.357   4.701  11.452  0.00  0.00    +0.000 A 
ATOM     21  C   UNL     1      45.670   4.307  12.761  0.00  0.00    +0.000 A 
ATOM     22  C   UNL     1      46.550   5.062  13.549  0.00  0.00    +0.000 A 
BRANCH  20  23
ATOM     23  C   UNL     1      44.382   3.880  10.628  0.00  0.00    +0.000 C 
BRANCH  23  24
ATOM     24  C   UNL     1      44.456   4.136   9.116  0.00  0.00    +0.000 C 
BRANCH  24  25
ATOM     25  C   UNL     1      45.427   3.239   8.390  0.00  0.00    +0.000 A 
ATOM     26  C   UNL     1      46.332   3.784   7.468  0.00  0.00    +0.000 A 
ATOM     27  C   UNL     1      47.286   2.976   6.850  0.00  0.00    +0.000 A 
ATOM     28  C   UNL     1      47.339   1.614   7.139  0.00  0.00    +0.000 A 
ATOM     29  C   UNL     1      46.429   1.059   8.038  0.00  0.00    +0.000 A 
ATOM     30  C   UNL     1      45.475   1.866   8.660  0.00  0.00    +0.000 A 
ENDBRANCH  24  25
ENDBRANCH  23  24
ENDBRANCH  20  23
ENDBRANCH  16  17
ENDBRANCH   3  16
TORSDOF 6
ENDMDL
MODEL 3
REMARK VINA RESULT:    -7.886      1.956      2.613
REMARK INTER + INTRA:         -11.905
REMARK INTER:                 -10.849
REMARK INTRA:                  -1.056
REMARK UNBOUND:                -1.254
REMARK  Name = 
REMARK  6 active torsions:
REMARK  status: ('A' for Active; 'I' for Inactive)
REMARK    1  A    between atoms: C_2  and  C_19
REMARK    2  A    between atoms: N_3  and  C_4
REMARK    3  A    between atoms: C_4  and  C_5
REMARK    4  A    between atoms: C_8  and  C_9
REMARK    5  A    between atoms: C_9  and  C_10
REMARK    6  A    between atoms: C_10  and  C_11
REMARK                            x       y       z     vdW  Elec       q    Type
REMARK                         _______ _______ _______ _____ _____    ______ ____
ROOT
ATOM      1  O   UNL     1      50.139   6.139  15.904  0.00  0.00    +0.000 OA
ATOM      2  C   UNL     1      49.075   6.664  16.216  0.00  0.00    +0.000 C 
ATOM      3  N   UNL     1      48.130   7.038  15.292  0.00  0.00    +0.000 N 
ATOM      4  H   UNL     1      47.373   7.640  15.586  0.00  0.00    +0.000 HD
ENDROOT
BRANCH   2   5
ATOM      5  C   UNL     1      48.705   6.873  17.623  0.00  0.00    +0.000 A 
ATOM      6  C   UNL     1      48.323   8.134  18.059  0.00  0.00    +0.000 A 
ATOM      7  S   UNL     1      47.972   8.204  19.726  0.00  0.00    +0.000 S 
ATOM      8  C   UNL     1      48.262   6.539  19.914  0.00  0.00    +0.000 A 
ATOM      9  N   UNL     1      48.121   5.936  21.125  0.00  0.00    +0.000 NA
ATOM     10  C   UNL     1      48.331   4.662  21.114  0.00  0.00    +0.000 A 
ATOM     11  N   UNL     1      48.677   3.935  20.004  0.00  0.00    +0.000 N 
ATOM     12  C   UNL     1      48.907   4.514  18.778  0.00  0.00    +0.000 A 
ATOM     13  O   UNL     1      49.344   3.855  17.841  0.00  0.00    +0.000 OA
ATOM     14  C   UNL     1      48.646   5.942  18.726  0.00  0.00    +0.000 A 
ATOM     15  H   UNL     1      48.853   2.944  20.065  0.00  0.00    +0.000 HD
ENDBRANCH   2   5
BRANCH   3  16
ATOM     16  C   UNL     1      48.362   6.986  13.872  0.00  0.00    +0.000 C 
BRANCH  16  17
ATOM     17  C   UNL     1      47.310   6.159  13.180  0.00  0.00    +0.000 A 
ATOM     18  C   UNL     1      46.911   4.942  13.737  0.00  0.00    +0.000 A 
ATOM     19  C   UNL     1      45.950   4.153  13.106  0.00  0.00    +0.000 A 
ATOM     20  C   UNL     1      45.348   4.561  11.908  0.00  0.00    +0.000 A 
ATOM     21  C   UNL     1      45.783   5.763  11.329  0.00  0.00    +0.000 A 
ATOM     22  C   UNL     1      46.755   6.554  11.956  0.00  0.00    +0.000 A 
BRANCH  20  23
ATOM     23  C   UNL     1      44.313   3.710  11.196  0.00  0.00    +0.000 C 
BRANCH  23  24
ATOM     24  C   UNL     1      44.162   4.016   9.698  0.00  0.00    +0.000 C 
BRANCH  24  25
ATOM     25  C   UNL     1      45.204   3.355   8.831  0.00  0.00    +0.000 A 
ATOM     26  C   UNL     1      45.383   1.965   8.885  0.00  0.00    +0.000 A 
ATOM     27  C   UNL     1      46.288   1.334   8.032  0.00  0.00    +0.000 A 
ATOM     28  C   UNL     1      47.029   2.086   7.123  0.00  0.00    +0.000 A 
ATOM     29  C   UNL     1      46.874   3.470   7.077  0.00  0.00    +0.000 A 
ATOM     30  C   UNL     1      45.968   4.104   7.928  0.00  0.00    +0.000 A 
ENDBRANCH  24  25
ENDBRANCH  23  24
ENDBRANCH  20  23
ENDBRANCH  16  17
ENDBRANCH   3  16
TORSDOF 6
ENDMDL
MODEL 4
REMARK VINA RESULT:    -7.686      1.055      1.544
REMARK INTER + INTRA:         -11.635
REMARK INTER:                 -10.323
REMARK INTRA:                  -1.312
REMARK UNBOUND:                -1.254
REMARK  Name = 
REMARK  6 active torsions:
REMARK  status: ('A' for Active; 'I' for Inactive)
REMARK    1  A    between atoms: C_2  and  C_19
REMARK    2  A    between atoms: N_3  and  C_4
REMARK    3  A    between atoms: C_4  and  C_5
REMARK    4  A    between atoms: C_8  and  C_9
REMARK    5  A    between atoms: C_9  and  C_10
REMARK    6  A    between atoms: C_10  and  C_11
REMARK                            x       y       z     vdW  Elec       q    Type
REMARK                         _______ _______ _______ _____ _____    ______ ____
ROOT
ATOM      1  O   UNL     1      49.113   7.764  13.074  0.00  0.00    +0.000 OA
ATOM      2  C   UNL     1      48.548   7.690  14.160  0.00  0.00    +0.000 C 
ATOM      3  N   UNL     1      47.192   7.848  14.307  0.00  0.00    +0.000 N 
ATOM      4  H   UNL     1      46.814   7.977  15.237  0.00  0.00    +0.000 HD
ENDROOT
BRANCH   2   5
ATOM      5  C   UNL     1      49.285   7.358  15.388  0.00  0.00    +0.000 A 
ATOM      6  C   UNL     1      50.267   8.216  15.860  0.00  0.00    +0.000 A 
ATOM      7  S   UNL     1      51.049   7.653  17.268  0.00  0.00    +0.000 S 
ATOM      8  C   UNL     1      50.063   6.269  17.328  0.00  0.00    +0.000 A 
ATOM      9  N   UNL     1      50.205   5.351  18.322  0.00  0.00    +0.000 NA
ATOM     10  C   UNL     1      49.363   4.373  18.269  0.00  0.00    +0.000 A 
ATOM     11  N   UNL     1      48.397   4.223  17.308  0.00  0.00    +0.000 N 
ATOM     12  C   UNL     1      48.269   5.082  16.242  0.00  0.00    +0.000 A 
ATOM     13  O   UNL     1      47.483   4.845  15.331  0.00  0.00    +0.000 OA
ATOM     14  C   UNL     1      49.166   6.224  16.275  0.00  0.00    +0.000 A 
ATOM     15  H   UNL     1      47.786   3.422  17.306  0.00  0.00    +0.000 HD
ENDBRANCH   2   5
BRANCH   3  16
ATOM     16  C   UNL     1      46.332   8.262  13.229  0.00  0.00    +0.000 C 
BRANCH  16  17
ATOM     17  C   UNL     1      45.829   7.075  12.450  0.00  0.00    +0.000 A 
ATOM     18  C   UNL     1      46.343   6.815  11.178  0.00  0.00    +0.000 A 
ATOM     19  C   UNL     1      45.881   5.732  10.433  0.00  0.00    +0.000 A 
ATOM     20  C   UNL     1      44.902   4.866  10.939  0.00  0.00    +0.000 A 
ATOM     21  C   UNL     1      44.357   5.155  12.199  0.00  0.00    +0.000 A 
ATOM     22  C   UNL     1      44.813   6.248  12.947  0.00  0.00    +0.000 A 
BRANCH  20  23
ATOM     23  C   UNL     1      44.374   3.690  10.138  0.00  0.00    +0.000 C 
BRANCH  23  24
ATOM     24  C   UNL     1      44.497   3.854   8.616  0.00  0.00    +0.000 C 
BRANCH  24  25
ATOM     25  C   UNL     1      45.553   2.977   7.990  0.00  0.00    +0.000 A 
ATOM     26  C   UNL     1      46.424   3.507   7.028  0.00  0.00    +0.000 A 
ATOM     27  C   UNL     1      47.453   2.728   6.499  0.00  0.00    +0.000 A 
ATOM     28  C   UNL     1      47.616   1.410   6.920  0.00  0.00    +0.000 A 
ATOM     29  C   UNL     1      46.741   0.868   7.860  0.00  0.00    +0.000 A 
ATOM     30  C   UNL     1      45.711   1.645   8.391  0.00  0.00    +0.000 A 
ENDBRANCH  24  25
ENDBRANCH  23  24
ENDBRANCH  20  23
ENDBRANCH  16  17
ENDBRANCH   3  16
TORSDOF 6
ENDMDL
MODEL 5
REMARK VINA RESULT:    -7.243      2.022      3.065
REMARK INTER + INTRA:         -11.037
REMARK INTER:                  -9.791
REMARK INTRA:                  -1.246
REMARK UNBOUND:                -1.254
REMARK  Name = 
REMARK  6 active torsions:
REMARK  status: ('A' for Active; 'I' for Inactive)
REMARK    1  A    between atoms: C_2  and  C_19
REMARK    2  A    between atoms: N_3  and  C_4
REMARK    3  A    between atoms: C_4  and  C_5
REMARK    4  A    between atoms: C_8  and  C_9
REMARK    5  A    between atoms: C_9  and  C_10
REMARK    6  A    between atoms: C_10  and  C_11
REMARK                            x       y       z     vdW  Elec       q    Type
REMARK                         _______ _______ _______ _____ _____    ______ ____
ROOT
ATOM      1  O   UNL     1      48.484   8.322  16.199  0.00  0.00    +0.000 OA
ATOM      2  C   UNL     1      48.790   7.152  15.994  0.00  0.00    +0.000 C 
ATOM      3  N   UNL     1      48.797   6.593  14.739  0.00  0.00    +0.000 N 
ATOM      4  H   UNL     1      48.859   5.586  14.655  0.00  0.00    +0.000 HD
ENDROOT
BRANCH   2   5
ATOM      5  C   UNL     1      49.237   6.272  17.083  0.00  0.00    +0.000 A 
ATOM      6  C   UNL     1      48.313   5.747  17.974  0.00  0.00    +0.000 A 
ATOM      7  S   UNL     1      49.011   4.787  19.199  0.00  0.00    +0.000 S 
ATOM      8  C   UNL     1      50.569   4.992  18.548  0.00  0.00    +0.000 A 
ATOM      9  N   UNL     1      51.652   4.403  19.123  0.00  0.00    +0.000 NA
ATOM     10  C   UNL     1      52.764   4.608  18.500  0.00  0.00    +0.000 A 
ATOM     11  N   UNL     1      52.895   5.355  17.358  0.00  0.00    +0.000 N 
ATOM     12  C   UNL     1      51.844   6.031  16.787  0.00  0.00    +0.000 A 
ATOM     13  O   UNL     1      52.022   6.796  15.845  0.00  0.00    +0.000 OA
ATOM     14  C   UNL     1      50.560   5.802  17.425  0.00  0.00    +0.000 A 
ATOM     15  H   UNL     1      53.798   5.499  16.933  0.00  0.00    +0.000 HD
ENDBRANCH   2   5
BRANCH   3  16
ATOM     16  C   UNL     1      48.306   7.281  13.574  0.00  0.00    +0.000 C 
BRANCH  16  17
ATOM     17  C   UNL     1      47.270   6.459  12.854  0.00  0.00    +0.000 A 
ATOM     18  C   UNL     1      46.888   5.220  13.373  0.00  0.00    +0.000 A 
ATOM     19  C   UNL     1      45.942   4.435  12.716  0.00  0.00    +0.000 A 
ATOM     20  C   UNL     1      45.339   4.868  11.527  0.00  0.00    +0.000 A 
ATOM     21  C   UNL     1      45.757   6.093  10.985  0.00  0.00    +0.000 A 
ATOM     22  C   UNL     1      46.714   6.880  11.639  0.00  0.00    +0.000 A 
BRANCH  20  23
ATOM     23  C   UNL     1      44.320   4.022  10.786  0.00  0.00    +0.000 C 
BRANCH  23  24
ATOM     24  C   UNL     1      44.310   4.228   9.265  0.00  0.00    +0.000 C 
BRANCH  24  25
ATOM     25  C   UNL     1      45.269   3.334   8.520  0.00  0.00    +0.000 A 
ATOM     26  C   UNL     1      46.147   3.881   7.573  0.00  0.00    +0.000 A 
ATOM     27  C   UNL     1      47.092   3.077   6.935  0.00  0.00    +0.000 A 
ATOM     28  C   UNL     1      47.161   1.717   7.229  0.00  0.00    +0.000 A 
ATOM     29  C   UNL     1      46.277   1.160   8.153  0.00  0.00    +0.000 A 
ATOM     30  C   UNL     1      45.333   1.963   8.793  0.00  0.00    +0.000 A 
ENDBRANCH  24  25
ENDBRANCH  23  24
ENDBRANCH  20  23
ENDBRANCH  16  17
ENDBRANCH   3  16
TORSDOF 6
ENDMDL
MODEL 6
REMARK VINA RESULT:    -7.108      2.812      4.455
REMARK INTER + INTRA:         -10.854
REMARK INTER:                  -9.523
REMARK INTRA:                  -1.331
REMARK UNBOUND:                -1.254
REMARK  Name = 
REMARK  6 active torsions:
REMARK  status: ('A' for Active; 'I' for Inactive)
REMARK    1  A    between atoms: C_2  and  C_19
REMARK    2  A    between atoms: N_3  and  C_4
REMARK    3  A    between atoms: C_4  and  C_5
REMARK    4  A    between atoms: C_8  and  C_9
REMARK    5  A    between atoms: C_9  and  C_10
REMARK    6  A    between atoms: C_10  and  C_11
REMARK                            x       y       z     vdW  Elec       q    Type
REMARK                         _______ _______ _______ _____ _____    ______ ____
ROOT
ATOM      1  O   UNL     1      48.515   7.890  15.762  0.00  0.00    +0.000 OA
ATOM      2  C   UNL     1      49.042   7.478  14.735  0.00  0.00    +0.000 C 
ATOM      3  N   UNL     1      48.471   6.516  13.938  0.00  0.00    +0.000 N 
ATOM      4  H   UNL     1      49.037   6.075  13.224  0.00  0.00    +0.000 HD
ENDROOT
BRANCH   2   5
ATOM      5  C   UNL     1      50.309   8.038  14.243  0.00  0.00    +0.000 A 
ATOM      6  C   UNL     1      51.478   7.845  14.964  0.00  0.00    +0.000 A 
ATOM      7  S   UNL     1      52.842   8.601  14.272  0.00  0.00    +0.000 S 
ATOM      8  C   UNL     1      51.929   9.166  12.954  0.00  0.00    +0.000 A 
ATOM      9  N   UNL     1      52.508   9.891  11.959  0.00  0.00    +0.000 NA
ATOM     10  C   UNL     1      51.707  10.217  11.001  0.00  0.00    +0.000 A 
ATOM     11  N   UNL     1      50.376   9.893  10.948  0.00  0.00    +0.000 N 
ATOM     12  C   UNL     1      49.732   9.230  11.965  0.00  0.00    +0.000 A 
ATOM     13  O   UNL     1      48.516   9.073  11.946  0.00  0.00    +0.000 OA
ATOM     14  C   UNL     1      50.596   8.804  13.052  0.00  0.00    +0.000 A 
ATOM     15  H   UNL     1      49.797  10.200  10.182  0.00  0.00    +0.000 HD
ENDBRANCH   2   5
BRANCH   3  16
ATOM     16  C   UNL     1      47.280   5.799  14.311  0.00  0.00    +0.000 C 
BRANCH  16  17
ATOM     17  C   UNL     1      46.511   5.354  13.095  0.00  0.00    +0.000 A 
ATOM     18  C   UNL     1      46.450   6.184  11.975  0.00  0.00    +0.000 A 
ATOM     19  C   UNL     1      45.731   5.799  10.843  0.00  0.00    +0.000 A 
ATOM     20  C   UNL     1      45.064   4.568  10.791  0.00  0.00    +0.000 A 
ATOM     21  C   UNL     1      45.091   3.756  11.935  0.00  0.00    +0.000 A 
ATOM     22  C   UNL     1      45.805   4.144  13.076  0.00  0.00    +0.000 A 
BRANCH  20  23
ATOM     23  C   UNL     1      44.262   4.137   9.577  0.00  0.00    +0.000 C 
BRANCH  23  24
ATOM     24  C   UNL     1      44.463   2.669   9.173  0.00  0.00    +0.000 C 
BRANCH  24  25
ATOM     25  C   UNL     1      45.560   2.457   8.161  0.00  0.00    +0.000 A 
ATOM     26  C   UNL     1      45.927   3.497   7.295  0.00  0.00    +0.000 A 
ATOM     27  C   UNL     1      46.992   3.339   6.409  0.00  0.00    +0.000 A 
ATOM     28  C   UNL     1      47.694   2.137   6.372  0.00  0.00    +0.000 A 
ATOM     29  C   UNL     1      47.323   1.089   7.213  0.00  0.00    +0.000 A 
ATOM     30  C   UNL     1      46.259   1.245   8.102  0.00  0.00    +0.000 A 
ENDBRANCH  24  25
ENDBRANCH  23  24
ENDBRANCH  20  23
ENDBRANCH  16  17
ENDBRANCH   3  16
TORSDOF 6
ENDMDL
MODEL 7
REMARK VINA RESULT:    -7.092      1.955      3.016
REMARK INTER + INTRA:         -10.833
REMARK INTER:                  -9.850
REMARK INTRA:                  -0.983
REMARK UNBOUND:                -1.254
REMARK  Name = 
REMARK  6 active torsions:
REMARK  status: ('A' for Active; 'I' for Inactive)
REMARK    1  A    between atoms: C_2  and  C_19
REMARK    2  A    between atoms: N_3  and  C_4
REMARK    3  A    between atoms: C_4  and  C_5
REMARK    4  A    between atoms: C_8  and  C_9
REMARK    5  A    between atoms: C_9  and  C_10
REMARK    6  A    between atoms: C_10  and  C_11
REMARK                            x       y       z     vdW  Elec       q    Type
REMARK                         _______ _______ _______ _____ _____    ______ ____
ROOT
ATOM      1  O   UNL     1      49.399   6.752  13.615  0.00  0.00    +0.000 OA
ATOM      2  C   UNL     1      48.658   7.014  14.556  0.00  0.00    +0.000 C 
ATOM      3  N   UNL     1      47.369   7.458  14.389  0.00  0.00    +0.000 N 
ATOM      4  H   UNL     1      46.880   7.846  15.185  0.00  0.00    +0.000 HD
ENDROOT
BRANCH   2   5
ATOM      5  C   UNL     1      49.082   6.809  15.949  0.00  0.00    +0.000 A 
ATOM      6  C   UNL     1      48.833   5.598  16.577  0.00  0.00    +0.000 A 
ATOM      7  S   UNL     1      49.351   5.550  18.202  0.00  0.00    +0.000 S 
ATOM      8  C   UNL     1      49.978   7.128  18.106  0.00  0.00    +0.000 A 
ATOM      9  N   UNL     1      50.589   7.705  19.175  0.00  0.00    +0.000 NA
ATOM     10  C   UNL     1      51.055   8.888  18.949  0.00  0.00    +0.000 A 
ATOM     11  N   UNL     1      50.960   9.551  17.753  0.00  0.00    +0.000 N 
ATOM     12  C   UNL     1      50.284   9.039  16.671  0.00  0.00    +0.000 A 
ATOM     13  O   UNL     1      50.103   9.714  15.662  0.00  0.00    +0.000 OA
ATOM     14  C   UNL     1      49.773   7.693  16.858  0.00  0.00    +0.000 A 
ATOM     15  H   UNL     1      51.322  10.486  17.647  0.00  0.00    +0.000 HD
ENDBRANCH   2   5
BRANCH   3  16
ATOM     16  C   UNL     1      46.820   7.796  13.102  0.00  0.00    +0.000 C 
BRANCH  16  17
ATOM     17  C   UNL     1      46.204   6.591  12.441  0.00  0.00    +0.000 A 
ATOM     18  C   UNL     1      46.057   5.406  13.164  0.00  0.00    +0.000 A 
ATOM     19  C   UNL     1      45.504   4.273  12.568  0.00  0.00    +0.000 A 
ATOM     20  C   UNL     1      45.068   4.293  11.236  0.00  0.00    +0.000 A 
ATOM     21  C   UNL     1      45.258   5.472  10.499  0.00  0.00    +0.000 A 
ATOM     22  C   UNL     1      45.822   6.609  11.093  0.00  0.00    +0.000 A 
BRANCH  20  23
ATOM     23  C   UNL     1      44.479   3.067  10.563  0.00  0.00    +0.000 C 
BRANCH  23  24
ATOM     24  C   UNL     1      44.365   3.176   9.036  0.00  0.00    +0.000 C 
BRANCH  24  25
ATOM     25  C   UNL     1      45.575   2.665   8.294  0.00  0.00    +0.000 A 
ATOM     26  C   UNL     1      45.905   1.303   8.342  0.00  0.00    +0.000 A 
ATOM     27  C   UNL     1      46.975   0.807   7.598  0.00  0.00    +0.000 A 
ATOM     28  C   UNL     1      47.732   1.668   6.806  0.00  0.00    +0.000 A 
ATOM     29  C   UNL     1      47.425   3.028   6.770  0.00  0.00    +0.000 A 
ATOM     30  C   UNL     1      46.354   3.527   7.512  0.00  0.00    +0.000 A 
ENDBRANCH  24  25
ENDBRANCH  23  24
ENDBRANCH  20  23
ENDBRANCH  16  17
ENDBRANCH   3  16
TORSDOF 6
ENDMDL
MODEL 8
REMARK VINA RESULT:    -7.029      2.340      3.588
REMARK INTER + INTRA:         -10.749
REMARK INTER:                  -9.568
REMARK INTRA:                  -1.180
REMARK UNBOUND:                -1.254
REMARK  Name = 
REMARK  6 active torsions:
REMARK  status: ('A' for Active; 'I' for Inactive)
REMARK    1  A    between atoms: C_2  and  C_19
REMARK    2  A    between atoms: N_3  and  C_4
REMARK    3  A    between atoms: C_4  and  C_5
REMARK    4  A    between atoms: C_8  and  C_9
REMARK    5  A    between atoms: C_9  and  C_10
REMARK    6  A    between atoms: C_10  and  C_11
REMARK                            x       y       z     vdW  Elec       q    Type
REMARK                         _______ _______ _______ _____ _____    ______ ____
ROOT
ATOM      1  O   UNL     1      47.291   4.326  18.168  0.00  0.00    +0.000 OA
ATOM      2  C   UNL     1      47.808   5.158  17.431  0.00  0.00    +0.000 C 
ATOM      3  N   UNL     1      47.736   5.089  16.061  0.00  0.00    +0.000 N 
ATOM      4  H   UNL     1      48.343   5.682  15.510  0.00  0.00    +0.000 HD
ENDROOT
BRANCH   2   5
ATOM      5  C   UNL     1      48.497   6.340  17.970  0.00  0.00    +0.000 A 
ATOM      6  C   UNL     1      47.774   7.325  18.625  0.00  0.00    +0.000 A 
ATOM      7  S   UNL     1      48.725   8.643  19.144  0.00  0.00    +0.000 S 
ATOM      8  C   UNL     1      50.147   7.916  18.562  0.00  0.00    +0.000 A 
ATOM      9  N   UNL     1      51.355   8.527  18.703  0.00  0.00    +0.000 NA
ATOM     10  C   UNL     1      52.354   7.844  18.255  0.00  0.00    +0.000 A 
ATOM     11  N   UNL     1      52.258   6.607  17.670  0.00  0.00    +0.000 N 
ATOM     12  C   UNL     1      51.053   5.988  17.437  0.00  0.00    +0.000 A 
ATOM     13  O   UNL     1      50.994   4.946  16.792  0.00  0.00    +0.000 OA
ATOM     14  C   UNL     1      49.897   6.696  17.958  0.00  0.00    +0.000 A 
ATOM     15  H   UNL     1      53.075   6.135  17.316  0.00  0.00    +0.000 HD
ENDBRANCH   2   5
BRANCH   3  16
ATOM     16  C   UNL     1      47.177   3.960  15.365  0.00  0.00    +0.000 C 
BRANCH  16  17
ATOM     17  C   UNL     1      46.669   4.359  14.004  0.00  0.00    +0.000 A 
ATOM     18  C   UNL     1      45.933   3.445  13.247  0.00  0.00    +0.000 A 
ATOM     19  C   UNL     1      45.466   3.787  11.978  0.00  0.00    +0.000 A 
ATOM     20  C   UNL     1      45.709   5.054  11.432  0.00  0.00    +0.000 A 
ATOM     21  C   UNL     1      46.487   5.953  12.177  0.00  0.00    +0.000 A 
ATOM     22  C   UNL     1      46.964   5.610  13.448  0.00  0.00    +0.000 A 
BRANCH  20  23
ATOM     23  C   UNL     1      45.225   5.440  10.046  0.00  0.00    +0.000 C 
BRANCH  23  24
ATOM     24  C   UNL     1      44.495   4.318   9.294  0.00  0.00    +0.000 C 
BRANCH  24  25
ATOM     25  C   UNL     1      45.411   3.409   8.513  0.00  0.00    +0.000 A 
ATOM     26  C   UNL     1      46.308   3.950   7.581  0.00  0.00    +0.000 A 
ATOM     27  C   UNL     1      47.213   3.128   6.910  0.00  0.00    +0.000 A 
ATOM     28  C   UNL     1      47.224   1.756   7.157  0.00  0.00    +0.000 A 
ATOM     29  C   UNL     1      46.320   1.207   8.065  0.00  0.00    +0.000 A 
ATOM     30  C   UNL     1      45.415   2.027   8.738  0.00  0.00    +0.000 A 
ENDBRANCH  24  25
ENDBRANCH  23  24
ENDBRANCH  20  23
ENDBRANCH  16  17
ENDBRANCH   3  16
TORSDOF 6
ENDMDL
MODEL 9
REMARK VINA RESULT:    -6.962      3.704      8.159
REMARK INTER + INTRA:         -10.658
REMARK INTER:                  -9.441
REMARK INTRA:                  -1.217
REMARK UNBOUND:                -1.254
REMARK  Name = 
REMARK  6 active torsions:
REMARK  status: ('A' for Active; 'I' for Inactive)
REMARK    1  A    between atoms: C_2  and  C_19
REMARK    2  A    between atoms: N_3  and  C_4
REMARK    3  A    between atoms: C_4  and  C_5
REMARK    4  A    between atoms: C_8  and  C_9
REMARK    5  A    between atoms: C_9  and  C_10
REMARK    6  A    between atoms: C_10  and  C_11
REMARK                            x       y       z     vdW  Elec       q    Type
REMARK                         _______ _______ _______ _____ _____    ______ ____
ROOT
ATOM      1  O   UNL     1      45.630   7.857  11.889  0.00  0.00    +0.000 OA
ATOM      2  C   UNL     1      46.301   6.926  11.457  0.00  0.00    +0.000 C 
ATOM      3  N   UNL     1      47.668   6.871  11.583  0.00  0.00    +0.000 N 
ATOM      4  H   UNL     1      48.180   6.189  11.038  0.00  0.00    +0.000 HD
ENDROOT
BRANCH   2   5
ATOM      5  C   UNL     1      45.675   5.757  10.823  0.00  0.00    +0.000 A 
ATOM      6  C   UNL     1      45.849   5.528   9.465  0.00  0.00    +0.000 A 
ATOM      7  S   UNL     1      45.017   4.155   8.890  0.00  0.00    +0.000 S 
ATOM      8  C   UNL     1      44.440   3.785  10.446  0.00  0.00    +0.000 A 
ATOM      9  N   UNL     1      43.657   2.693  10.661  0.00  0.00    +0.000 NA
ATOM     10  C   UNL     1      43.328   2.508  11.895  0.00  0.00    +0.000 A 
ATOM     11  N   UNL     1      43.701   3.320  12.935  0.00  0.00    +0.000 N 
ATOM     12  C   UNL     1      44.424   4.474  12.754  0.00  0.00    +0.000 A 
ATOM     13  O   UNL     1      44.627   5.245  13.686  0.00  0.00    +0.000 OA
ATOM     14  C   UNL     1      44.856   4.709  11.388  0.00  0.00    +0.000 A 
ATOM     15  H   UNL     1      43.388   3.135  13.876  0.00  0.00    +0.000 HD
ENDBRANCH   2   5
BRANCH   3  16
ATOM     16  C   UNL     1      48.449   7.964  12.097  0.00  0.00    +0.000 C 
BRANCH  16  17
ATOM     17  C   UNL     1      49.029   7.630  13.446  0.00  0.00    +0.000 A 
ATOM     18  C   UNL     1      50.326   8.041  13.762  0.00  0.00    +0.000 A 
ATOM     19  C   UNL     1      50.889   7.729  14.998  0.00  0.00    +0.000 A 
ATOM     20  C   UNL     1      50.171   7.009  15.963  0.00  0.00    +0.000 A 
ATOM     21  C   UNL     1      48.885   6.560  15.626  0.00  0.00    +0.000 A 
ATOM     22  C   UNL     1      48.320   6.864  14.380  0.00  0.00    +0.000 A 
BRANCH  20  23
ATOM     23  C   UNL     1      50.771   6.645  17.308  0.00  0.00    +0.000 C 
BRANCH  23  24
ATOM     24  C   UNL     1      50.030   5.522  18.050  0.00  0.00    +0.000 C 
BRANCH  24  25
ATOM     25  C   UNL     1      50.574   4.143  17.773  0.00  0.00    +0.000 A 
ATOM     26  C   UNL     1      51.925   3.860  18.016  0.00  0.00    +0.000 A 
ATOM     27  C   UNL     1      52.421   2.569  17.838  0.00  0.00    +0.000 A 
ATOM     28  C   UNL     1      51.574   1.550  17.406  0.00  0.00    +0.000 A 
ATOM     29  C   UNL     1      50.234   1.827  17.141  0.00  0.00    +0.000 A 
ATOM     30  C   UNL     1      49.735   3.118  17.319  0.00  0.00    +0.000 A 
ENDBRANCH  24  25
ENDBRANCH  23  24
ENDBRANCH  20  23
ENDBRANCH  16  17
ENDBRANCH   3  16
TORSDOF 6
ENDMDL
