MODEL 1
REMARK VINA RESULT:    -6.649      0.000      0.000
REMARK INTER + INTRA:          -9.732
REMARK INTER:                  -9.176
REMARK INTRA:                  -0.556
REMARK UNBOUND:                -0.556
REMARK  Name = 
REMARK  9 active torsions:
REMARK  status: ('A' for Active; 'I' for Inactive)
REMARK    1  A    between atoms: C_1  and  O_2
REMARK    2  A    between atoms: O_2  and  C_3
REMARK    3  A    between atoms: C_7  and  C_8
REMARK    4  A    between atoms: C_8  and  C_9
REMARK    5  A    between atoms: C_9  and  C_10
REMARK    6  A    between atoms: C_10  and  C_11
REMARK    7  A    between atoms: C_14  and  C_15
REMARK    8  A    between atoms: C_16  and  C_17
REMARK    9  A    between atoms: C_17  and  N_18
REMARK                            x       y       z     vdW  Elec       q    Type
REMARK                         _______ _______ _______ _____ _____    ______ ____
ROOT
ATOM      1  C   UNL     1      45.563   3.798  12.405  0.00  0.00    +0.000 C 
ENDROOT
BRANCH   1   2
ATOM      2  C   UNL     1      46.413   4.413  13.486  0.00  0.00    +0.000 A 
ATOM      3  C   UNL     1      46.925   5.695  13.340  0.00  0.00    +0.000 A 
ATOM      4  C   UNL     1      47.766   6.193  14.328  0.00  0.00    +0.000 A 
ATOM      5  C   UNL     1      48.077   5.413  15.447  0.00  0.00    +0.000 A 
ATOM      6  C   UNL     1      49.003   5.959  16.494  0.00  0.00    +0.000 C 
ATOM      7  C   UNL     1      47.516   4.131  15.525  0.00  0.00    +0.000 A 
ATOM      8  N   UNL     1      46.700   3.634  14.554  0.00  0.00    +0.000 NA
BRANCH   7   9
ATOM      9  C   UNL     1      47.743   3.210  16.710  0.00  0.00    +0.000 C 
BRANCH   9  10
ATOM     10  N   UNL     1      46.575   3.048  17.582  0.00  0.00    +0.000 NA
ATOM     11  H   UNL     1      45.745   3.045  16.986  0.00  0.00    +0.000 HD
ATOM     12  H   UNL     1      46.496   3.876  18.168  0.00  0.00    +0.000 HD
ENDBRANCH   9  10
ENDBRANCH   7   9
ENDBRANCH   1   2
BRANCH   1  13
ATOM     13  C   UNL     1      45.014   4.889  11.487  0.00  0.00    +0.000 C 
BRANCH  13  14
ATOM     14  C   UNL     1      44.209   4.308  10.326  0.00  0.00    +0.000 C 
BRANCH  14  19
ATOM     15  C   UNL     1      46.105   1.745   8.221  0.00  0.00    +0.000 A 
ATOM     16  C   UNL     1      46.740   2.573   7.294  0.00  0.00    +0.000 A 
ATOM     17  C   UNL     1      46.571   3.958   7.362  0.00  0.00    +0.000 A 
ATOM     18  C   UNL     1      45.769   4.523   8.351  0.00  0.00    +0.000 A 
ATOM     19  C   UNL     1      45.130   3.708   9.291  0.00  0.00    +0.000 A 
ATOM     20  C   UNL     1      45.306   2.319   9.216  0.00  0.00    +0.000 A 
BRANCH  15  22
ATOM     21  C   UNL     1      46.965  -0.251   7.260  0.00  0.00    +0.000 C 
ATOM     22  O   UNL     1      46.173   0.379   8.260  0.00  0.00    +0.000 OA
ENDBRANCH  15  22
ENDBRANCH  14  19
ENDBRANCH  13  14
ENDBRANCH   1  13
TORSDOF 7
ENDMDL
MODEL 2
REMARK VINA RESULT:    -6.323      1.485      2.203
REMARK INTER + INTRA:          -9.282
REMARK INTER:                  -8.798
REMARK INTRA:                  -0.484
REMARK UNBOUND:                -0.556
REMARK  Name = 
REMARK  9 active torsions:
REMARK  status: ('A' for Active; 'I' for Inactive)
REMARK    1  A    between atoms: C_1  and  O_2
REMARK    2  A    between atoms: O_2  and  C_3
REMARK    3  A    between atoms: C_7  and  C_8
REMARK    4  A    between atoms: C_8  and  C_9
REMARK    5  A    between atoms: C_9  and  C_10
REMARK    6  A    between atoms: C_10  and  C_11
REMARK    7  A    between atoms: C_14  and  C_15
REMARK    8  A    between atoms: C_16  and  C_17
REMARK    9  A    between atoms: C_17  and  N_18
REMARK                            x       y       z     vdW  Elec       q    Type
REMARK                         _______ _______ _______ _____ _____    ______ ____
ROOT
ATOM      1  C   UNL     1      46.611   4.958  12.950  0.00  0.00    +0.000 C 
ENDROOT
BRANCH   1   2
ATOM      2  C   UNL     1      47.353   5.323  14.209  0.00  0.00    +0.000 A 
ATOM      3  C   UNL     1      48.077   6.505  14.286  0.00  0.00    +0.000 A 
ATOM      4  C   UNL     1      48.806   6.765  15.440  0.00  0.00    +0.000 A 
ATOM      5  C   UNL     1      48.798   5.851  16.500  0.00  0.00    +0.000 A 
ATOM      6  C   UNL     1      49.608   6.140  17.729  0.00  0.00    +0.000 C 
ATOM      7  C   UNL     1      48.038   4.684  16.349  0.00  0.00    +0.000 A 
ATOM      8  N   UNL     1      47.329   4.419  15.216  0.00  0.00    +0.000 NA
BRANCH   7   9
ATOM      9  C   UNL     1      47.914   3.642  17.445  0.00  0.00    +0.000 C 
BRANCH   9  10
ATOM     10  N   UNL     1      46.577   3.051  17.570  0.00  0.00    +0.000 NA
ATOM     11  H   UNL     1      45.898   3.778  17.338  0.00  0.00    +0.000 HD
ATOM     12  H   UNL     1      46.419   2.822  18.548  0.00  0.00    +0.000 HD
ENDBRANCH   9  10
ENDBRANCH   7   9
ENDBRANCH   1   2
BRANCH   1  13
ATOM     13  C   UNL     1      46.393   6.202  12.091  0.00  0.00    +0.000 C 
BRANCH  13  14
ATOM     14  C   UNL     1      45.034   6.185  11.394  0.00  0.00    +0.000 C 
BRANCH  14  19
ATOM     15  C   UNL     1      45.589   3.939   8.355  0.00  0.00    +0.000 A 
ATOM     16  C   UNL     1      44.878   2.798   8.728  0.00  0.00    +0.000 A 
ATOM     17  C   UNL     1      44.203   2.763   9.951  0.00  0.00    +0.000 A 
ATOM     18  C   UNL     1      44.237   3.862  10.807  0.00  0.00    +0.000 A 
ATOM     19  C   UNL     1      44.940   5.015  10.445  0.00  0.00    +0.000 A 
ATOM     20  C   UNL     1      45.613   5.042   9.215  0.00  0.00    +0.000 A 
BRANCH  15  22
ATOM     21  C   UNL     1      47.209   3.061   6.854  0.00  0.00    +0.000 C 
ATOM     22  O   UNL     1      46.301   4.101   7.198  0.00  0.00    +0.000 OA
ENDBRANCH  15  22
ENDBRANCH  14  19
ENDBRANCH  13  14
ENDBRANCH   1  13
TORSDOF 7
ENDMDL
MODEL 3
REMARK VINA RESULT:    -6.059      3.353      7.433
REMARK INTER + INTRA:          -8.917
REMARK INTER:                  -8.269
REMARK INTRA:                  -0.648
REMARK UNBOUND:                -0.556
REMARK  Name = 
REMARK  9 active torsions:
REMARK  status: ('A' for Active; 'I' for Inactive)
REMARK    1  A    between atoms: C_1  and  O_2
REMARK    2  A    between atoms: O_2  and  C_3
REMARK    3  A    between atoms: C_7  and  C_8
REMARK    4  A    between atoms: C_8  and  C_9
REMARK    5  A    between atoms: C_9  and  C_10
REMARK    6  A    between atoms: C_10  and  C_11
REMARK    7  A    between atoms: C_14  and  C_15
REMARK    8  A    between atoms: C_16  and  C_17
REMARK    9  A    between atoms: C_17  and  N_18
REMARK                            x       y       z     vdW  Elec       q    Type
REMARK                         _______ _______ _______ _____ _____    ______ ____
ROOT
ATOM      1  C   UNL     1      45.394   5.027   8.958  0.00  0.00    +0.000 C 
ENDROOT
BRANCH   1   2
ATOM      2  C   UNL     1      45.740   3.631   8.509  0.00  0.00    +0.000 A 
ATOM      3  C   UNL     1      45.022   2.540   8.977  0.00  0.00    +0.000 A 
ATOM      4  C   UNL     1      45.423   1.266   8.596  0.00  0.00    +0.000 A 
ATOM      5  C   UNL     1      46.526   1.098   7.751  0.00  0.00    +0.000 A 
ATOM      6  C   UNL     1      46.958  -0.287   7.366  0.00  0.00    +0.000 C 
ATOM      7  C   UNL     1      47.196   2.249   7.315  0.00  0.00    +0.000 A 
ATOM      8  N   UNL     1      46.812   3.500   7.695  0.00  0.00    +0.000 NA
BRANCH   7   9
ATOM      9  C   UNL     1      48.376   2.197   6.363  0.00  0.00    +0.000 C 
BRANCH   9  10
ATOM     10  N   UNL     1      48.026   2.424   4.956  0.00  0.00    +0.000 NA
ATOM     11  H   UNL     1      48.787   2.960   4.533  0.00  0.00    +0.000 HD
ATOM     12  H   UNL     1      47.207   3.027   4.923  0.00  0.00    +0.000 HD
ENDBRANCH   9  10
ENDBRANCH   7   9
ENDBRANCH   1   2
BRANCH   1  13
ATOM     13  C   UNL     1      44.766   4.990  10.350  0.00  0.00    +0.000 C 
BRANCH  13  14
ATOM     14  C   UNL     1      44.902   6.327  11.076  0.00  0.00    +0.000 C 
BRANCH  14  19
ATOM     15  C   UNL     1      46.893   5.068  14.082  0.00  0.00    +0.000 A 
ATOM     16  C   UNL     1      47.949   5.979  14.108  0.00  0.00    +0.000 A 
ATOM     17  C   UNL     1      48.006   7.011  13.169  0.00  0.00    +0.000 A 
ATOM     18  C   UNL     1      47.014   7.137  12.198  0.00  0.00    +0.000 A 
ATOM     19  C   UNL     1      45.946   6.235  12.162  0.00  0.00    +0.000 A 
ATOM     20  C   UNL     1      45.896   5.203  13.110  0.00  0.00    +0.000 A 
BRANCH  15  22
ATOM     21  C   UNL     1      47.457   4.040  16.150  0.00  0.00    +0.000 C 
ATOM     22  O   UNL     1      46.723   4.008  14.931  0.00  0.00    +0.000 OA
ENDBRANCH  15  22
ENDBRANCH  14  19
ENDBRANCH  13  14
ENDBRANCH   1  13
TORSDOF 7
ENDMDL
MODEL 4
REMARK VINA RESULT:    -5.999      3.444      5.017
REMARK INTER + INTRA:          -8.835
REMARK INTER:                  -8.428
REMARK INTRA:                  -0.406
REMARK UNBOUND:                -0.556
REMARK  Name = 
REMARK  9 active torsions:
REMARK  status: ('A' for Active; 'I' for Inactive)
REMARK    1  A    between atoms: C_1  and  O_2
REMARK    2  A    between atoms: O_2  and  C_3
REMARK    3  A    between atoms: C_7  and  C_8
REMARK    4  A    between atoms: C_8  and  C_9
REMARK    5  A    between atoms: C_9  and  C_10
REMARK    6  A    between atoms: C_10  and  C_11
REMARK    7  A    between atoms: C_14  and  C_15
REMARK    8  A    between atoms: C_16  and  C_17
REMARK    9  A    between atoms: C_17  and  N_18
REMARK                            x       y       z     vdW  Elec       q    Type
REMARK                         _______ _______ _______ _____ _____    ______ ____
ROOT
ATOM      1  C   UNL     1      45.672   3.405   7.785  0.00  0.00    +0.000 C 
ENDROOT
BRANCH   1   2
ATOM      2  C   UNL     1      45.331   4.053   9.102  0.00  0.00    +0.000 A 
ATOM      3  C   UNL     1      45.794   5.325   9.405  0.00  0.00    +0.000 A 
ATOM      4  C   UNL     1      45.517   5.853  10.660  0.00  0.00    +0.000 A 
ATOM      5  C   UNL     1      44.780   5.110  11.590  0.00  0.00    +0.000 A 
ATOM      6  C   UNL     1      44.509   5.688  12.947  0.00  0.00    +0.000 C 
ATOM      7  C   UNL     1      44.342   3.835  11.206  0.00  0.00    +0.000 A 
ATOM      8  N   UNL     1      44.619   3.310   9.981  0.00  0.00    +0.000 NA
BRANCH   7   9
ATOM      9  C   UNL     1      43.498   2.956  12.109  0.00  0.00    +0.000 C 
BRANCH   9  10
ATOM     10  N   UNL     1      43.086   1.685  11.502  0.00  0.00    +0.000 NA
ATOM     11  H   UNL     1      43.440   1.674  10.543  0.00  0.00    +0.000 HD
ATOM     12  H   UNL     1      42.071   1.681  11.426  0.00  0.00    +0.000 HD
ENDBRANCH   9  10
ENDBRANCH   7   9
ENDBRANCH   1   2
BRANCH   1  13
ATOM     13  C   UNL     1      46.148   1.972   8.014  0.00  0.00    +0.000 C 
BRANCH  13  14
ATOM     14  C   UNL     1      47.440   1.670   7.256  0.00  0.00    +0.000 C 
BRANCH  14  19
ATOM     15  C   UNL     1      46.751  -0.647   4.299  0.00  0.00    +0.000 A 
ATOM     16  C   UNL     1      46.442   0.275   3.298  0.00  0.00    +0.000 A 
ATOM     17  C   UNL     1      46.477   1.643   3.574  0.00  0.00    +0.000 A 
ATOM     18  C   UNL     1      46.816   2.099   4.847  0.00  0.00    +0.000 A 
ATOM     19  C   UNL     1      47.133   1.188   5.859  0.00  0.00    +0.000 A 
ATOM     20  C   UNL     1      47.098  -0.185   5.572  0.00  0.00    +0.000 A 
BRANCH  15  22
ATOM     21  C   UNL     1      46.303  -2.530   2.919  0.00  0.00    +0.000 C 
ATOM     22  O   UNL     1      46.743  -2.009   4.168  0.00  0.00    +0.000 OA
ENDBRANCH  15  22
ENDBRANCH  14  19
ENDBRANCH  13  14
ENDBRANCH   1  13
TORSDOF 7
ENDMDL
MODEL 5
REMARK VINA RESULT:    -5.989      3.565      7.291
REMARK INTER + INTRA:          -8.821
REMARK INTER:                  -8.044
REMARK INTRA:                  -0.777
REMARK UNBOUND:                -0.556
REMARK  Name = 
REMARK  9 active torsions:
REMARK  status: ('A' for Active; 'I' for Inactive)
REMARK    1  A    between atoms: C_1  and  O_2
REMARK    2  A    between atoms: O_2  and  C_3
REMARK    3  A    between atoms: C_7  and  C_8
REMARK    4  A    between atoms: C_8  and  C_9
REMARK    5  A    between atoms: C_9  and  C_10
REMARK    6  A    between atoms: C_10  and  C_11
REMARK    7  A    between atoms: C_14  and  C_15
REMARK    8  A    between atoms: C_16  and  C_17
REMARK    9  A    between atoms: C_17  and  N_18
REMARK                            x       y       z     vdW  Elec       q    Type
REMARK                         _______ _______ _______ _____ _____    ______ ____
ROOT
ATOM      1  C   UNL     1      43.913   4.999   9.627  0.00  0.00    +0.000 C 
ENDROOT
BRANCH   1   2
ATOM      2  C   UNL     1      44.644   3.818   9.043  0.00  0.00    +0.000 A 
ATOM      3  C   UNL     1      44.329   2.526   9.439  0.00  0.00    +0.000 A 
ATOM      4  C   UNL     1      45.079   1.473   8.930  0.00  0.00    +0.000 A 
ATOM      5  C   UNL     1      46.123   1.721   8.032  0.00  0.00    +0.000 A 
ATOM      6  C   UNL     1      46.935   0.572   7.509  0.00  0.00    +0.000 C 
ATOM      7  C   UNL     1      46.375   3.052   7.675  0.00  0.00    +0.000 A 
ATOM      8  N   UNL     1      45.650   4.089   8.179  0.00  0.00    +0.000 NA
BRANCH   7   9
ATOM      9  C   UNL     1      47.449   3.442   6.677  0.00  0.00    +0.000 C 
BRANCH   9  10
ATOM     10  N   UNL     1      47.064   3.260   5.273  0.00  0.00    +0.000 NA
ATOM     11  H   UNL     1      47.474   4.030   4.740  0.00  0.00    +0.000 HD
ATOM     12  H   UNL     1      46.056   3.375   5.201  0.00  0.00    +0.000 HD
ENDBRANCH   9  10
ENDBRANCH   7   9
ENDBRANCH   1   2
BRANCH   1  13
ATOM     13  C   UNL     1      43.299   4.621  10.974  0.00  0.00    +0.000 C 
BRANCH  13  14
ATOM     14  C   UNL     1      43.484   5.723  12.016  0.00  0.00    +0.000 C 
BRANCH  14  19
ATOM     15  C   UNL     1      47.009   6.869  12.939  0.00  0.00    +0.000 A 
ATOM     16  C   UNL     1      47.478   5.761  13.646  0.00  0.00    +0.000 A 
ATOM     17  C   UNL     1      46.663   4.638  13.806  0.00  0.00    +0.000 A 
ATOM     18  C   UNL     1      45.379   4.615  13.266  0.00  0.00    +0.000 A 
ATOM     19  C   UNL     1      44.896   5.715  12.550  0.00  0.00    +0.000 A 
ATOM     20  C   UNL     1      45.722   6.838  12.393  0.00  0.00    +0.000 A 
BRANCH  15  22
ATOM     21  C   UNL     1      48.653   8.024  11.668  0.00  0.00    +0.000 C 
ATOM     22  O   UNL     1      47.695   8.033  12.720  0.00  0.00    +0.000 OA
ENDBRANCH  15  22
ENDBRANCH  14  19
ENDBRANCH  13  14
ENDBRANCH   1  13
TORSDOF 7
ENDMDL
MODEL 6
REMARK VINA RESULT:    -5.986      2.065      3.028
REMARK INTER + INTRA:          -8.817
REMARK INTER:                  -7.982
REMARK INTRA:                  -0.834
REMARK UNBOUND:                -0.556
REMARK  Name = 
REMARK  9 active torsions:
REMARK  status: ('A' for Active; 'I' for Inactive)
REMARK    1  A    between atoms: C_1  and  O_2
REMARK    2  A    between atoms: O_2  and  C_3
REMARK    3  A    between atoms: C_7  and  C_8
REMARK    4  A    between atoms: C_8  and  C_9
REMARK    5  A    between atoms: C_9  and  C_10
REMARK    6  A    between atoms: C_10  and  C_11
REMARK    7  A    between atoms: C_14  and  C_15
REMARK    8  A    between atoms: C_16  and  C_17
REMARK    9  A    between atoms: C_17  and  N_18
REMARK                            x       y       z     vdW  Elec       q    Type
REMARK                         _______ _______ _______ _____ _____    ______ ____
ROOT
ATOM      1  C   UNL     1      47.454   6.528  12.373  0.00  0.00    +0.000 C 
ENDROOT
BRANCH   1   2
ATOM      2  C   UNL     1      47.496   5.698  13.630  0.00  0.00    +0.000 A 
ATOM      3  C   UNL     1      46.695   4.573  13.762  0.00  0.00    +0.000 A 
ATOM      4  C   UNL     1      46.711   3.881  14.967  0.00  0.00    +0.000 A 
ATOM      5  C   UNL     1      47.528   4.315  16.017  0.00  0.00    +0.000 A 
ATOM      6  C   UNL     1      47.517   3.567  17.317  0.00  0.00    +0.000 C 
ATOM      7  C   UNL     1      48.314   5.456  15.804  0.00  0.00    +0.000 A 
ATOM      8  N   UNL     1      48.294   6.143  14.628  0.00  0.00    +0.000 NA
BRANCH   7   9
ATOM      9  C   UNL     1      49.272   5.995  16.850  0.00  0.00    +0.000 C 
BRANCH   9  10
ATOM     10  N   UNL     1      50.600   5.372  16.831  0.00  0.00    +0.000 NA
ATOM     11  H   UNL     1      50.508   4.466  16.366  0.00  0.00    +0.000 HD
ATOM     12  H   UNL     1      50.871   5.167  17.790  0.00  0.00    +0.000 HD
ENDBRANCH   9  10
ENDBRANCH   7   9
ENDBRANCH   1   2
BRANCH   1  13
ATOM     13  C   UNL     1      46.066   6.448  11.739  0.00  0.00    +0.000 C 
BRANCH  13  14
ATOM     14  C   UNL     1      46.137   6.342  10.217  0.00  0.00    +0.000 C 
BRANCH  14  19
ATOM     15  C   UNL     1      44.189   3.057  10.146  0.00  0.00    +0.000 A 
ATOM     16  C   UNL     1      44.477   2.599   8.859  0.00  0.00    +0.000 A 
ATOM     17  C   UNL     1      45.316   3.341   8.025  0.00  0.00    +0.000 A 
ATOM     18  C   UNL     1      45.868   4.542   8.466  0.00  0.00    +0.000 A 
ATOM     19  C   UNL     1      45.594   5.011   9.754  0.00  0.00    +0.000 A 
ATOM     20  C   UNL     1      44.752   4.259  10.586  0.00  0.00    +0.000 A 
BRANCH  15  22
ATOM     21  C   UNL     1      43.465   2.890  12.404  0.00  0.00    +0.000 C 
ATOM     22  O   UNL     1      43.377   2.439  11.057  0.00  0.00    +0.000 OA
ENDBRANCH  15  22
ENDBRANCH  14  19
ENDBRANCH  13  14
ENDBRANCH   1  13
TORSDOF 7
ENDMDL
MODEL 7
REMARK VINA RESULT:    -5.955      1.960      3.492
REMARK INTER + INTRA:          -8.774
REMARK INTER:                  -7.664
REMARK INTRA:                  -1.110
REMARK UNBOUND:                -0.556
REMARK  Name = 
REMARK  9 active torsions:
REMARK  status: ('A' for Active; 'I' for Inactive)
REMARK    1  A    between atoms: C_1  and  O_2
REMARK    2  A    between atoms: O_2  and  C_3
REMARK    3  A    between atoms: C_7  and  C_8
REMARK    4  A    between atoms: C_8  and  C_9
REMARK    5  A    between atoms: C_9  and  C_10
REMARK    6  A    between atoms: C_10  and  C_11
REMARK    7  A    between atoms: C_14  and  C_15
REMARK    8  A    between atoms: C_16  and  C_17
REMARK    9  A    between atoms: C_17  and  N_18
REMARK                            x       y       z     vdW  Elec       q    Type
REMARK                         _______ _______ _______ _____ _____    ______ ____
ROOT
ATOM      1  C   UNL     1      47.444   6.534  12.540  0.00  0.00    +0.000 C 
ENDROOT
BRANCH   1   2
ATOM      2  C   UNL     1      47.535   5.617  13.732  0.00  0.00    +0.000 A 
ATOM      3  C   UNL     1      46.994   4.340  13.685  0.00  0.00    +0.000 A 
ATOM      4  C   UNL     1      47.035   3.556  14.832  0.00  0.00    +0.000 A 
ATOM      5  C   UNL     1      47.619   4.052  16.003  0.00  0.00    +0.000 A 
ATOM      6  C   UNL     1      47.636   3.200  17.237  0.00  0.00    +0.000 C 
ATOM      7  C   UNL     1      48.150   5.349  15.969  0.00  0.00    +0.000 A 
ATOM      8  N   UNL     1      48.103   6.124  14.850  0.00  0.00    +0.000 NA
BRANCH   7   9
ATOM      9  C   UNL     1      48.848   5.977  17.161  0.00  0.00    +0.000 C 
BRANCH   9  10
ATOM     10  N   UNL     1      48.031   6.949  17.896  0.00  0.00    +0.000 NA
ATOM     11  H   UNL     1      47.353   7.339  17.239  0.00  0.00    +0.000 HD
ATOM     12  H   UNL     1      48.629   7.725  18.174  0.00  0.00    +0.000 HD
ENDBRANCH   9  10
ENDBRANCH   7   9
ENDBRANCH   1   2
BRANCH   1  13
ATOM     13  C   UNL     1      46.144   7.334  12.593  0.00  0.00    +0.000 C 
BRANCH  13  14
ATOM     14  C   UNL     1      45.266   7.081  11.369  0.00  0.00    +0.000 C 
BRANCH  14  19
ATOM     15  C   UNL     1      44.059   3.543  10.585  0.00  0.00    +0.000 A 
ATOM     16  C   UNL     1      43.360   3.230  11.752  0.00  0.00    +0.000 A 
ATOM     17  C   UNL     1      43.262   4.170  12.781  0.00  0.00    +0.000 A 
ATOM     18  C   UNL     1      43.862   5.421  12.654  0.00  0.00    +0.000 A 
ATOM     19  C   UNL     1      44.560   5.752  11.489  0.00  0.00    +0.000 A 
ATOM     20  C   UNL     1      44.652   4.804  10.460  0.00  0.00    +0.000 A 
BRANCH  15  22
ATOM     21  C   UNL     1      45.161   3.152   8.515  0.00  0.00    +0.000 C 
ATOM     22  O   UNL     1      44.242   2.716   9.511  0.00  0.00    +0.000 OA
ENDBRANCH  15  22
ENDBRANCH  14  19
ENDBRANCH  13  14
ENDBRANCH   1  13
TORSDOF 7
ENDMDL
MODEL 8
REMARK VINA RESULT:    -5.940      1.910      3.485
REMARK INTER + INTRA:          -8.754
REMARK INTER:                  -8.139
REMARK INTRA:                  -0.615
REMARK UNBOUND:                -0.556
REMARK  Name = 
REMARK  9 active torsions:
REMARK  status: ('A' for Active; 'I' for Inactive)
REMARK    1  A    between atoms: C_1  and  O_2
REMARK    2  A    between atoms: O_2  and  C_3
REMARK    3  A    between atoms: C_7  and  C_8
REMARK    4  A    between atoms: C_8  and  C_9
REMARK    5  A    between atoms: C_9  and  C_10
REMARK    6  A    between atoms: C_10  and  C_11
REMARK    7  A    between atoms: C_14  and  C_15
REMARK    8  A    between atoms: C_16  and  C_17
REMARK    9  A    between atoms: C_17  and  N_18
REMARK                            x       y       z     vdW  Elec       q    Type
REMARK                         _______ _______ _______ _____ _____    ______ ____
ROOT
ATOM      1  C   UNL     1      48.294   6.653  13.473  0.00  0.00    +0.000 C 
ENDROOT
BRANCH   1   2
ATOM      2  C   UNL     1      48.400   6.396  14.954  0.00  0.00    +0.000 A 
ATOM      3  C   UNL     1      48.789   7.408  15.821  0.00  0.00    +0.000 A 
ATOM      4  C   UNL     1      48.946   7.107  17.168  0.00  0.00    +0.000 A 
ATOM      5  C   UNL     1      48.708   5.808  17.632  0.00  0.00    +0.000 A 
ATOM      6  C   UNL     1      48.903   5.496  19.086  0.00  0.00    +0.000 C 
ATOM      7  C   UNL     1      48.312   4.843  16.695  0.00  0.00    +0.000 A 
ATOM      8  N   UNL     1      48.167   5.131  15.372  0.00  0.00    +0.000 NA
BRANCH   7   9
ATOM      9  C   UNL     1      47.982   3.414  17.085  0.00  0.00    +0.000 C 
BRANCH   9  10
ATOM     10  N   UNL     1      46.586   3.204  17.484  0.00  0.00    +0.000 NA
ATOM     11  H   UNL     1      46.151   4.124  17.574  0.00  0.00    +0.000 HD
ATOM     12  H   UNL     1      46.578   2.798  18.417  0.00  0.00    +0.000 HD
ENDBRANCH   9  10
ENDBRANCH   7   9
ENDBRANCH   1   2
BRANCH   1  13
ATOM     13  C   UNL     1      46.839   6.920  13.091  0.00  0.00    +0.000 C 
BRANCH  13  14
ATOM     14  C   UNL     1      46.510   6.403  11.692  0.00  0.00    +0.000 C 
BRANCH  14  19
ATOM     15  C   UNL     1      44.098   3.614  10.698  0.00  0.00    +0.000 A 
ATOM     16  C   UNL     1      43.383   3.439  11.883  0.00  0.00    +0.000 A 
ATOM     17  C   UNL     1      43.666   4.237  12.994  0.00  0.00    +0.000 A 
ATOM     18  C   UNL     1      44.663   5.207  12.931  0.00  0.00    +0.000 A 
ATOM     19  C   UNL     1      45.386   5.398  11.749  0.00  0.00    +0.000 A 
ATOM     20  C   UNL     1      45.094   4.594  10.637  0.00  0.00    +0.000 A 
BRANCH  15  22
ATOM     21  C   UNL     1      45.026   2.082   9.134  0.00  0.00    +0.000 C 
ATOM     22  O   UNL     1      43.933   2.896   9.545  0.00  0.00    +0.000 OA
ENDBRANCH  15  22
ENDBRANCH  14  19
ENDBRANCH  13  14
ENDBRANCH   1  13
TORSDOF 7
ENDMDL
MODEL 9
REMARK VINA RESULT:    -5.855      4.369      7.747
REMARK INTER + INTRA:          -8.636
REMARK INTER:                  -8.059
REMARK INTRA:                  -0.577
REMARK UNBOUND:                -0.556
REMARK  Name = 
REMARK  9 active torsions:
REMARK  status: ('A' for Active; 'I' for Inactive)
REMARK    1  A    between atoms: C_1  and  O_2
REMARK    2  A    between atoms: O_2  and  C_3
REMARK    3  A    between atoms: C_7  and  C_8
REMARK    4  A    between atoms: C_8  and  C_9
REMARK    5  A    between atoms: C_9  and  C_10
REMARK    6  A    between atoms: C_10  and  C_11
REMARK    7  A    between atoms: C_14  and  C_15
REMARK    8  A    between atoms: C_16  and  C_17
REMARK    9  A    between atoms: C_17  and  N_18
REMARK                            x       y       z     vdW  Elec       q    Type
REMARK                         _______ _______ _______ _____ _____    ______ ____
ROOT
ATOM      1  C   UNL     1      47.298   3.665  14.893  0.00  0.00    +0.000 C 
ENDROOT
BRANCH   1   2
ATOM      2  C   UNL     1      46.574   4.555  13.916  0.00  0.00    +0.000 A 
ATOM      3  C   UNL     1      47.221   5.634  13.330  0.00  0.00    +0.000 A 
ATOM      4  C   UNL     1      46.494   6.472  12.494  0.00  0.00    +0.000 A 
ATOM      5  C   UNL     1      45.139   6.219  12.248  0.00  0.00    +0.000 A 
ATOM      6  C   UNL     1      44.365   7.146  11.358  0.00  0.00    +0.000 C 
ATOM      7  C   UNL     1      44.559   5.106  12.872  0.00  0.00    +0.000 A 
ATOM      8  N   UNL     1      45.266   4.288  13.701  0.00  0.00    +0.000 NA
BRANCH   7   9
ATOM      9  C   UNL     1      43.114   4.704  12.647  0.00  0.00    +0.000 C 
BRANCH   9  10
ATOM     10  N   UNL     1      42.912   3.768  11.536  0.00  0.00    +0.000 NA
ATOM     11  H   UNL     1      43.834   3.531  11.163  0.00  0.00    +0.000 HD
ATOM     12  H   UNL     1      42.425   4.257  10.789  0.00  0.00    +0.000 HD
ENDBRANCH   9  10
ENDBRANCH   7   9
ENDBRANCH   1   2
BRANCH   1  13
ATOM     13  C   UNL     1      47.120   4.195  16.315  0.00  0.00    +0.000 C 
BRANCH  13  14
ATOM     14  C   UNL     1      47.548   3.170  17.365  0.00  0.00    +0.000 C 
BRANCH  14  19
ATOM     15  C   UNL     1      51.214   2.100  17.378  0.00  0.00    +0.000 A 
ATOM     16  C   UNL     1      51.840   3.281  17.779  0.00  0.00    +0.000 A 
ATOM     17  C   UNL     1      51.076   4.415  18.065  0.00  0.00    +0.000 A 
ATOM     18  C   UNL     1      49.688   4.378  17.949  0.00  0.00    +0.000 A 
ATOM     19  C   UNL     1      49.045   3.201  17.554  0.00  0.00    +0.000 A 
ATOM     20  C   UNL     1      49.820   2.066  17.271  0.00  0.00    +0.000 A 
BRANCH  15  22
ATOM     21  C   UNL     1      53.032   0.620  17.772  0.00  0.00    +0.000 C 
ATOM     22  O   UNL     1      51.841   0.926  17.057  0.00  0.00    +0.000 OA
ENDBRANCH  15  22
ENDBRANCH  14  19
ENDBRANCH  13  14
ENDBRANCH   1  13
TORSDOF 7
ENDMDL
