MODEL 1
REMARK VINA RESULT:    -8.139      0.000      0.000
REMARK INTER + INTRA:         -12.283
REMARK INTER:                 -11.470
REMARK INTRA:                  -0.813
REMARK UNBOUND:                -0.813
REMARK  Name = 
REMARK  7 active torsions:
REMARK  status: ('A' for Active; 'I' for Inactive)
REMARK    1  A    between atoms: C_2  and  C_20
REMARK    2  A    between atoms: N_3  and  C_4
REMARK    3  A    between atoms: C_4  and  C_5
REMARK    4  A    between atoms: C_8  and  C_9
REMARK    5  A    between atoms: C_9  and  O_10
REMARK    6  A    between atoms: O_10  and  C_11
REMARK    7  A    between atoms: C_11  and  C_12
REMARK                            x       y       z     vdW  Elec       q    Type
REMARK                         _______ _______ _______ _____ _____    ______ ____
ROOT
ATOM      1  C   UNL     1      47.898   6.379  14.083  0.00  0.00    +0.000 C 
ENDROOT
BRANCH   1   2
ATOM      2  C   UNL     1      46.775   5.871  13.216  0.00  0.00    +0.000 A 
ATOM      3  C   UNL     1      45.942   4.842  13.674  0.00  0.00    +0.000 A 
ATOM      4  C   UNL     1      44.895   4.367  12.881  0.00  0.00    +0.000 A 
ATOM      5  C   UNL     1      44.658   4.904  11.609  0.00  0.00    +0.000 A 
ATOM      6  C   UNL     1      45.511   5.911  11.136  0.00  0.00    +0.000 A 
ATOM      7  C   UNL     1      46.562   6.386  11.929  0.00  0.00    +0.000 A 
BRANCH   5   8
ATOM      8  C   UNL     1      43.511   4.398  10.771  0.00  0.00    +0.000 C 
BRANCH   8   9
ATOM      9  O   UNL     1      44.018   3.946   9.517  0.00  0.00    +0.000 OA
BRANCH   9  10
ATOM     10  C   UNL     1      44.664   2.675   9.638  0.00  0.00    +0.000 C 
BRANCH  10  11
ATOM     11  C   UNL     1      45.631   2.431   8.501  0.00  0.00    +0.000 A 
ATOM     12  C   UNL     1      46.024   3.467   7.655  0.00  0.00    +0.000 A 
ATOM     13  C   UNL     1      46.942   3.205   6.641  0.00  0.00    +0.000 A 
ATOM     14  C   UNL     1      47.453   1.922   6.502  0.00  0.00    +0.000 A 
ATOM     15  C   UNL     1      47.026   0.950   7.391  0.00  0.00    +0.000 A 
ATOM     16  N   UNL     1      46.137   1.175   8.384  0.00  0.00    +0.000 NA
ENDBRANCH  10  11
ENDBRANCH   9  10
ENDBRANCH   8   9
ENDBRANCH   5   8
ENDBRANCH   1   2
BRANCH   1  19
ATOM     17  O   UNL     1      49.998   6.379  15.941  0.00  0.00    +0.000 OA
ATOM     18  C   UNL     1      48.979   5.748  16.203  0.00  0.00    +0.000 C 
ATOM     19  N   UNL     1      47.886   5.731  15.369  0.00  0.00    +0.000 N 
ATOM     20  H   UNL     1      47.050   5.238  15.641  0.00  0.00    +0.000 HD
BRANCH  18  21
ATOM     21  C   UNL     1      48.851   4.921  17.406  0.00  0.00    +0.000 A 
ATOM     22  C   UNL     1      49.141   3.563  17.526  0.00  0.00    +0.000 A 
ATOM     23  N   UNL     1      48.990   3.197  18.838  0.00  0.00    +0.000 N 
ATOM     24  C   UNL     1      48.614   4.279  19.580  0.00  0.00    +0.000 A 
ATOM     25  N   UNL     1      48.446   4.249  20.913  0.00  0.00    +0.000 NA
ATOM     26  C   UNL     1      48.060   5.443  21.418  0.00  0.00    +0.000 A 
ATOM     27  C   UNL     1      47.809   6.590  20.677  0.00  0.00    +0.000 A 
ATOM     28  C   UNL     1      48.002   6.560  19.294  0.00  0.00    +0.000 A 
ATOM     29  C   UNL     1      48.453   5.357  18.718  0.00  0.00    +0.000 A 
ATOM     30  H   UNL     1      49.156   2.283  19.232  0.00  0.00    +0.000 HD
ENDBRANCH  18  21
ENDBRANCH   1  19
TORSDOF 7
ENDMDL
MODEL 2
REMARK VINA RESULT:    -7.960      1.355      1.931
REMARK INTER + INTRA:         -12.031
REMARK INTER:                 -10.850
REMARK INTRA:                  -1.181
REMARK UNBOUND:                -0.813
REMARK  Name = 
REMARK  7 active torsions:
REMARK  status: ('A' for Active; 'I' for Inactive)
REMARK    1  A    between atoms: C_2  and  C_20
REMARK    2  A    between atoms: N_3  and  C_4
REMARK    3  A    between atoms: C_4  and  C_5
REMARK    4  A    between atoms: C_8  and  C_9
REMARK    5  A    between atoms: C_9  and  O_10
REMARK    6  A    between atoms: O_10  and  C_11
REMARK    7  A    between atoms: C_11  and  C_12
REMARK                            x       y       z     vdW  Elec       q    Type
REMARK                         _______ _______ _______ _____ _____    ______ ____
ROOT
ATOM      1  C   UNL     1      47.303   7.469  13.337  0.00  0.00    +0.000 C 
ENDROOT
BRANCH   1   2
ATOM      2  C   UNL     1      46.439   6.374  12.762  0.00  0.00    +0.000 A 
ATOM      3  C   UNL     1      46.045   5.295  13.564  0.00  0.00    +0.000 A 
ATOM      4  C   UNL     1      45.240   4.279  13.043  0.00  0.00    +0.000 A 
ATOM      5  C   UNL     1      44.817   4.313  11.708  0.00  0.00    +0.000 A 
ATOM      6  C   UNL     1      45.239   5.375  10.896  0.00  0.00    +0.000 A 
ATOM      7  C   UNL     1      46.046   6.393  11.417  0.00  0.00    +0.000 A 
BRANCH   5   8
ATOM      8  C   UNL     1      43.931   3.220  11.163  0.00  0.00    +0.000 C 
BRANCH   8   9
ATOM      9  O   UNL     1      44.006   3.231   9.739  0.00  0.00    +0.000 OA
BRANCH   9  10
ATOM     10  C   UNL     1      44.465   1.976   9.227  0.00  0.00    +0.000 C 
BRANCH  10  11
ATOM     11  C   UNL     1      45.627   2.155   8.274  0.00  0.00    +0.000 A 
ATOM     12  C   UNL     1      45.891   3.390   7.685  0.00  0.00    +0.000 A 
ATOM     13  C   UNL     1      46.991   3.517   6.840  0.00  0.00    +0.000 A 
ATOM     14  C   UNL     1      47.805   2.417   6.613  0.00  0.00    +0.000 A 
ATOM     15  C   UNL     1      47.487   1.228   7.248  0.00  0.00    +0.000 A 
ATOM     16  N   UNL     1      46.427   1.074   8.073  0.00  0.00    +0.000 NA
ENDBRANCH  10  11
ENDBRANCH   9  10
ENDBRANCH   8   9
ENDBRANCH   5   8
ENDBRANCH   1   2
BRANCH   1  19
ATOM     17  O   UNL     1      49.973   7.116  14.116  0.00  0.00    +0.000 OA
ATOM     18  C   UNL     1      49.087   6.928  14.945  0.00  0.00    +0.000 C 
ATOM     19  N   UNL     1      47.756   7.122  14.659  0.00  0.00    +0.000 N 
ATOM     20  H   UNL     1      47.062   7.001  15.380  0.00  0.00    +0.000 HD
BRANCH  18  21
ATOM     21  C   UNL     1      49.364   6.439  16.298  0.00  0.00    +0.000 A 
ATOM     22  C   UNL     1      50.099   7.087  17.289  0.00  0.00    +0.000 A 
ATOM     23  N   UNL     1      50.030   6.346  18.440  0.00  0.00    +0.000 N 
ATOM     24  C   UNL     1      49.268   5.234  18.230  0.00  0.00    +0.000 A 
ATOM     25  N   UNL     1      48.966   4.341  19.188  0.00  0.00    +0.000 NA
ATOM     26  C   UNL     1      48.207   3.320  18.731  0.00  0.00    +0.000 A 
ATOM     27  C   UNL     1      47.796   3.144  17.418  0.00  0.00    +0.000 A 
ATOM     28  C   UNL     1      48.140   4.106  16.465  0.00  0.00    +0.000 A 
ATOM     29  C   UNL     1      48.887   5.220  16.894  0.00  0.00    +0.000 A 
ATOM     30  H   UNL     1      50.443   6.577  19.332  0.00  0.00    +0.000 HD
ENDBRANCH  18  21
ENDBRANCH   1  19
TORSDOF 7
ENDMDL
MODEL 3
REMARK VINA RESULT:    -7.441      4.163      6.994
REMARK INTER + INTRA:         -11.299
REMARK INTER:                 -10.658
REMARK INTRA:                  -0.641
REMARK UNBOUND:                -0.813
REMARK  Name = 
REMARK  7 active torsions:
REMARK  status: ('A' for Active; 'I' for Inactive)
REMARK    1  A    between atoms: C_2  and  C_20
REMARK    2  A    between atoms: N_3  and  C_4
REMARK    3  A    between atoms: C_4  and  C_5
REMARK    4  A    between atoms: C_8  and  C_9
REMARK    5  A    between atoms: C_9  and  O_10
REMARK    6  A    between atoms: O_10  and  C_11
REMARK    7  A    between atoms: C_11  and  C_12
REMARK                            x       y       z     vdW  Elec       q    Type
REMARK                         _______ _______ _______ _____ _____    ______ ____
ROOT
ATOM      1  C   UNL     1      44.847   2.756   9.860  0.00  0.00    +0.000 C 
ENDROOT
BRANCH   1   2
ATOM      2  C   UNL     1      45.580   2.531   8.561  0.00  0.00    +0.000 A 
ATOM      3  C   UNL     1      45.608   3.537   7.586  0.00  0.00    +0.000 A 
ATOM      4  C   UNL     1      46.289   3.342   6.382  0.00  0.00    +0.000 A 
ATOM      5  C   UNL     1      46.951   2.135   6.120  0.00  0.00    +0.000 A 
ATOM      6  C   UNL     1      46.895   1.116   7.081  0.00  0.00    +0.000 A 
ATOM      7  C   UNL     1      46.212   1.310   8.288  0.00  0.00    +0.000 A 
BRANCH   5   8
ATOM      8  C   UNL     1      47.700   1.945   4.825  0.00  0.00    +0.000 C 
BRANCH   8   9
ATOM      9  O   UNL     1      47.829   0.548   4.566  0.00  0.00    +0.000 OA
BRANCH   9  10
ATOM     10  C   UNL     1      46.947   0.122   3.524  0.00  0.00    +0.000 C 
BRANCH  10  11
ATOM     11  C   UNL     1      47.199  -1.317   3.134  0.00  0.00    +0.000 A 
ATOM     12  C   UNL     1      46.280  -2.318   3.445  0.00  0.00    +0.000 A 
ATOM     13  C   UNL     1      46.537  -3.625   3.036  0.00  0.00    +0.000 A 
ATOM     14  C   UNL     1      47.694  -3.899   2.321  0.00  0.00    +0.000 A 
ATOM     15  C   UNL     1      48.550  -2.849   2.038  0.00  0.00    +0.000 A 
ATOM     16  N   UNL     1      48.327  -1.571   2.420  0.00  0.00    +0.000 NA
ENDBRANCH  10  11
ENDBRANCH   9  10
ENDBRANCH   8   9
ENDBRANCH   5   8
ENDBRANCH   1   2
BRANCH   1  19
ATOM     17  O   UNL     1      45.286   3.448  12.541  0.00  0.00    +0.000 OA
ATOM     18  C   UNL     1      45.251   4.341  11.700  0.00  0.00    +0.000 C 
ATOM     19  N   UNL     1      45.086   4.086  10.359  0.00  0.00    +0.000 N 
ATOM     20  H   UNL     1      45.110   4.842   9.694  0.00  0.00    +0.000 HD
BRANCH  18  21
ATOM     21  C   UNL     1      45.341   5.760  12.052  0.00  0.00    +0.000 A 
ATOM     22  C   UNL     1      44.359   6.733  11.871  0.00  0.00    +0.000 A 
ATOM     23  N   UNL     1      44.796   7.905  12.430  0.00  0.00    +0.000 N 
ATOM     24  C   UNL     1      46.034   7.725  12.975  0.00  0.00    +0.000 A 
ATOM     25  N   UNL     1      46.700   8.679  13.649  0.00  0.00    +0.000 NA
ATOM     26  C   UNL     1      47.911   8.262  14.083  0.00  0.00    +0.000 A 
ATOM     27  C   UNL     1      48.469   7.013  13.846  0.00  0.00    +0.000 A 
ATOM     28  C   UNL     1      47.727   6.063  13.139  0.00  0.00    +0.000 A 
ATOM     29  C   UNL     1      46.437   6.423  12.706  0.00  0.00    +0.000 A 
ATOM     30  H   UNL     1      44.290   8.777  12.475  0.00  0.00    +0.000 HD
ENDBRANCH  18  21
ENDBRANCH   1  19
TORSDOF 7
ENDMDL
MODEL 4
REMARK VINA RESULT:    -7.414      1.563      2.277
REMARK INTER + INTRA:         -11.262
REMARK INTER:                 -10.534
REMARK INTRA:                  -0.728
REMARK UNBOUND:                -0.813
REMARK  Name = 
REMARK  7 active torsions:
REMARK  status: ('A' for Active; 'I' for Inactive)
REMARK    1  A    between atoms: C_2  and  C_20
REMARK    2  A    between atoms: N_3  and  C_4
REMARK    3  A    between atoms: C_4  and  C_5
REMARK    4  A    between atoms: C_8  and  C_9
REMARK    5  A    between atoms: C_9  and  O_10
REMARK    6  A    between atoms: O_10  and  C_11
REMARK    7  A    between atoms: C_11  and  C_12
REMARK                            x       y       z     vdW  Elec       q    Type
REMARK                         _______ _______ _______ _____ _____    ______ ____
ROOT
ATOM      1  C   UNL     1      47.636   6.656  13.978  0.00  0.00    +0.000 C 
ENDROOT
BRANCH   1   2
ATOM      2  C   UNL     1      46.609   5.948  13.131  0.00  0.00    +0.000 A 
ATOM      3  C   UNL     1      46.179   4.661  13.476  0.00  0.00    +0.000 A 
ATOM      4  C   UNL     1      45.224   3.998  12.702  0.00  0.00    +0.000 A 
ATOM      5  C   UNL     1      44.682   4.602  11.560  0.00  0.00    +0.000 A 
ATOM      6  C   UNL     1      45.136   5.877  11.195  0.00  0.00    +0.000 A 
ATOM      7  C   UNL     1      46.094   6.541  11.970  0.00  0.00    +0.000 A 
BRANCH   5   8
ATOM      8  C   UNL     1      43.636   3.884  10.744  0.00  0.00    +0.000 C 
BRANCH   8   9
ATOM      9  O   UNL     1      44.185   3.564   9.467  0.00  0.00    +0.000 OA
BRANCH   9  10
ATOM     10  C   UNL     1      44.983   2.379   9.519  0.00  0.00    +0.000 C 
BRANCH  10  11
ATOM     11  C   UNL     1      45.817   2.212   8.268  0.00  0.00    +0.000 A 
ATOM     12  C   UNL     1      45.966   3.258   7.359  0.00  0.00    +0.000 A 
ATOM     13  C   UNL     1      46.770   3.071   6.236  0.00  0.00    +0.000 A 
ATOM     14  C   UNL     1      47.412   1.855   6.055  0.00  0.00    +0.000 A 
ATOM     15  C   UNL     1      47.228   0.871   7.011  0.00  0.00    +0.000 A 
ATOM     16  N   UNL     1      46.454   1.022   8.109  0.00  0.00    +0.000 NA
ENDBRANCH  10  11
ENDBRANCH   9  10
ENDBRANCH   8   9
ENDBRANCH   5   8
ENDBRANCH   1   2
BRANCH   1  19
ATOM     17  O   UNL     1      48.712   7.443  16.445  0.00  0.00    +0.000 OA
ATOM     18  C   UNL     1      48.711   6.251  16.156  0.00  0.00    +0.000 C 
ATOM     19  N   UNL     1      48.162   5.774  14.988  0.00  0.00    +0.000 N 
ATOM     20  H   UNL     1      48.139   4.784  14.808  0.00  0.00    +0.000 HD
BRANCH  18  21
ATOM     21  C   UNL     1      49.329   5.232  17.008  0.00  0.00    +0.000 A 
ATOM     22  C   UNL     1      48.684   4.193  17.677  0.00  0.00    +0.000 A 
ATOM     23  N   UNL     1      49.631   3.402  18.274  0.00  0.00    +0.000 N 
ATOM     24  C   UNL     1      50.877   3.892  18.010  0.00  0.00    +0.000 A 
ATOM     25  N   UNL     1      52.014   3.298  18.410  0.00  0.00    +0.000 NA
ATOM     26  C   UNL     1      53.120   3.981  18.037  0.00  0.00    +0.000 A 
ATOM     27  C   UNL     1      53.131   5.189  17.353  0.00  0.00    +0.000 A 
ATOM     28  C   UNL     1      51.916   5.758  16.963  0.00  0.00    +0.000 A 
ATOM     29  C   UNL     1      50.732   5.065  17.280  0.00  0.00    +0.000 A 
ATOM     30  H   UNL     1      49.465   2.561  18.807  0.00  0.00    +0.000 HD
ENDBRANCH  18  21
ENDBRANCH   1  19
TORSDOF 7
ENDMDL
MODEL 5
REMARK VINA RESULT:    -7.228      4.004      6.483
REMARK INTER + INTRA:         -11.000
REMARK INTER:                 -10.053
REMARK INTRA:                  -0.946
REMARK UNBOUND:                -0.813
REMARK  Name = 
REMARK  7 active torsions:
REMARK  status: ('A' for Active; 'I' for Inactive)
REMARK    1  A    between atoms: C_2  and  C_20
REMARK    2  A    between atoms: N_3  and  C_4
REMARK    3  A    between atoms: C_4  and  C_5
REMARK    4  A    between atoms: C_8  and  C_9
REMARK    5  A    between atoms: C_9  and  O_10
REMARK    6  A    between atoms: O_10  and  C_11
REMARK    7  A    between atoms: C_11  and  C_12
REMARK                            x       y       z     vdW  Elec       q    Type
REMARK                         _______ _______ _______ _____ _____    ______ ____
ROOT
ATOM      1  C   UNL     1      48.233   6.807  13.417  0.00  0.00    +0.000 C 
ENDROOT
BRANCH   1   2
ATOM      2  C   UNL     1      47.053   6.132  12.765  0.00  0.00    +0.000 A 
ATOM      3  C   UNL     1      46.414   5.061  13.402  0.00  0.00    +0.000 A 
ATOM      4  C   UNL     1      45.316   4.433  12.810  0.00  0.00    +0.000 A 
ATOM      5  C   UNL     1      44.836   4.854  11.563  0.00  0.00    +0.000 A 
ATOM      6  C   UNL     1      45.495   5.905  10.909  0.00  0.00    +0.000 A 
ATOM      7  C   UNL     1      46.596   6.534  11.502  0.00  0.00    +0.000 A 
BRANCH   5   8
ATOM      8  C   UNL     1      43.636   4.181  10.943  0.00  0.00    +0.000 C 
BRANCH   8   9
ATOM      9  O   UNL     1      43.958   3.804   9.606  0.00  0.00    +0.000 OA
BRANCH   9  10
ATOM     10  C   UNL     1      44.531   2.495   9.553  0.00  0.00    +0.000 C 
BRANCH  10  11
ATOM     11  C   UNL     1      45.564   2.383   8.453  0.00  0.00    +0.000 A 
ATOM     12  C   UNL     1      45.910   3.488   7.676  0.00  0.00    +0.000 A 
ATOM     13  C   UNL     1      46.891   3.348   6.697  0.00  0.00    +0.000 A 
ATOM     14  C   UNL     1      47.508   2.117   6.524  0.00  0.00    +0.000 A 
ATOM     15  C   UNL     1      47.122   1.072   7.345  0.00  0.00    +0.000 A 
ATOM     16  N   UNL     1      46.174   1.178   8.303  0.00  0.00    +0.000 NA
ENDBRANCH  10  11
ENDBRANCH   9  10
ENDBRANCH   8   9
ENDBRANCH   5   8
ENDBRANCH   1   2
BRANCH   1  19
ATOM     17  O   UNL     1      50.747   7.956  13.884  0.00  0.00    +0.000 OA
ATOM     18  C   UNL     1      50.263   8.036  12.759  0.00  0.00    +0.000 C 
ATOM     19  N   UNL     1      49.056   7.462  12.433  0.00  0.00    +0.000 N 
ATOM     20  H   UNL     1      48.714   7.509  11.487  0.00  0.00    +0.000 HD
BRANCH  18  21
ATOM     21  C   UNL     1      50.904   8.784  11.675  0.00  0.00    +0.000 A 
ATOM     22  C   UNL     1      50.863  10.162  11.468  0.00  0.00    +0.000 A 
ATOM     23  N   UNL     1      51.677  10.470  10.410  0.00  0.00    +0.000 N 
ATOM     24  C   UNL     1      52.253   9.333   9.922  0.00  0.00    +0.000 A 
ATOM     25  N   UNL     1      53.150   9.319   8.921  0.00  0.00    +0.000 NA
ATOM     26  C   UNL     1      53.566   8.070   8.610  0.00  0.00    +0.000 A 
ATOM     27  C   UNL     1      53.114   6.898   9.200  0.00  0.00    +0.000 A 
ATOM     28  C   UNL     1      52.181   6.976  10.237  0.00  0.00    +0.000 A 
ATOM     29  C   UNL     1      51.749   8.255  10.639  0.00  0.00    +0.000 A 
ATOM     30  H   UNL     1      51.868  11.391  10.044  0.00  0.00    +0.000 HD
ENDBRANCH  18  21
ENDBRANCH   1  19
TORSDOF 7
ENDMDL
MODEL 6
REMARK VINA RESULT:    -7.205      2.229      8.817
REMARK INTER + INTRA:         -10.967
REMARK INTER:                 -10.157
REMARK INTRA:                  -0.809
REMARK UNBOUND:                -0.813
REMARK  Name = 
REMARK  7 active torsions:
REMARK  status: ('A' for Active; 'I' for Inactive)
REMARK    1  A    between atoms: C_2  and  C_20
REMARK    2  A    between atoms: N_3  and  C_4
REMARK    3  A    between atoms: C_4  and  C_5
REMARK    4  A    between atoms: C_8  and  C_9
REMARK    5  A    between atoms: C_9  and  O_10
REMARK    6  A    between atoms: O_10  and  C_11
REMARK    7  A    between atoms: C_11  and  C_12
REMARK                            x       y       z     vdW  Elec       q    Type
REMARK                         _______ _______ _______ _____ _____    ______ ____
ROOT
ATOM      1  C   UNL     1      45.576   7.950  12.005  0.00  0.00    +0.000 C 
ENDROOT
BRANCH   1   2
ATOM      2  C   UNL     1      46.874   7.900  12.771  0.00  0.00    +0.000 A 
ATOM      3  C   UNL     1      47.086   8.763  13.854  0.00  0.00    +0.000 A 
ATOM      4  C   UNL     1      48.282   8.721  14.575  0.00  0.00    +0.000 A 
ATOM      5  C   UNL     1      49.298   7.822  14.225  0.00  0.00    +0.000 A 
ATOM      6  C   UNL     1      49.101   6.982  13.120  0.00  0.00    +0.000 A 
ATOM      7  C   UNL     1      47.902   7.024  12.398  0.00  0.00    +0.000 A 
BRANCH   5   8
ATOM      8  C   UNL     1      50.577   7.772  15.023  0.00  0.00    +0.000 C 
BRANCH   8   9
ATOM      9  O   UNL     1      50.671   6.503  15.666  0.00  0.00    +0.000 OA
BRANCH   9  10
ATOM     10  C   UNL     1      49.969   6.491  16.912  0.00  0.00    +0.000 C 
BRANCH  10  11
ATOM     11  C   UNL     1      49.123   5.246  17.063  0.00  0.00    +0.000 A 
ATOM     12  C   UNL     1      49.305   4.378  18.138  0.00  0.00    +0.000 A 
ATOM     13  C   UNL     1      48.481   3.261  18.256  0.00  0.00    +0.000 A 
ATOM     14  C   UNL     1      47.492   3.043  17.308  0.00  0.00    +0.000 A 
ATOM     15  C   UNL     1      47.363   3.959  16.278  0.00  0.00    +0.000 A 
ATOM     16  N   UNL     1      48.146   5.051  16.138  0.00  0.00    +0.000 NA
ENDBRANCH  10  11
ENDBRANCH   9  10
ENDBRANCH   8   9
ENDBRANCH   5   8
ENDBRANCH   1   2
BRANCH   1  19
ATOM     17  O   UNL     1      43.979   6.008  13.246  0.00  0.00    +0.000 OA
ATOM     18  C   UNL     1      44.491   5.745  12.162  0.00  0.00    +0.000 C 
ATOM     19  N   UNL     1      45.251   6.655  11.465  0.00  0.00    +0.000 N 
ATOM     20  H   UNL     1      45.617   6.417  10.557  0.00  0.00    +0.000 HD
BRANCH  18  21
ATOM     21  C   UNL     1      44.376   4.427  11.534  0.00  0.00    +0.000 A 
ATOM     22  C   UNL     1      43.744   3.300  12.059  0.00  0.00    +0.000 A 
ATOM     23  N   UNL     1      43.766   2.307  11.115  0.00  0.00    +0.000 N 
ATOM     24  C   UNL     1      44.390   2.754   9.986  0.00  0.00    +0.000 A 
ATOM     25  N   UNL     1      44.513   2.028   8.862  0.00  0.00    +0.000 NA
ATOM     26  C   UNL     1      45.180   2.684   7.886  0.00  0.00    +0.000 A 
ATOM     27  C   UNL     1      45.734   3.952   7.998  0.00  0.00    +0.000 A 
ATOM     28  C   UNL     1      45.572   4.659   9.192  0.00  0.00    +0.000 A 
ATOM     29  C   UNL     1      44.841   4.045  10.228  0.00  0.00    +0.000 A 
ATOM     30  H   UNL     1      43.362   1.386  11.199  0.00  0.00    +0.000 HD
ENDBRANCH  18  21
ENDBRANCH   1  19
TORSDOF 7
ENDMDL
MODEL 7
REMARK VINA RESULT:    -7.140      2.400      3.321
REMARK INTER + INTRA:         -10.876
REMARK INTER:                 -10.026
REMARK INTRA:                  -0.850
REMARK UNBOUND:                -0.813
REMARK  Name = 
REMARK  7 active torsions:
REMARK  status: ('A' for Active; 'I' for Inactive)
REMARK    1  A    between atoms: C_2  and  C_20
REMARK    2  A    between atoms: N_3  and  C_4
REMARK    3  A    between atoms: C_4  and  C_5
REMARK    4  A    between atoms: C_8  and  C_9
REMARK    5  A    between atoms: C_9  and  O_10
REMARK    6  A    between atoms: O_10  and  C_11
REMARK    7  A    between atoms: C_11  and  C_12
REMARK                            x       y       z     vdW  Elec       q    Type
REMARK                         _______ _______ _______ _____ _____    ______ ____
ROOT
ATOM      1  C   UNL     1      47.756   5.156  14.678  0.00  0.00    +0.000 C 
ENDROOT
BRANCH   1   2
ATOM      2  C   UNL     1      46.660   4.931  13.667  0.00  0.00    +0.000 A 
ATOM      3  C   UNL     1      46.313   3.630  13.283  0.00  0.00    +0.000 A 
ATOM      4  C   UNL     1      45.294   3.410  12.352  0.00  0.00    +0.000 A 
ATOM      5  C   UNL     1      44.605   4.486  11.777  0.00  0.00    +0.000 A 
ATOM      6  C   UNL     1      44.974   5.790  12.136  0.00  0.00    +0.000 A 
ATOM      7  C   UNL     1      45.995   6.011  13.068  0.00  0.00    +0.000 A 
BRANCH   5   8
ATOM      8  C   UNL     1      43.493   4.235  10.789  0.00  0.00    +0.000 C 
BRANCH   8   9
ATOM      9  O   UNL     1      43.977   3.380   9.756  0.00  0.00    +0.000 OA
BRANCH   9  10
ATOM     10  C   UNL     1      44.728   4.108   8.779  0.00  0.00    +0.000 C 
BRANCH  10  11
ATOM     11  C   UNL     1      45.675   3.207   8.018  0.00  0.00    +0.000 A 
ATOM     12  C   UNL     1      45.925   1.904   8.444  0.00  0.00    +0.000 A 
ATOM     13  C   UNL     1      46.779   1.097   7.694  0.00  0.00    +0.000 A 
ATOM     14  C   UNL     1      47.351   1.605   6.536  0.00  0.00    +0.000 A 
ATOM     15  C   UNL     1      47.040   2.904   6.170  0.00  0.00    +0.000 A 
ATOM     16  N   UNL     1      46.216   3.709   6.877  0.00  0.00    +0.000 NA
ENDBRANCH  10  11
ENDBRANCH   9  10
ENDBRANCH   8   9
ENDBRANCH   5   8
ENDBRANCH   1   2
BRANCH   1  19
ATOM     17  O   UNL     1      49.986   6.847  14.854  0.00  0.00    +0.000 OA
ATOM     18  C   UNL     1      48.898   7.263  15.241  0.00  0.00    +0.000 C 
ATOM     19  N   UNL     1      47.747   6.517  15.149  0.00  0.00    +0.000 N 
ATOM     20  H   UNL     1      46.865   6.911  15.435  0.00  0.00    +0.000 HD
BRANCH  18  21
ATOM     21  C   UNL     1      48.735   8.575  15.873  0.00  0.00    +0.000 A 
ATOM     22  C   UNL     1      48.944   9.821  15.285  0.00  0.00    +0.000 A 
ATOM     23  N   UNL     1      48.579  10.794  16.179  0.00  0.00    +0.000 N 
ATOM     24  C   UNL     1      48.133  10.218  17.333  0.00  0.00    +0.000 A 
ATOM     25  N   UNL     1      47.648  10.912  18.377  0.00  0.00    +0.000 NA
ATOM     26  C   UNL     1      47.281  10.118  19.408  0.00  0.00    +0.000 A 
ATOM     27  C   UNL     1      47.411   8.737  19.450  0.00  0.00    +0.000 A 
ATOM     28  C   UNL     1      47.922   8.070  18.333  0.00  0.00    +0.000 A 
ATOM     29  C   UNL     1      48.274   8.841  17.209  0.00  0.00    +0.000 A 
ATOM     30  H   UNL     1      48.595  11.791  16.026  0.00  0.00    +0.000 HD
ENDBRANCH  18  21
ENDBRANCH   1  19
TORSDOF 7
ENDMDL
MODEL 8
REMARK VINA RESULT:    -6.983      2.229      8.849
REMARK INTER + INTRA:         -10.653
REMARK INTER:                  -9.321
REMARK INTRA:                  -1.332
REMARK UNBOUND:                -0.813
REMARK  Name = 
REMARK  7 active torsions:
REMARK  status: ('A' for Active; 'I' for Inactive)
REMARK    1  A    between atoms: C_2  and  C_20
REMARK    2  A    between atoms: N_3  and  C_4
REMARK    3  A    between atoms: C_4  and  C_5
REMARK    4  A    between atoms: C_8  and  C_9
REMARK    5  A    between atoms: C_9  and  O_10
REMARK    6  A    between atoms: O_10  and  C_11
REMARK    7  A    between atoms: C_11  and  C_12
REMARK                            x       y       z     vdW  Elec       q    Type
REMARK                         _______ _______ _______ _____ _____    ______ ____
ROOT
ATOM      1  C   UNL     1      47.676   8.039  12.402  0.00  0.00    +0.000 C 
ENDROOT
BRANCH   1   2
ATOM      2  C   UNL     1      48.217   7.986  13.808  0.00  0.00    +0.000 A 
ATOM      3  C   UNL     1      47.879   8.984  14.731  0.00  0.00    +0.000 A 
ATOM      4  C   UNL     1      48.370   8.941  16.038  0.00  0.00    +0.000 A 
ATOM      5  C   UNL     1      49.217   7.905  16.452  0.00  0.00    +0.000 A 
ATOM      6  C   UNL     1      49.584   6.924  15.519  0.00  0.00    +0.000 A 
ATOM      7  C   UNL     1      49.093   6.967  14.209  0.00  0.00    +0.000 A 
BRANCH   5   8
ATOM      8  C   UNL     1      49.724   7.859  17.872  0.00  0.00    +0.000 C 
BRANCH   8   9
ATOM      9  O   UNL     1      48.657   7.464  18.731  0.00  0.00    +0.000 OA
BRANCH   9  10
ATOM     10  C   UNL     1      48.939   6.223  19.383  0.00  0.00    +0.000 C 
BRANCH  10  11
ATOM     11  C   UNL     1      48.653   5.042  18.482  0.00  0.00    +0.000 A 
ATOM     12  C   UNL     1      49.630   4.083  18.219  0.00  0.00    +0.000 A 
ATOM     13  C   UNL     1      49.312   2.995  17.411  0.00  0.00    +0.000 A 
ATOM     14  C   UNL     1      48.030   2.883  16.894  0.00  0.00    +0.000 A 
ATOM     15  C   UNL     1      47.110   3.867  17.212  0.00  0.00    +0.000 A 
ATOM     16  N   UNL     1      47.388   4.934  17.994  0.00  0.00    +0.000 NA
ENDBRANCH  10  11
ENDBRANCH   9  10
ENDBRANCH   8   9
ENDBRANCH   5   8
ENDBRANCH   1   2
BRANCH   1  19
ATOM     17  O   UNL     1      45.029   7.215  12.824  0.00  0.00    +0.000 OA
ATOM     18  C   UNL     1      45.816   6.429  12.304  0.00  0.00    +0.000 C 
ATOM     19  N   UNL     1      47.118   6.767  12.020  0.00  0.00    +0.000 N 
ATOM     20  H   UNL     1      47.720   6.110  11.551  0.00  0.00    +0.000 HD
BRANCH  18  21
ATOM     21  C   UNL     1      45.451   5.048  11.977  0.00  0.00    +0.000 A 
ATOM     22  C   UNL     1      45.139   4.028  12.875  0.00  0.00    +0.000 A 
ATOM     23  N   UNL     1      44.750   2.923  12.164  0.00  0.00    +0.000 N 
ATOM     24  C   UNL     1      44.795   3.193  10.826  0.00  0.00    +0.000 A 
ATOM     25  N   UNL     1      44.413   2.325   9.874  0.00  0.00    +0.000 NA
ATOM     26  C   UNL     1      44.562   2.820   8.625  0.00  0.00    +0.000 A 
ATOM     27  C   UNL     1      45.087   4.065   8.307  0.00  0.00    +0.000 A 
ATOM     28  C   UNL     1      45.467   4.925   9.340  0.00  0.00    +0.000 A 
ATOM     29  C   UNL     1      45.287   4.482  10.665  0.00  0.00    +0.000 A 
ATOM     30  H   UNL     1      44.442   2.040  12.542  0.00  0.00    +0.000 HD
ENDBRANCH  18  21
ENDBRANCH   1  19
TORSDOF 7
ENDMDL
MODEL 9
REMARK VINA RESULT:    -6.849      1.814      2.424
REMARK INTER + INTRA:         -10.465
REMARK INTER:                  -9.626
REMARK INTRA:                  -0.839
REMARK UNBOUND:                -0.813
REMARK  Name = 
REMARK  7 active torsions:
REMARK  status: ('A' for Active; 'I' for Inactive)
REMARK    1  A    between atoms: C_2  and  C_20
REMARK    2  A    between atoms: N_3  and  C_4
REMARK    3  A    between atoms: C_4  and  C_5
REMARK    4  A    between atoms: C_8  and  C_9
REMARK    5  A    between atoms: C_9  and  O_10
REMARK    6  A    between atoms: O_10  and  C_11
REMARK    7  A    between atoms: C_11  and  C_12
REMARK                            x       y       z     vdW  Elec       q    Type
REMARK                         _______ _______ _______ _____ _____    ______ ____
ROOT
ATOM      1  C   UNL     1      47.463   4.117  15.648  0.00  0.00    +0.000 C 
ENDROOT
BRANCH   1   2
ATOM      2  C   UNL     1      46.874   4.458  14.302  0.00  0.00    +0.000 A 
ATOM      3  C   UNL     1      46.271   3.462  13.524  0.00  0.00    +0.000 A 
ATOM      4  C   UNL     1      45.717   3.769  12.279  0.00  0.00    +0.000 A 
ATOM      5  C   UNL     1      45.759   5.077  11.779  0.00  0.00    +0.000 A 
ATOM      6  C   UNL     1      46.392   6.068  12.542  0.00  0.00    +0.000 A 
ATOM      7  C   UNL     1      46.948   5.761  13.789  0.00  0.00    +0.000 A 
BRANCH   5   8
ATOM      8  C   UNL     1      45.139   5.400  10.442  0.00  0.00    +0.000 C 
BRANCH   8   9
ATOM      9  O   UNL     1      44.385   4.273   9.998  0.00  0.00    +0.000 OA
BRANCH   9  10
ATOM     10  C   UNL     1      44.371   4.180   8.571  0.00  0.00    +0.000 C 
BRANCH  10  11
ATOM     11  C   UNL     1      45.477   3.282   8.060  0.00  0.00    +0.000 A 
ATOM     12  C   UNL     1      45.599   1.967   8.503  0.00  0.00    +0.000 A 
ATOM     13  C   UNL     1      46.612   1.166   7.981  0.00  0.00    +0.000 A 
ATOM     14  C   UNL     1      47.469   1.691   7.025  0.00  0.00    +0.000 A 
ATOM     15  C   UNL     1      47.274   3.002   6.623  0.00  0.00    +0.000 A 
ATOM     16  N   UNL     1      46.301   3.802   7.112  0.00  0.00    +0.000 NA
ENDBRANCH  10  11
ENDBRANCH   9  10
ENDBRANCH   8   9
ENDBRANCH   5   8
ENDBRANCH   1   2
BRANCH   1  19
ATOM     17  O   UNL     1      49.479   4.479  17.561  0.00  0.00    +0.000 OA
ATOM     18  C   UNL     1      48.671   5.384  17.378  0.00  0.00    +0.000 C 
ATOM     19  N   UNL     1      47.679   5.307  16.429  0.00  0.00    +0.000 N 
ATOM     20  H   UNL     1      47.064   6.090  16.276  0.00  0.00    +0.000 HD
BRANCH  18  21
ATOM     21  C   UNL     1      48.663   6.609  18.182  0.00  0.00    +0.000 A 
ATOM     22  C   UNL     1      49.025   7.889  17.764  0.00  0.00    +0.000 A 
ATOM     23  N   UNL     1      48.774   8.770  18.782  0.00  0.00    +0.000 N 
ATOM     24  C   UNL     1      48.253   8.103  19.854  0.00  0.00    +0.000 A 
ATOM     25  N   UNL     1      47.849   8.705  20.985  0.00  0.00    +0.000 NA
ATOM     26  C   UNL     1      47.381   7.830  21.904  0.00  0.00    +0.000 A 
ATOM     27  C   UNL     1      47.343   6.450  21.760  0.00  0.00    +0.000 A 
ATOM     28  C   UNL     1      47.778   5.882  20.560  0.00  0.00    +0.000 A 
ATOM     29  C   UNL     1      48.228   6.749  19.545  0.00  0.00    +0.000 A 
ATOM     30  H   UNL     1      48.911   9.769  18.763  0.00  0.00    +0.000 HD
ENDBRANCH  18  21
ENDBRANCH   1  19
TORSDOF 7
ENDMDL
