MODEL 1
REMARK VINA RESULT:    -7.914      0.000      0.000
REMARK INTER + INTRA:         -12.272
REMARK INTER:                 -11.153
REMARK INTRA:                  -1.119
REMARK UNBOUND:                -1.119
REMARK  Name = 
REMARK  7 active torsions:
REMARK  status: ('A' for Active; 'I' for Inactive)
REMARK    1  A    between atoms: C_2  and  C_20
REMARK    2  A    between atoms: N_3  and  C_4
REMARK    3  A    between atoms: C_4  and  C_5
REMARK    4  A    between atoms: C_8  and  O_9
REMARK    5  A    between atoms: O_9  and  C_10
REMARK    6  A    between atoms: C_10  and  C_11
REMARK    7  A    between atoms: C_11  and  C_12
REMARK                            x       y       z     vdW  Elec       q    Type
REMARK                         _______ _______ _______ _____ _____    ______ ____
ROOT
ATOM      1  C   UNL     1      46.418   7.391  12.782  0.00  0.00    +0.000 C 
ENDROOT
BRANCH   1   2
ATOM      2  C   UNL     1      45.799   6.211  12.076  0.00  0.00    +0.000 A 
ATOM      3  C   UNL     1      45.903   6.082  10.684  0.00  0.00    +0.000 A 
ATOM      4  C   UNL     1      45.357   4.975  10.022  0.00  0.00    +0.000 A 
ATOM      5  C   UNL     1      44.689   3.983  10.739  0.00  0.00    +0.000 A 
ATOM      6  C   UNL     1      44.542   4.129  12.120  0.00  0.00    +0.000 A 
ATOM      7  C   UNL     1      45.090   5.233  12.785  0.00  0.00    +0.000 A 
BRANCH   5   8
ATOM      8  O   UNL     1      44.106   2.867  10.194  0.00  0.00    +0.000 OA
BRANCH   8   9
ATOM      9  C   UNL     1      44.432   2.605   8.823  0.00  0.00    +0.000 C 
BRANCH   9  10
ATOM     10  C   UNL     1      45.704   1.760   8.765  0.00  0.00    +0.000 C 
BRANCH  10  11
ATOM     11  C   UNL     1      46.445   1.973   7.474  0.00  0.00    +0.000 A 
ATOM     12  C   UNL     1      47.398   1.059   7.031  0.00  0.00    +0.000 A 
ATOM     13  N   UNL     1      48.088   1.215   5.875  0.00  0.00    +0.000 NA
ATOM     14  C   UNL     1      47.784   2.324   5.165  0.00  0.00    +0.000 A 
ATOM     15  C   UNL     1      46.835   3.235   5.590  0.00  0.00    +0.000 A 
ATOM     16  N   UNL     1      46.147   3.080   6.747  0.00  0.00    +0.000 NA
ENDBRANCH  10  11
ENDBRANCH   9  10
ENDBRANCH   8   9
ENDBRANCH   5   8
ENDBRANCH   1   2
BRANCH   1  19
ATOM     17  O   UNL     1      49.023   6.481  13.194  0.00  0.00    +0.000 OA
ATOM     18  C   UNL     1      48.295   6.639  14.167  0.00  0.00    +0.000 C 
ATOM     19  N   UNL     1      46.978   7.018  14.054  0.00  0.00    +0.000 N 
ATOM     20  H   UNL     1      46.484   7.338  14.879  0.00  0.00    +0.000 HD
BRANCH  18  21
ATOM     21  C   UNL     1      48.763   6.374  15.533  0.00  0.00    +0.000 A 
ATOM     22  C   UNL     1      49.630   7.251  16.165  0.00  0.00    +0.000 A 
ATOM     23  S   UNL     1      50.096   6.735  17.727  0.00  0.00    +0.000 S 
ATOM     24  C   UNL     1      49.108   5.352  17.625  0.00  0.00    +0.000 A 
ATOM     25  N   UNL     1      49.031   4.460  18.651  0.00  0.00    +0.000 NA
ATOM     26  C   UNL     1      48.210   3.484  18.445  0.00  0.00    +0.000 A 
ATOM     27  N   UNL     1      47.458   3.319  17.311  0.00  0.00    +0.000 N 
ATOM     28  C   UNL     1      47.534   4.163  16.235  0.00  0.00    +0.000 A 
ATOM     29  O   UNL     1      46.896   3.950  15.210  0.00  0.00    +0.000 OA
ATOM     30  C   UNL     1      48.439   5.285  16.417  0.00  0.00    +0.000 A 
ATOM     31  H   UNL     1      46.838   2.526  17.208  0.00  0.00    +0.000 HD
ENDBRANCH  18  21
ENDBRANCH   1  19
TORSDOF 7
ENDMDL
MODEL 2
REMARK VINA RESULT:    -7.383      1.529      1.931
REMARK INTER + INTRA:         -11.524
REMARK INTER:                 -10.537
REMARK INTRA:                  -0.987
REMARK UNBOUND:                -1.119
REMARK  Name = 
REMARK  7 active torsions:
REMARK  status: ('A' for Active; 'I' for Inactive)
REMARK    1  A    between atoms: C_2  and  C_20
REMARK    2  A    between atoms: N_3  and  C_4
REMARK    3  A    between atoms: C_4  and  C_5
REMARK    4  A    between atoms: C_8  and  O_9
REMARK    5  A    between atoms: O_9  and  C_10
REMARK    6  A    between atoms: C_10  and  C_11
REMARK    7  A    between atoms: C_11  and  C_12
REMARK                            x       y       z     vdW  Elec       q    Type
REMARK                         _______ _______ _______ _____ _____    ______ ____
ROOT
ATOM      1  C   UNL     1      48.127   6.866  13.413  0.00  0.00    +0.000 C 
ENDROOT
BRANCH   1   2
ATOM      2  C   UNL     1      46.991   6.136  12.740  0.00  0.00    +0.000 A 
ATOM      3  C   UNL     1      46.539   6.539  11.476  0.00  0.00    +0.000 A 
ATOM      4  C   UNL     1      45.505   5.849  10.830  0.00  0.00    +0.000 A 
ATOM      5  C   UNL     1      44.899   4.751  11.440  0.00  0.00    +0.000 A 
ATOM      6  C   UNL     1      45.315   4.374  12.719  0.00  0.00    +0.000 A 
ATOM      7  C   UNL     1      46.351   5.060  13.366  0.00  0.00    +0.000 A 
BRANCH   5   8
ATOM      8  O   UNL     1      43.874   4.013  10.906  0.00  0.00    +0.000 OA
BRANCH   8   9
ATOM      9  C   UNL     1      44.066   3.570   9.557  0.00  0.00    +0.000 C 
BRANCH   9  10
ATOM     10  C   UNL     1      45.040   2.392   9.552  0.00  0.00    +0.000 C 
BRANCH  10  11
ATOM     11  C   UNL     1      45.863   2.367   8.294  0.00  0.00    +0.000 A 
ATOM     12  C   UNL     1      45.883   3.454   7.424  0.00  0.00    +0.000 A 
ATOM     13  N   UNL     1      46.611   3.471   6.281  0.00  0.00    +0.000 NA
ATOM     14  C   UNL     1      47.332   2.355   6.038  0.00  0.00    +0.000 A 
ATOM     15  C   UNL     1      47.327   1.272   6.897  0.00  0.00    +0.000 A 
ATOM     16  N   UNL     1      46.598   1.254   8.039  0.00  0.00    +0.000 NA
ENDBRANCH  10  11
ENDBRANCH   9  10
ENDBRANCH   8   9
ENDBRANCH   5   8
ENDBRANCH   1   2
BRANCH   1  19
ATOM     17  O   UNL     1      50.260   6.739  15.205  0.00  0.00    +0.000 OA
ATOM     18  C   UNL     1      49.122   6.832  15.652  0.00  0.00    +0.000 C 
ATOM     19  N   UNL     1      48.008   6.833  14.846  0.00  0.00    +0.000 N 
ATOM     20  H   UNL     1      47.118   7.122  15.235  0.00  0.00    +0.000 HD
BRANCH  18  21
ATOM     21  C   UNL     1      48.860   6.891  17.095  0.00  0.00    +0.000 A 
ATOM     22  C   UNL     1      48.496   8.084  17.699  0.00  0.00    +0.000 A 
ATOM     23  S   UNL     1      48.290   7.951  19.390  0.00  0.00    +0.000 S 
ATOM     24  C   UNL     1      48.628   6.283  19.357  0.00  0.00    +0.000 A 
ATOM     25  N   UNL     1      48.613   5.534  20.494  0.00  0.00    +0.000 NA
ATOM     26  C   UNL     1      48.848   4.278  20.306  0.00  0.00    +0.000 A 
ATOM     27  N   UNL     1      49.093   3.701  19.087  0.00  0.00    +0.000 N 
ATOM     28  C   UNL     1      49.162   4.417  17.922  0.00  0.00    +0.000 A 
ATOM     29  O   UNL     1      49.448   3.880  16.858  0.00  0.00    +0.000 OA
ATOM     30  C   UNL     1      48.898   5.838  18.076  0.00  0.00    +0.000 A 
ATOM     31  H   UNL     1      49.278   2.710  19.008  0.00  0.00    +0.000 HD
ENDBRANCH  18  21
ENDBRANCH   1  19
TORSDOF 7
ENDMDL
MODEL 3
REMARK VINA RESULT:    -7.362      3.250      4.846
REMARK INTER + INTRA:         -11.494
REMARK INTER:                 -10.860
REMARK INTRA:                  -0.635
REMARK UNBOUND:                -1.119
REMARK  Name = 
REMARK  7 active torsions:
REMARK  status: ('A' for Active; 'I' for Inactive)
REMARK    1  A    between atoms: C_2  and  C_20
REMARK    2  A    between atoms: N_3  and  C_4
REMARK    3  A    between atoms: C_4  and  C_5
REMARK    4  A    between atoms: C_8  and  O_9
REMARK    5  A    between atoms: O_9  and  C_10
REMARK    6  A    between atoms: C_10  and  C_11
REMARK    7  A    between atoms: C_11  and  C_12
REMARK                            x       y       z     vdW  Elec       q    Type
REMARK                         _______ _______ _______ _____ _____    ______ ____
ROOT
ATOM      1  C   UNL     1      44.047   4.780  10.334  0.00  0.00    +0.000 C 
ENDROOT
BRANCH   1   2
ATOM      2  C   UNL     1      44.797   3.842   9.422  0.00  0.00    +0.000 A 
ATOM      3  C   UNL     1      45.615   4.347   8.401  0.00  0.00    +0.000 A 
ATOM      4  C   UNL     1      46.339   3.485   7.568  0.00  0.00    +0.000 A 
ATOM      5  C   UNL     1      46.250   2.103   7.734  0.00  0.00    +0.000 A 
ATOM      6  C   UNL     1      45.402   1.593   8.719  0.00  0.00    +0.000 A 
ATOM      7  C   UNL     1      44.679   2.453   9.557  0.00  0.00    +0.000 A 
BRANCH   5   8
ATOM      8  O   UNL     1      46.902   1.169   6.969  0.00  0.00    +0.000 OA
BRANCH   8   9
ATOM      9  C   UNL     1      47.714   1.693   5.910  0.00  0.00    +0.000 C 
BRANCH   9  10
ATOM     10  C   UNL     1      46.818   2.051   4.725  0.00  0.00    +0.000 C 
BRANCH  10  11
ATOM     11  C   UNL     1      46.588   0.863   3.832  0.00  0.00    +0.000 A 
ATOM     12  C   UNL     1      45.592   0.875   2.859  0.00  0.00    +0.000 A 
ATOM     13  N   UNL     1      45.353  -0.175   2.035  0.00  0.00    +0.000 NA
ATOM     14  C   UNL     1      46.157  -1.246   2.215  0.00  0.00    +0.000 A 
ATOM     15  C   UNL     1      47.154  -1.267   3.172  0.00  0.00    +0.000 A 
ATOM     16  N   UNL     1      47.392  -0.219   3.997  0.00  0.00    +0.000 NA
ENDBRANCH  10  11
ENDBRANCH   9  10
ENDBRANCH   8   9
ENDBRANCH   5   8
ENDBRANCH   1   2
BRANCH   1  19
ATOM     17  O   UNL     1      44.411   5.833  12.891  0.00  0.00    +0.000 OA
ATOM     18  C   UNL     1      44.994   6.360  11.951  0.00  0.00    +0.000 C 
ATOM     19  N   UNL     1      44.820   5.951  10.649  0.00  0.00    +0.000 N 
ATOM     20  H   UNL     1      45.472   6.269   9.941  0.00  0.00    +0.000 HD
BRANCH  18  21
ATOM     21  C   UNL     1      45.879   7.515  12.139  0.00  0.00    +0.000 A 
ATOM     22  C   UNL     1      45.422   8.802  11.906  0.00  0.00    +0.000 A 
ATOM     23  S   UNL     1      46.622   9.999  12.129  0.00  0.00    +0.000 S 
ATOM     24  C   UNL     1      47.774   8.835  12.597  0.00  0.00    +0.000 A 
ATOM     25  N   UNL     1      49.042   9.192  12.941  0.00  0.00    +0.000 NA
ATOM     26  C   UNL     1      49.789   8.207  13.314  0.00  0.00    +0.000 A 
ATOM     27  N   UNL     1      49.385   6.898  13.376  0.00  0.00    +0.000 N 
ATOM     28  C   UNL     1      48.135   6.483  13.000  0.00  0.00    +0.000 A 
ATOM     29  O   UNL     1      47.827   5.297  13.007  0.00  0.00    +0.000 OA
ATOM     30  C   UNL     1      47.250   7.556  12.578  0.00  0.00    +0.000 A 
ATOM     31  H   UNL     1      50.023   6.170  13.670  0.00  0.00    +0.000 HD
ENDBRANCH  18  21
ENDBRANCH   1  19
TORSDOF 7
ENDMDL
MODEL 4
REMARK VINA RESULT:    -7.158      2.126      2.802
REMARK INTER + INTRA:         -11.206
REMARK INTER:                 -10.360
REMARK INTRA:                  -0.846
REMARK UNBOUND:                -1.119
REMARK  Name = 
REMARK  7 active torsions:
REMARK  status: ('A' for Active; 'I' for Inactive)
REMARK    1  A    between atoms: C_2  and  C_20
REMARK    2  A    between atoms: N_3  and  C_4
REMARK    3  A    between atoms: C_4  and  C_5
REMARK    4  A    between atoms: C_8  and  O_9
REMARK    5  A    between atoms: O_9  and  C_10
REMARK    6  A    between atoms: C_10  and  C_11
REMARK    7  A    between atoms: C_11  and  C_12
REMARK                            x       y       z     vdW  Elec       q    Type
REMARK                         _______ _______ _______ _____ _____    ______ ____
ROOT
ATOM      1  C   UNL     1      48.192   6.933  13.820  0.00  0.00    +0.000 C 
ENDROOT
BRANCH   1   2
ATOM      2  C   UNL     1      46.946   6.175  13.435  0.00  0.00    +0.000 A 
ATOM      3  C   UNL     1      46.929   4.774  13.465  0.00  0.00    +0.000 A 
ATOM      4  C   UNL     1      45.768   4.061  13.138  0.00  0.00    +0.000 A 
ATOM      5  C   UNL     1      44.607   4.738  12.766  0.00  0.00    +0.000 A 
ATOM      6  C   UNL     1      44.631   6.132  12.689  0.00  0.00    +0.000 A 
ATOM      7  C   UNL     1      45.790   6.847  13.019  0.00  0.00    +0.000 A 
BRANCH   5   8
ATOM      8  O   UNL     1      43.422   4.143  12.413  0.00  0.00    +0.000 OA
BRANCH   8   9
ATOM      9  C   UNL     1      43.445   3.388  11.195  0.00  0.00    +0.000 C 
BRANCH   9  10
ATOM     10  C   UNL     1      43.973   4.275  10.068  0.00  0.00    +0.000 C 
BRANCH  10  11
ATOM     11  C   UNL     1      44.896   3.513   9.157  0.00  0.00    +0.000 A 
ATOM     12  C   UNL     1      45.153   2.160   9.360  0.00  0.00    +0.000 A 
ATOM     13  N   UNL     1      45.978   1.438   8.563  0.00  0.00    +0.000 NA
ATOM     14  C   UNL     1      46.538   2.120   7.541  0.00  0.00    +0.000 A 
ATOM     15  C   UNL     1      46.285   3.462   7.323  0.00  0.00    +0.000 A 
ATOM     16  N   UNL     1      45.462   4.184   8.121  0.00  0.00    +0.000 NA
ENDBRANCH  10  11
ENDBRANCH   9  10
ENDBRANCH   8   9
ENDBRANCH   5   8
ENDBRANCH   1   2
BRANCH   1  19
ATOM     17  O   UNL     1      49.521   5.704  15.942  0.00  0.00    +0.000 OA
ATOM     18  C   UNL     1      48.891   6.732  16.160  0.00  0.00    +0.000 C 
ATOM     19  N   UNL     1      48.151   7.367  15.190  0.00  0.00    +0.000 N 
ATOM     20  H   UNL     1      47.825   8.313  15.357  0.00  0.00    +0.000 HD
BRANCH  18  21
ATOM     21  C   UNL     1      48.830   7.333  17.497  0.00  0.00    +0.000 A 
ATOM     22  C   UNL     1      49.418   8.563  17.747  0.00  0.00    +0.000 A 
ATOM     23  S   UNL     1      49.283   9.061  19.377  0.00  0.00    +0.000 S 
ATOM     24  C   UNL     1      48.386   7.672  19.784  0.00  0.00    +0.000 A 
ATOM     25  N   UNL     1      47.934   7.467  21.052  0.00  0.00    +0.000 NA
ATOM     26  C   UNL     1      47.234   6.392  21.200  0.00  0.00    +0.000 A 
ATOM     27  N   UNL     1      46.942   5.504  20.197  0.00  0.00    +0.000 N 
ATOM     28  C   UNL     1      47.409   5.642  18.917  0.00  0.00    +0.000 A 
ATOM     29  O   UNL     1      47.183   4.795  18.060  0.00  0.00    +0.000 OA
ATOM     30  C   UNL     1      48.198   6.842  18.695  0.00  0.00    +0.000 A 
ATOM     31  H   UNL     1      46.393   4.674  20.380  0.00  0.00    +0.000 HD
ENDBRANCH  18  21
ENDBRANCH   1  19
TORSDOF 7
ENDMDL
MODEL 5
REMARK VINA RESULT:    -6.917      2.946      8.585
REMARK INTER + INTRA:         -10.867
REMARK INTER:                  -9.437
REMARK INTRA:                  -1.430
REMARK UNBOUND:                -1.119
REMARK  Name = 
REMARK  7 active torsions:
REMARK  status: ('A' for Active; 'I' for Inactive)
REMARK    1  A    between atoms: C_2  and  C_20
REMARK    2  A    between atoms: N_3  and  C_4
REMARK    3  A    between atoms: C_4  and  C_5
REMARK    4  A    between atoms: C_8  and  O_9
REMARK    5  A    between atoms: O_9  and  C_10
REMARK    6  A    between atoms: C_10  and  C_11
REMARK    7  A    between atoms: C_11  and  C_12
REMARK                            x       y       z     vdW  Elec       q    Type
REMARK                         _______ _______ _______ _____ _____    ______ ____
ROOT
ATOM      1  C   UNL     1      47.862   7.760  12.126  0.00  0.00    +0.000 C 
ENDROOT
BRANCH   1   2
ATOM      2  C   UNL     1      48.412   7.913  13.522  0.00  0.00    +0.000 A 
ATOM      3  C   UNL     1      47.798   8.782  14.435  0.00  0.00    +0.000 A 
ATOM      4  C   UNL     1      48.283   8.909  15.743  0.00  0.00    +0.000 A 
ATOM      5  C   UNL     1      49.396   8.177  16.157  0.00  0.00    +0.000 A 
ATOM      6  C   UNL     1      50.038   7.345  15.238  0.00  0.00    +0.000 A 
ATOM      7  C   UNL     1      49.553   7.213  13.931  0.00  0.00    +0.000 A 
BRANCH   5   8
ATOM      8  O   UNL     1      49.961   8.234  17.405  0.00  0.00    +0.000 OA
BRANCH   8   9
ATOM      9  C   UNL     1      50.121   6.974  18.072  0.00  0.00    +0.000 C 
BRANCH   9  10
ATOM     10  C   UNL     1      48.753   6.476  18.534  0.00  0.00    +0.000 C 
BRANCH  10  11
ATOM     11  C   UNL     1      48.459   5.103  17.997  0.00  0.00    +0.000 A 
ATOM     12  C   UNL     1      47.151   4.681  17.775  0.00  0.00    +0.000 A 
ATOM     13  N   UNL     1      46.844   3.451  17.292  0.00  0.00    +0.000 NA
ATOM     14  C   UNL     1      47.901   2.653  17.030  0.00  0.00    +0.000 A 
ATOM     15  C   UNL     1      49.205   3.062  17.240  0.00  0.00    +0.000 A 
ATOM     16  N   UNL     1      49.512   4.290  17.724  0.00  0.00    +0.000 NA
ENDBRANCH  10  11
ENDBRANCH   9  10
ENDBRANCH   8   9
ENDBRANCH   5   8
ENDBRANCH   1   2
BRANCH   1  19
ATOM     17  O   UNL     1      45.081   7.637  12.308  0.00  0.00    +0.000 OA
ATOM     18  C   UNL     1      45.698   6.613  12.035  0.00  0.00    +0.000 C 
ATOM     19  N   UNL     1      47.072   6.566  11.991  0.00  0.00    +0.000 N 
ATOM     20  H   UNL     1      47.525   5.768  11.560  0.00  0.00    +0.000 HD
BRANCH  18  21
ATOM     21  C   UNL     1      45.012   5.339  11.792  0.00  0.00    +0.000 A 
ATOM     22  C   UNL     1      44.263   4.737  12.791  0.00  0.00    +0.000 A 
ATOM     23  S   UNL     1      43.592   3.236  12.324  0.00  0.00    +0.000 S 
ATOM     24  C   UNL     1      44.238   3.373  10.754  0.00  0.00    +0.000 A 
ATOM     25  N   UNL     1      44.029   2.408   9.817  0.00  0.00    +0.000 NA
ATOM     26  C   UNL     1      44.545   2.670   8.662  0.00  0.00    +0.000 A 
ATOM     27  N   UNL     1      45.248   3.807   8.357  0.00  0.00    +0.000 N 
ATOM     28  C   UNL     1      45.522   4.784   9.277  0.00  0.00    +0.000 A 
ATOM     29  O   UNL     1      46.208   5.758   8.988  0.00  0.00    +0.000 OA
ATOM     30  C   UNL     1      44.957   4.542  10.593  0.00  0.00    +0.000 A 
ATOM     31  H   UNL     1      45.634   3.948   7.433  0.00  0.00    +0.000 HD
ENDBRANCH  18  21
ENDBRANCH   1  19
TORSDOF 7
ENDMDL
MODEL 6
REMARK VINA RESULT:    -6.761      2.167      3.654
REMARK INTER + INTRA:         -10.646
REMARK INTER:                  -9.491
REMARK INTRA:                  -1.155
REMARK UNBOUND:                -1.119
REMARK  Name = 
REMARK  7 active torsions:
REMARK  status: ('A' for Active; 'I' for Inactive)
REMARK    1  A    between atoms: C_2  and  C_20
REMARK    2  A    between atoms: N_3  and  C_4
REMARK    3  A    between atoms: C_4  and  C_5
REMARK    4  A    between atoms: C_8  and  O_9
REMARK    5  A    between atoms: O_9  and  C_10
REMARK    6  A    between atoms: C_10  and  C_11
REMARK    7  A    between atoms: C_11  and  C_12
REMARK                            x       y       z     vdW  Elec       q    Type
REMARK                         _______ _______ _______ _____ _____    ______ ____
ROOT
ATOM      1  C   UNL     1      47.197   4.786  14.626  0.00  0.00    +0.000 C 
ENDROOT
BRANCH   1   2
ATOM      2  C   UNL     1      46.347   4.753  13.380  0.00  0.00    +0.000 A 
ATOM      3  C   UNL     1      46.175   5.910  12.607  0.00  0.00    +0.000 A 
ATOM      4  C   UNL     1      45.412   5.883  11.433  0.00  0.00    +0.000 A 
ATOM      5  C   UNL     1      44.800   4.701  11.017  0.00  0.00    +0.000 A 
ATOM      6  C   UNL     1      44.929   3.557  11.807  0.00  0.00    +0.000 A 
ATOM      7  C   UNL     1      45.695   3.580  12.980  0.00  0.00    +0.000 A 
BRANCH   5   8
ATOM      8  O   UNL     1      44.022   4.564   9.895  0.00  0.00    +0.000 OA
BRANCH   8   9
ATOM      9  C   UNL     1      44.437   3.549   8.972  0.00  0.00    +0.000 C 
BRANCH   9  10
ATOM     10  C   UNL     1      45.563   4.100   8.097  0.00  0.00    +0.000 C 
BRANCH  10  11
ATOM     11  C   UNL     1      46.252   3.002   7.336  0.00  0.00    +0.000 A 
ATOM     12  C   UNL     1      46.430   1.740   7.895  0.00  0.00    +0.000 A 
ATOM     13  N   UNL     1      47.047   0.724   7.242  0.00  0.00    +0.000 NA
ATOM     14  C   UNL     1      47.477   1.014   5.995  0.00  0.00    +0.000 A 
ATOM     15  C   UNL     1      47.300   2.261   5.426  0.00  0.00    +0.000 A 
ATOM     16  N   UNL     1      46.686   3.277   6.078  0.00  0.00    +0.000 NA
ENDBRANCH  10  11
ENDBRANCH   9  10
ENDBRANCH   8   9
ENDBRANCH   5   8
ENDBRANCH   1   2
BRANCH   1  19
ATOM     17  O   UNL     1      49.304   5.408  16.345  0.00  0.00    +0.000 OA
ATOM     18  C   UNL     1      48.759   6.318  15.731  0.00  0.00    +0.000 C 
ATOM     19  N   UNL     1      47.670   6.113  14.915  0.00  0.00    +0.000 N 
ATOM     20  H   UNL     1      47.390   6.845  14.272  0.00  0.00    +0.000 HD
BRANCH  18  21
ATOM     21  C   UNL     1      49.193   7.712  15.869  0.00  0.00    +0.000 A 
ATOM     22  C   UNL     1      49.213   8.327  17.111  0.00  0.00    +0.000 A 
ATOM     23  S   UNL     1      49.697   9.965  17.049  0.00  0.00    +0.000 S 
ATOM     24  C   UNL     1      49.946   9.886  15.366  0.00  0.00    +0.000 A 
ATOM     25  N   UNL     1      50.380  10.967  14.663  0.00  0.00    +0.000 NA
ATOM     26  C   UNL     1      50.562  10.744  13.404  0.00  0.00    +0.000 A 
ATOM     27  N   UNL     1      50.353   9.539  12.784  0.00  0.00    +0.000 N 
ATOM     28  C   UNL     1      49.875   8.435  13.439  0.00  0.00    +0.000 A 
ATOM     29  O   UNL     1      49.637   7.392  12.841  0.00  0.00    +0.000 OA
ATOM     30  C   UNL     1      49.659   8.631  14.862  0.00  0.00    +0.000 A 
ATOM     31  H   UNL     1      50.507   9.432  11.790  0.00  0.00    +0.000 HD
ENDBRANCH  18  21
ENDBRANCH   1  19
TORSDOF 7
ENDMDL
MODEL 7
REMARK VINA RESULT:    -6.729      3.525      8.163
REMARK INTER + INTRA:         -10.601
REMARK INTER:                  -9.238
REMARK INTRA:                  -1.364
REMARK UNBOUND:                -1.119
REMARK  Name = 
REMARK  7 active torsions:
REMARK  status: ('A' for Active; 'I' for Inactive)
REMARK    1  A    between atoms: C_2  and  C_20
REMARK    2  A    between atoms: N_3  and  C_4
REMARK    3  A    between atoms: C_4  and  C_5
REMARK    4  A    between atoms: C_8  and  O_9
REMARK    5  A    between atoms: O_9  and  C_10
REMARK    6  A    between atoms: C_10  and  C_11
REMARK    7  A    between atoms: C_11  and  C_12
REMARK                            x       y       z     vdW  Elec       q    Type
REMARK                         _______ _______ _______ _____ _____    ______ ____
ROOT
ATOM      1  C   UNL     1      48.143   8.219  12.081  0.00  0.00    +0.000 C 
ENDROOT
BRANCH   1   2
ATOM      2  C   UNL     1      48.463   8.100  13.550  0.00  0.00    +0.000 A 
ATOM      3  C   UNL     1      47.900   8.991  14.474  0.00  0.00    +0.000 A 
ATOM      4  C   UNL     1      48.167   8.871  15.844  0.00  0.00    +0.000 A 
ATOM      5  C   UNL     1      49.010   7.863  16.312  0.00  0.00    +0.000 A 
ATOM      6  C   UNL     1      49.610   7.000  15.392  0.00  0.00    +0.000 A 
ATOM      7  C   UNL     1      49.341   7.117  14.022  0.00  0.00    +0.000 A 
BRANCH   5   8
ATOM      8  O   UNL     1      49.350   7.661  17.626  0.00  0.00    +0.000 OA
BRANCH   8   9
ATOM      9  C   UNL     1      48.346   7.040  18.438  0.00  0.00    +0.000 C 
BRANCH   9  10
ATOM     10  C   UNL     1      48.916   5.759  19.046  0.00  0.00    +0.000 C 
BRANCH  10  11
ATOM     11  C   UNL     1      48.766   4.593  18.108  0.00  0.00    +0.000 A 
ATOM     12  C   UNL     1      49.847   3.772  17.801  0.00  0.00    +0.000 A 
ATOM     13  N   UNL     1      49.754   2.712  16.960  0.00  0.00    +0.000 NA
ATOM     14  C   UNL     1      48.527   2.495  16.438  0.00  0.00    +0.000 A 
ATOM     15  C   UNL     1      47.443   3.298  16.742  0.00  0.00    +0.000 A 
ATOM     16  N   UNL     1      47.537   4.358  17.580  0.00  0.00    +0.000 NA
ENDBRANCH  10  11
ENDBRANCH   9  10
ENDBRANCH   8   9
ENDBRANCH   5   8
ENDBRANCH   1   2
BRANCH   1  19
ATOM     17  O   UNL     1      45.386   7.922  11.784  0.00  0.00    +0.000 OA
ATOM     18  C   UNL     1      46.118   7.012  11.412  0.00  0.00    +0.000 C 
ATOM     19  N   UNL     1      47.482   7.044  11.581  0.00  0.00    +0.000 N 
ATOM     20  H   UNL     1      48.058   6.380  11.076  0.00  0.00    +0.000 HD
BRANCH  18  21
ATOM     21  C   UNL     1      45.583   5.787  10.808  0.00  0.00    +0.000 A 
ATOM     22  C   UNL     1      45.806   5.503   9.470  0.00  0.00    +0.000 A 
ATOM     23  S   UNL     1      45.055   4.058   8.949  0.00  0.00    +0.000 S 
ATOM     24  C   UNL     1      44.455   3.742  10.511  0.00  0.00    +0.000 A 
ATOM     25  N   UNL     1      43.713   2.631  10.773  0.00  0.00    +0.000 NA
ATOM     26  C   UNL     1      43.364   2.505  12.010  0.00  0.00    +0.000 A 
ATOM     27  N   UNL     1      43.689   3.385  13.009  0.00  0.00    +0.000 N 
ATOM     28  C   UNL     1      44.394   4.539  12.788  0.00  0.00    +0.000 A 
ATOM     29  O   UNL     1      44.612   5.337  13.692  0.00  0.00    +0.000 OA
ATOM     30  C   UNL     1      44.819   4.725  11.411  0.00  0.00    +0.000 A 
ATOM     31  H   UNL     1      43.377   3.233  13.959  0.00  0.00    +0.000 HD
ENDBRANCH  18  21
ENDBRANCH   1  19
TORSDOF 7
ENDMDL
MODEL 8
REMARK VINA RESULT:    -6.640      4.618      9.462
REMARK INTER + INTRA:         -10.477
REMARK INTER:                  -9.595
REMARK INTRA:                  -0.881
REMARK UNBOUND:                -1.119
REMARK  Name = 
REMARK  7 active torsions:
REMARK  status: ('A' for Active; 'I' for Inactive)
REMARK    1  A    between atoms: C_2  and  C_20
REMARK    2  A    between atoms: N_3  and  C_4
REMARK    3  A    between atoms: C_4  and  C_5
REMARK    4  A    between atoms: C_8  and  O_9
REMARK    5  A    between atoms: O_9  and  C_10
REMARK    6  A    between atoms: C_10  and  C_11
REMARK    7  A    between atoms: C_11  and  C_12
REMARK                            x       y       z     vdW  Elec       q    Type
REMARK                         _______ _______ _______ _____ _____    ______ ____
ROOT
ATOM      1  C   UNL     1      47.261   3.445  16.842  0.00  0.00    +0.000 C 
ENDROOT
BRANCH   1   2
ATOM      2  C   UNL     1      48.712   3.492  17.248  0.00  0.00    +0.000 A 
ATOM      3  C   UNL     1      49.539   2.375  17.059  0.00  0.00    +0.000 A 
ATOM      4  C   UNL     1      50.895   2.418  17.405  0.00  0.00    +0.000 A 
ATOM      5  C   UNL     1      51.447   3.576  17.954  0.00  0.00    +0.000 A 
ATOM      6  C   UNL     1      50.618   4.676  18.186  0.00  0.00    +0.000 A 
ATOM      7  C   UNL     1      49.262   4.636  17.838  0.00  0.00    +0.000 A 
BRANCH   5   8
ATOM      8  O   UNL     1      52.755   3.724  18.340  0.00  0.00    +0.000 OA
BRANCH   8   9
ATOM      9  C   UNL     1      53.694   2.852  17.697  0.00  0.00    +0.000 C 
BRANCH   9  10
ATOM     10  C   UNL     1      54.468   2.078  18.764  0.00  0.00    +0.000 C 
BRANCH  10  11
ATOM     11  C   UNL     1      54.572   0.619  18.416  0.00  0.00    +0.000 A 
ATOM     12  C   UNL     1      54.806   0.206  17.107  0.00  0.00    +0.000 A 
ATOM     13  N   UNL     1      54.906  -1.098  16.751  0.00  0.00    +0.000 NA
ATOM     14  C   UNL     1      54.770  -1.985  17.761  0.00  0.00    +0.000 A 
ATOM     15  C   UNL     1      54.545  -1.588  19.066  0.00  0.00    +0.000 A 
ATOM     16  N   UNL     1      54.443  -0.284  19.421  0.00  0.00    +0.000 NA
ENDBRANCH  10  11
ENDBRANCH   9  10
ENDBRANCH   8   9
ENDBRANCH   5   8
ENDBRANCH   1   2
BRANCH   1  19
ATOM     17  O   UNL     1      47.277   3.075  14.078  0.00  0.00    +0.000 OA
ATOM     18  C   UNL     1      46.921   4.160  14.523  0.00  0.00    +0.000 C 
ATOM     19  N   UNL     1      46.946   4.453  15.866  0.00  0.00    +0.000 N 
ATOM     20  H   UNL     1      46.450   5.271  16.202  0.00  0.00    +0.000 HD
BRANCH  18  21
ATOM     21  C   UNL     1      46.495   5.254  13.643  0.00  0.00    +0.000 A 
ATOM     22  C   UNL     1      47.336   6.327  13.392  0.00  0.00    +0.000 A 
ATOM     23  S   UNL     1      46.633   7.519  12.389  0.00  0.00    +0.000 S 
ATOM     24  C   UNL     1      45.203   6.609  12.216  0.00  0.00    +0.000 A 
ATOM     25  N   UNL     1      44.165   7.059  11.459  0.00  0.00    +0.000 NA
ATOM     26  C   UNL     1      43.166   6.243  11.389  0.00  0.00    +0.000 A 
ATOM     27  N   UNL     1      43.111   5.018  12.002  0.00  0.00    +0.000 N 
ATOM     28  C   UNL     1      44.110   4.541  12.809  0.00  0.00    +0.000 A 
ATOM     29  O   UNL     1      44.000   3.470  13.395  0.00  0.00    +0.000 OA
ATOM     30  C   UNL     1      45.263   5.419  12.917  0.00  0.00    +0.000 A 
ATOM     31  H   UNL     1      42.294   4.428  11.914  0.00  0.00    +0.000 HD
ENDBRANCH  18  21
ENDBRANCH   1  19
TORSDOF 7
ENDMDL
MODEL 9
REMARK VINA RESULT:    -6.611      4.480      6.568
REMARK INTER + INTRA:         -10.435
REMARK INTER:                  -9.589
REMARK INTRA:                  -0.846
REMARK UNBOUND:                -1.119
REMARK  Name = 
REMARK  7 active torsions:
REMARK  status: ('A' for Active; 'I' for Inactive)
REMARK    1  A    between atoms: C_2  and  C_20
REMARK    2  A    between atoms: N_3  and  C_4
REMARK    3  A    between atoms: C_4  and  C_5
REMARK    4  A    between atoms: C_8  and  O_9
REMARK    5  A    between atoms: O_9  and  C_10
REMARK    6  A    between atoms: C_10  and  C_11
REMARK    7  A    between atoms: C_11  and  C_12
REMARK                            x       y       z     vdW  Elec       q    Type
REMARK                         _______ _______ _______ _____ _____    ______ ____
ROOT
ATOM      1  C   UNL     1      46.622   4.070  14.070  0.00  0.00    +0.000 C 
ENDROOT
BRANCH   1   2
ATOM      2  C   UNL     1      46.066   5.281  13.366  0.00  0.00    +0.000 A 
ATOM      3  C   UNL     1      46.781   6.486  13.353  0.00  0.00    +0.000 A 
ATOM      4  C   UNL     1      46.287   7.609  12.677  0.00  0.00    +0.000 A 
ATOM      5  C   UNL     1      45.064   7.548  12.009  0.00  0.00    +0.000 A 
ATOM      6  C   UNL     1      44.325   6.364  12.057  0.00  0.00    +0.000 A 
ATOM      7  C   UNL     1      44.819   5.239  12.730  0.00  0.00    +0.000 A 
BRANCH   5   8
ATOM      8  O   UNL     1      44.480   8.586  11.329  0.00  0.00    +0.000 OA
BRANCH   8   9
ATOM      9  C   UNL     1      44.776   9.898  11.826  0.00  0.00    +0.000 C 
BRANCH   9  10
ATOM     10  C   UNL     1      44.138  10.937  10.905  0.00  0.00    +0.000 C 
BRANCH  10  11
ATOM     11  C   UNL     1      42.653  11.027  11.125  0.00  0.00    +0.000 A 
ATOM     12  C   UNL     1      41.754  10.613  10.147  0.00  0.00    +0.000 A 
ATOM     13  N   UNL     1      40.409  10.677  10.307  0.00  0.00    +0.000 NA
ATOM     14  C   UNL     1      39.990  11.169  11.493  0.00  0.00    +0.000 A 
ATOM     15  C   UNL     1      40.873  11.577  12.475  0.00  0.00    +0.000 A 
ATOM     16  N   UNL     1      42.217  11.515  12.315  0.00  0.00    +0.000 NA
ENDBRANCH  10  11
ENDBRANCH   9  10
ENDBRANCH   8   9
ENDBRANCH   5   8
ENDBRANCH   1   2
BRANCH   1  19
ATOM     17  O   UNL     1      46.529   3.403  16.777  0.00  0.00    +0.000 OA
ATOM     18  C   UNL     1      47.511   4.001  16.354  0.00  0.00    +0.000 C 
ATOM     19  N   UNL     1      47.612   4.429  15.050  0.00  0.00    +0.000 N 
ATOM     20  H   UNL     1      48.514   4.725  14.696  0.00  0.00    +0.000 HD
BRANCH  18  21
ATOM     21  C   UNL     1      48.634   4.361  17.227  0.00  0.00    +0.000 A 
ATOM     22  C   UNL     1      48.604   5.530  17.971  0.00  0.00    +0.000 A 
ATOM     23  S   UNL     1      50.028   5.792  18.879  0.00  0.00    +0.000 S 
ATOM     24  C   UNL     1      50.704   4.322  18.346  0.00  0.00    +0.000 A 
ATOM     25  N   UNL     1      51.937   3.919  18.760  0.00  0.00    +0.000 NA
ATOM     26  C   UNL     1      52.298   2.765  18.306  0.00  0.00    +0.000 A 
ATOM     27  N   UNL     1      51.541   1.977  17.478  0.00  0.00    +0.000 N 
ATOM     28  C   UNL     1      50.316   2.358  16.999  0.00  0.00    +0.000 A 
ATOM     29  O   UNL     1      49.693   1.658  16.208  0.00  0.00    +0.000 OA
ATOM     30  C   UNL     1      49.857   3.648  17.487  0.00  0.00    +0.000 A 
ATOM     31  H   UNL     1      51.886   1.084  17.150  0.00  0.00    +0.000 HD
ENDBRANCH  18  21
ENDBRANCH   1  19
TORSDOF 7
ENDMDL
