MODEL 1
REMARK VINA RESULT:    -7.692      0.000      0.000
REMARK INTER + INTRA:         -11.408
REMARK INTER:                 -10.390
REMARK INTRA:                  -1.018
REMARK UNBOUND:                -1.018
REMARK  Name = 
REMARK  6 active torsions:
REMARK  status: ('A' for Active; 'I' for Inactive)
REMARK    1  A    between atoms: C_2  and  C_4
REMARK    2  A    between atoms: C_8  and  O_9
REMARK    3  A    between atoms: O_9  and  C_10
REMARK    4  A    between atoms: C_10  and  C_11
REMARK    5  A    between atoms: C_11  and  C_12
REMARK    6  A    between atoms: C_16  and  C_17
REMARK                            x       y       z     vdW  Elec       q    Type
REMARK                         _______ _______ _______ _____ _____    ______ ____
ROOT
ATOM      1  C   UNL     1      43.510   3.775  11.255  0.00  0.00    +0.000 C 
ENDROOT
BRANCH   1   2
ATOM      2  O   UNL     1      43.663   2.784  10.241  0.00  0.00    +0.000 OA
BRANCH   2   7
ATOM      3  C   UNL     1      46.327   2.060   7.881  0.00  0.00    +0.000 A 
ATOM      4  C   UNL     1      46.646   3.327   7.377  0.00  0.00    +0.000 A 
ATOM      5  C   UNL     1      45.957   4.448   7.831  0.00  0.00    +0.000 A 
ATOM      6  C   UNL     1      44.949   4.307   8.790  0.00  0.00    +0.000 A 
ATOM      7  C   UNL     1      44.632   3.048   9.304  0.00  0.00    +0.000 A 
ATOM      8  C   UNL     1      45.333   1.927   8.857  0.00  0.00    +0.000 A 
BRANCH   3  10
ATOM      9  N   UNL     1      47.988   1.120   6.370  0.00  0.00    +0.000 N 
ATOM     10  C   UNL     1      47.070   0.887   7.355  0.00  0.00    +0.000 C 
ATOM     11  O   UNL     1      46.908  -0.237   7.813  0.00  0.00    +0.000 OA
ATOM     12  H   UNL     1      48.568   0.335   6.104  0.00  0.00    +0.000 HD
ATOM     13  H   UNL     1      48.323   2.046   6.150  0.00  0.00    +0.000 HD
ENDBRANCH   3  10
ENDBRANCH   2   7
ENDBRANCH   1   2
BRANCH   1  14
ATOM     14  C   UNL     1      44.151   3.301  12.558  0.00  0.00    +0.000 C 
BRANCH  14  15
ATOM     15  C   UNL     1      45.327   4.191  12.880  0.00  0.00    +0.000 A 
ATOM     16  C   UNL     1      45.573   5.326  12.100  0.00  0.00    +0.000 A 
ATOM     17  C   UNL     1      46.575   6.217  12.466  0.00  0.00    +0.000 A 
ATOM     18  C   UNL     1      47.323   5.991  13.623  0.00  0.00    +0.000 A 
ATOM     19  C   UNL     1      47.085   4.878  14.451  0.00  0.00    +0.000 A 
ATOM     20  C   UNL     1      46.093   3.971  14.041  0.00  0.00    +0.000 A 
BRANCH  19  21
ATOM     21  C   UNL     1      47.808   4.720  15.734  0.00  0.00    +0.000 A 
ATOM     22  C   UNL     1      48.581   5.771  16.255  0.00  0.00    +0.000 A 
ATOM     23  C   UNL     1      49.248   5.605  17.459  0.00  0.00    +0.000 A 
ATOM     24  N   UNL     1      49.194   4.477  18.193  0.00  0.00    +0.000 NA
ATOM     25  C   UNL     1      48.442   3.475  17.696  0.00  0.00    +0.000 A 
ATOM     26  C   UNL     1      47.745   3.545  16.495  0.00  0.00    +0.000 A 
ENDBRANCH  19  21
ENDBRANCH  14  15
ENDBRANCH   1  14
TORSDOF 6
ENDMDL
MODEL 2
REMARK VINA RESULT:    -7.504      2.763      4.093
REMARK INTER + INTRA:         -11.155
REMARK INTER:                 -10.078
REMARK INTRA:                  -1.076
REMARK UNBOUND:                -1.018
REMARK  Name = 
REMARK  6 active torsions:
REMARK  status: ('A' for Active; 'I' for Inactive)
REMARK    1  A    between atoms: C_2  and  C_4
REMARK    2  A    between atoms: C_8  and  O_9
REMARK    3  A    between atoms: O_9  and  C_10
REMARK    4  A    between atoms: C_10  and  C_11
REMARK    5  A    between atoms: C_11  and  C_12
REMARK    6  A    between atoms: C_16  and  C_17
REMARK                            x       y       z     vdW  Elec       q    Type
REMARK                         _______ _______ _______ _____ _____    ______ ____
ROOT
ATOM      1  C   UNL     1      43.231   4.064  11.101  0.00  0.00    +0.000 C 
ENDROOT
BRANCH   1   2
ATOM      2  O   UNL     1      44.098   2.977  10.778  0.00  0.00    +0.000 OA
BRANCH   2   7
ATOM      3  C   UNL     1      46.396   2.116   8.101  0.00  0.00    +0.000 A 
ATOM      4  C   UNL     1      46.645   3.354   7.496  0.00  0.00    +0.000 A 
ATOM      5  C   UNL     1      46.030   4.503   7.989  0.00  0.00    +0.000 A 
ATOM      6  C   UNL     1      45.169   4.417   9.087  0.00  0.00    +0.000 A 
ATOM      7  C   UNL     1      44.925   3.187   9.701  0.00  0.00    +0.000 A 
ATOM      8  C   UNL     1      45.551   2.039   9.214  0.00  0.00    +0.000 A 
BRANCH   3  10
ATOM      9  N   UNL     1      47.910   1.104   6.485  0.00  0.00    +0.000 N 
ATOM     10  C   UNL     1      47.053   0.912   7.532  0.00  0.00    +0.000 C 
ATOM     11  O   UNL     1      46.878  -0.203   8.007  0.00  0.00    +0.000 OA
ATOM     12  H   UNL     1      48.437   0.296   6.185  0.00  0.00    +0.000 HD
ATOM     13  H   UNL     1      48.265   2.015   6.237  0.00  0.00    +0.000 HD
ENDBRANCH   3  10
ENDBRANCH   2   7
ENDBRANCH   1   2
BRANCH   1  14
ATOM     14  C   UNL     1      43.327   4.390  12.590  0.00  0.00    +0.000 C 
BRANCH  14  15
ATOM     15  C   UNL     1      44.631   5.104  12.853  0.00  0.00    +0.000 A 
ATOM     16  C   UNL     1      45.772   4.368  13.189  0.00  0.00    +0.000 A 
ATOM     17  C   UNL     1      47.001   5.005  13.307  0.00  0.00    +0.000 A 
ATOM     18  C   UNL     1      47.102   6.378  13.072  0.00  0.00    +0.000 A 
ATOM     19  C   UNL     1      45.985   7.148  12.701  0.00  0.00    +0.000 A 
ATOM     20  C   UNL     1      44.745   6.489  12.625  0.00  0.00    +0.000 A 
BRANCH  19  21
ATOM     21  C   UNL     1      46.135   8.577  12.341  0.00  0.00    +0.000 A 
ATOM     22  C   UNL     1      47.409   9.141  12.168  0.00  0.00    +0.000 A 
ATOM     23  C   UNL     1      47.529  10.480  11.828  0.00  0.00    +0.000 A 
ATOM     24  N   UNL     1      46.478  11.298  11.633  0.00  0.00    +0.000 NA
ATOM     25  C   UNL     1      45.257  10.750  11.789  0.00  0.00    +0.000 A 
ATOM     26  C   UNL     1      45.036   9.422  12.136  0.00  0.00    +0.000 A 
ENDBRANCH  19  21
ENDBRANCH  14  15
ENDBRANCH   1  14
TORSDOF 6
ENDMDL
MODEL 3
REMARK VINA RESULT:    -7.056      2.192      7.891
REMARK INTER + INTRA:         -10.550
REMARK INTER:                  -9.765
REMARK INTRA:                  -0.786
REMARK UNBOUND:                -1.018
REMARK  Name = 
REMARK  6 active torsions:
REMARK  status: ('A' for Active; 'I' for Inactive)
REMARK    1  A    between atoms: C_2  and  C_4
REMARK    2  A    between atoms: C_8  and  O_9
REMARK    3  A    between atoms: O_9  and  C_10
REMARK    4  A    between atoms: C_10  and  C_11
REMARK    5  A    between atoms: C_11  and  C_12
REMARK    6  A    between atoms: C_16  and  C_17
REMARK                            x       y       z     vdW  Elec       q    Type
REMARK                         _______ _______ _______ _____ _____    ______ ____
ROOT
ATOM      1  C   UNL     1      45.170   6.780  12.572  0.00  0.00    +0.000 C 
ENDROOT
BRANCH   1   2
ATOM      2  O   UNL     1      46.454   6.169  12.450  0.00  0.00    +0.000 OA
BRANCH   2   7
ATOM      3  C   UNL     1      47.739   4.952  15.620  0.00  0.00    +0.000 A 
ATOM      4  C   UNL     1      48.666   5.939  15.978  0.00  0.00    +0.000 A 
ATOM      5  C   UNL     1      48.870   7.034  15.143  0.00  0.00    +0.000 A 
ATOM      6  C   UNL     1      48.148   7.147  13.951  0.00  0.00    +0.000 A 
ATOM      7  C   UNL     1      47.215   6.171  13.593  0.00  0.00    +0.000 A 
ATOM      8  C   UNL     1      47.003   5.080  14.437  0.00  0.00    +0.000 A 
BRANCH   3  10
ATOM      9  N   UNL     1      48.701   3.186  16.993  0.00  0.00    +0.000 N 
ATOM     10  C   UNL     1      47.566   3.788  16.527  0.00  0.00    +0.000 C 
ATOM     11  O   UNL     1      46.459   3.408  16.885  0.00  0.00    +0.000 OA
ATOM     12  H   UNL     1      48.572   2.473  17.698  0.00  0.00    +0.000 HD
ATOM     13  H   UNL     1      49.611   3.618  16.924  0.00  0.00    +0.000 HD
ENDBRANCH   3  10
ENDBRANCH   2   7
ENDBRANCH   1   2
BRANCH   1  14
ATOM     14  C   UNL     1      44.345   6.530  11.310  0.00  0.00    +0.000 C 
BRANCH  14  15
ATOM     15  C   UNL     1      44.377   5.056  10.987  0.00  0.00    +0.000 A 
ATOM     16  C   UNL     1      43.518   4.178  11.657  0.00  0.00    +0.000 A 
ATOM     17  C   UNL     1      43.452   2.844  11.275  0.00  0.00    +0.000 A 
ATOM     18  C   UNL     1      44.228   2.381  10.211  0.00  0.00    +0.000 A 
ATOM     19  C   UNL     1      45.081   3.239   9.490  0.00  0.00    +0.000 A 
ATOM     20  C   UNL     1      45.159   4.576   9.919  0.00  0.00    +0.000 A 
BRANCH  19  21
ATOM     21  C   UNL     1      45.804   2.757   8.291  0.00  0.00    +0.000 A 
ATOM     22  C   UNL     1      46.224   1.420   8.198  0.00  0.00    +0.000 A 
ATOM     23  C   UNL     1      46.897   0.987   7.066  0.00  0.00    +0.000 A 
ATOM     24  N   UNL     1      47.173   1.779   6.013  0.00  0.00    +0.000 NA
ATOM     25  C   UNL     1      46.759   3.058   6.101  0.00  0.00    +0.000 A 
ATOM     26  C   UNL     1      46.085   3.585   7.197  0.00  0.00    +0.000 A 
ENDBRANCH  19  21
ENDBRANCH  14  15
ENDBRANCH   1  14
TORSDOF 6
ENDMDL
MODEL 4
REMARK VINA RESULT:    -6.877      3.331      7.617
REMARK INTER + INTRA:         -10.307
REMARK INTER:                  -9.241
REMARK INTRA:                  -1.066
REMARK UNBOUND:                -1.018
REMARK  Name = 
REMARK  6 active torsions:
REMARK  status: ('A' for Active; 'I' for Inactive)
REMARK    1  A    between atoms: C_2  and  C_4
REMARK    2  A    between atoms: C_8  and  O_9
REMARK    3  A    between atoms: O_9  and  C_10
REMARK    4  A    between atoms: C_10  and  C_11
REMARK    5  A    between atoms: C_11  and  C_12
REMARK    6  A    between atoms: C_16  and  C_17
REMARK                            x       y       z     vdW  Elec       q    Type
REMARK                         _______ _______ _______ _____ _____    ______ ____
ROOT
ATOM      1  C   UNL     1      45.497   3.151  12.958  0.00  0.00    +0.000 C 
ENDROOT
BRANCH   1   2
ATOM      2  O   UNL     1      45.186   4.358  13.653  0.00  0.00    +0.000 OA
BRANCH   2   7
ATOM      3  C   UNL     1      45.631   7.640  12.162  0.00  0.00    +0.000 A 
ATOM      4  C   UNL     1      47.010   7.849  12.281  0.00  0.00    +0.000 A 
ATOM      5  C   UNL     1      47.811   6.877  12.874  0.00  0.00    +0.000 A 
ATOM      6  C   UNL     1      47.237   5.693  13.347  0.00  0.00    +0.000 A 
ATOM      7  C   UNL     1      45.863   5.473  13.223  0.00  0.00    +0.000 A 
ATOM      8  C   UNL     1      45.064   6.444  12.617  0.00  0.00    +0.000 A 
BRANCH   3  10
ATOM      9  N   UNL     1      43.562   8.363  11.101  0.00  0.00    +0.000 N 
ATOM     10  C   UNL     1      44.808   8.711  11.544  0.00  0.00    +0.000 C 
ATOM     11  O   UNL     1      45.201   9.868  11.475  0.00  0.00    +0.000 OA
ATOM     12  H   UNL     1      42.970   9.121  10.791  0.00  0.00    +0.000 HD
ATOM     13  H   UNL     1      43.117   7.496  11.365  0.00  0.00    +0.000 HD
ENDBRANCH   3  10
ENDBRANCH   2   7
ENDBRANCH   1   2
BRANCH   1  14
ATOM     14  C   UNL     1      44.269   2.646  12.203  0.00  0.00    +0.000 C 
BRANCH  14  15
ATOM     15  C   UNL     1      44.322   3.155  10.783  0.00  0.00    +0.000 A 
ATOM     16  C   UNL     1      43.719   4.375  10.458  0.00  0.00    +0.000 A 
ATOM     17  C   UNL     1      43.873   4.910   9.185  0.00  0.00    +0.000 A 
ATOM     18  C   UNL     1      44.646   4.241   8.234  0.00  0.00    +0.000 A 
ATOM     19  C   UNL     1      45.296   3.029   8.531  0.00  0.00    +0.000 A 
ATOM     20  C   UNL     1      45.094   2.487   9.813  0.00  0.00    +0.000 A 
BRANCH  19  21
ATOM     21  C   UNL     1      46.206   2.397   7.548  0.00  0.00    +0.000 A 
ATOM     22  C   UNL     1      46.605   3.088   6.393  0.00  0.00    +0.000 A 
ATOM     23  C   UNL     1      47.460   2.481   5.487  0.00  0.00    +0.000 A 
ATOM     24  N   UNL     1      47.961   1.241   5.648  0.00  0.00    +0.000 NA
ATOM     25  C   UNL     1      47.585   0.585   6.763  0.00  0.00    +0.000 A 
ATOM     26  C   UNL     1      46.727   1.108   7.724  0.00  0.00    +0.000 A 
ENDBRANCH  19  21
ENDBRANCH  14  15
ENDBRANCH   1  14
TORSDOF 6
ENDMDL
MODEL 5
REMARK VINA RESULT:    -6.778      3.099      7.546
REMARK INTER + INTRA:         -10.175
REMARK INTER:                  -9.035
REMARK INTRA:                  -1.139
REMARK UNBOUND:                -1.018
REMARK  Name = 
REMARK  6 active torsions:
REMARK  status: ('A' for Active; 'I' for Inactive)
REMARK    1  A    between atoms: C_2  and  C_4
REMARK    2  A    between atoms: C_8  and  O_9
REMARK    3  A    between atoms: O_9  and  C_10
REMARK    4  A    between atoms: C_10  and  C_11
REMARK    5  A    between atoms: C_11  and  C_12
REMARK    6  A    between atoms: C_16  and  C_17
REMARK                            x       y       z     vdW  Elec       q    Type
REMARK                         _______ _______ _______ _____ _____    ______ ____
ROOT
ATOM      1  C   UNL     1      46.161   3.486  12.951  0.00  0.00    +0.000 C 
ENDROOT
BRANCH   1   2
ATOM      2  O   UNL     1      45.817   4.590  13.787  0.00  0.00    +0.000 OA
BRANCH   2   7
ATOM      3  C   UNL     1      47.556   7.425  12.329  0.00  0.00    +0.000 A 
ATOM      4  C   UNL     1      46.511   8.303  12.019  0.00  0.00    +0.000 A 
ATOM      5  C   UNL     1      45.195   7.942  12.298  0.00  0.00    +0.000 A 
ATOM      6  C   UNL     1      44.921   6.705  12.890  0.00  0.00    +0.000 A 
ATOM      7  C   UNL     1      45.961   5.829  13.212  0.00  0.00    +0.000 A 
ATOM      8  C   UNL     1      47.279   6.198  12.942  0.00  0.00    +0.000 A 
BRANCH   3  10
ATOM      9  N   UNL     1      49.948   6.972  12.326  0.00  0.00    +0.000 N 
ATOM     10  C   UNL     1      48.943   7.838  11.995  0.00  0.00    +0.000 C 
ATOM     11  O   UNL     1      49.181   8.884  11.406  0.00  0.00    +0.000 OA
ATOM     12  H   UNL     1      50.871   7.209  11.990  0.00  0.00    +0.000 HD
ATOM     13  H   UNL     1      49.773   6.010  12.578  0.00  0.00    +0.000 HD
ENDBRANCH   3  10
ENDBRANCH   2   7
ENDBRANCH   1   2
BRANCH   1  14
ATOM     14  C   UNL     1      44.897   2.817  12.414  0.00  0.00    +0.000 C 
BRANCH  14  15
ATOM     15  C   UNL     1      44.702   3.223  10.973  0.00  0.00    +0.000 A 
ATOM     16  C   UNL     1      43.904   4.330  10.664  0.00  0.00    +0.000 A 
ATOM     17  C   UNL     1      43.823   4.786   9.354  0.00  0.00    +0.000 A 
ATOM     18  C   UNL     1      44.553   4.151   8.347  0.00  0.00    +0.000 A 
ATOM     19  C   UNL     1      45.392   3.055   8.621  0.00  0.00    +0.000 A 
ATOM     20  C   UNL     1      45.428   2.589   9.948  0.00  0.00    +0.000 A 
BRANCH  19  21
ATOM     21  C   UNL     1      46.248   2.473   7.562  0.00  0.00    +0.000 A 
ATOM     22  C   UNL     1      46.714   1.152   7.664  0.00  0.00    +0.000 A 
ATOM     23  C   UNL     1      47.511   0.624   6.661  0.00  0.00    +0.000 A 
ATOM     24  N   UNL     1      47.871   1.304   5.556  0.00  0.00    +0.000 NA
ATOM     25  C   UNL     1      47.412   2.567   5.456  0.00  0.00    +0.000 A 
ATOM     26  C   UNL     1      46.615   3.185   6.413  0.00  0.00    +0.000 A 
ENDBRANCH  19  21
ENDBRANCH  14  15
ENDBRANCH   1  14
TORSDOF 6
ENDMDL
MODEL 6
REMARK VINA RESULT:    -6.619      4.541      7.883
REMARK INTER + INTRA:          -9.959
REMARK INTER:                  -8.832
REMARK INTRA:                  -1.127
REMARK UNBOUND:                -1.018
REMARK  Name = 
REMARK  6 active torsions:
REMARK  status: ('A' for Active; 'I' for Inactive)
REMARK    1  A    between atoms: C_2  and  C_4
REMARK    2  A    between atoms: C_8  and  O_9
REMARK    3  A    between atoms: O_9  and  C_10
REMARK    4  A    between atoms: C_10  and  C_11
REMARK    5  A    between atoms: C_11  and  C_12
REMARK    6  A    between atoms: C_16  and  C_17
REMARK                            x       y       z     vdW  Elec       q    Type
REMARK                         _______ _______ _______ _____ _____    ______ ____
ROOT
ATOM      1  C   UNL     1      48.865   7.032  16.541  0.00  0.00    +0.000 C 
ENDROOT
BRANCH   1   2
ATOM      2  O   UNL     1      49.429   6.198  17.552  0.00  0.00    +0.000 OA
BRANCH   2   7
ATOM      3  C   UNL     1      50.513   2.736  17.381  0.00  0.00    +0.000 A 
ATOM      4  C   UNL     1      49.360   2.072  16.946  0.00  0.00    +0.000 A 
ATOM      5  C   UNL     1      48.193   2.792  16.707  0.00  0.00    +0.000 A 
ATOM      6  C   UNL     1      48.175   4.177  16.900  0.00  0.00    +0.000 A 
ATOM      7  C   UNL     1      49.325   4.847  17.324  0.00  0.00    +0.000 A 
ATOM      8  C   UNL     1      50.497   4.125  17.551  0.00  0.00    +0.000 A 
BRANCH   3  10
ATOM      9  N   UNL     1      51.572   0.578  17.765  0.00  0.00    +0.000 N 
ATOM     10  C   UNL     1      51.732   1.930  17.646  0.00  0.00    +0.000 C 
ATOM     11  O   UNL     1      52.843   2.441  17.708  0.00  0.00    +0.000 OA
ATOM     12  H   UNL     1      52.419   0.030  17.828  0.00  0.00    +0.000 HD
ATOM     13  H   UNL     1      50.728   0.105  17.475  0.00  0.00    +0.000 HD
ENDBRANCH   3  10
ENDBRANCH   2   7
ENDBRANCH   1   2
BRANCH   1  14
ATOM     14  C   UNL     1      49.723   6.980  15.277  0.00  0.00    +0.000 C 
BRANCH  14  15
ATOM     15  C   UNL     1      48.821   7.047  14.069  0.00  0.00    +0.000 A 
ATOM     16  C   UNL     1      49.242   7.731  12.923  0.00  0.00    +0.000 A 
ATOM     17  C   UNL     1      48.474   7.689  11.766  0.00  0.00    +0.000 A 
ATOM     18  C   UNL     1      47.291   6.948  11.739  0.00  0.00    +0.000 A 
ATOM     19  C   UNL     1      46.849   6.220  12.859  0.00  0.00    +0.000 A 
ATOM     20  C   UNL     1      47.623   6.308  14.030  0.00  0.00    +0.000 A 
BRANCH  19  21
ATOM     21  C   UNL     1      45.657   5.346  12.772  0.00  0.00    +0.000 A 
ATOM     22  C   UNL     1      44.366   5.880  12.912  0.00  0.00    +0.000 A 
ATOM     23  C   UNL     1      43.262   5.046  12.825  0.00  0.00    +0.000 A 
ATOM     24  N   UNL     1      43.343   3.722  12.595  0.00  0.00    +0.000 NA
ATOM     25  C   UNL     1      44.583   3.215  12.450  0.00  0.00    +0.000 A 
ATOM     26  C   UNL     1      45.748   3.969  12.529  0.00  0.00    +0.000 A 
ENDBRANCH  19  21
ENDBRANCH  14  15
ENDBRANCH   1  14
TORSDOF 6
ENDMDL
MODEL 7
REMARK VINA RESULT:    -6.591      3.074      7.795
REMARK INTER + INTRA:          -9.921
REMARK INTER:                  -8.790
REMARK INTRA:                  -1.131
REMARK UNBOUND:                -1.018
REMARK  Name = 
REMARK  6 active torsions:
REMARK  status: ('A' for Active; 'I' for Inactive)
REMARK    1  A    between atoms: C_2  and  C_4
REMARK    2  A    between atoms: C_8  and  O_9
REMARK    3  A    between atoms: O_9  and  C_10
REMARK    4  A    between atoms: C_10  and  C_11
REMARK    5  A    between atoms: C_11  and  C_12
REMARK    6  A    between atoms: C_16  and  C_17
REMARK                            x       y       z     vdW  Elec       q    Type
REMARK                         _______ _______ _______ _____ _____    ______ ____
ROOT
ATOM      1  C   UNL     1      49.510   7.262  13.449  0.00  0.00    +0.000 C 
ENDROOT
BRANCH   1   2
ATOM      2  O   UNL     1      49.003   7.945  14.594  0.00  0.00    +0.000 OA
BRANCH   2   7
ATOM      3  C   UNL     1      48.135   5.002  16.537  0.00  0.00    +0.000 A 
ATOM      4  C   UNL     1      48.442   5.394  17.846  0.00  0.00    +0.000 A 
ATOM      5  C   UNL     1      48.953   6.667  18.087  0.00  0.00    +0.000 A 
ATOM      6  C   UNL     1      49.156   7.551  17.023  0.00  0.00    +0.000 A 
ATOM      7  C   UNL     1      48.842   7.170  15.716  0.00  0.00    +0.000 A 
ATOM      8  C   UNL     1      48.319   5.898  15.478  0.00  0.00    +0.000 A 
BRANCH   3  10
ATOM      9  N   UNL     1      46.938   3.046  17.353  0.00  0.00    +0.000 N 
ATOM     10  C   UNL     1      47.613   3.629  16.318  0.00  0.00    +0.000 C 
ATOM     11  O   UNL     1      47.736   3.056  15.243  0.00  0.00    +0.000 OA
ATOM     12  H   UNL     1      46.488   2.163  17.153  0.00  0.00    +0.000 HD
ATOM     13  H   UNL     1      46.605   3.573  18.147  0.00  0.00    +0.000 HD
ENDBRANCH   3  10
ENDBRANCH   2   7
ENDBRANCH   1   2
BRANCH   1  14
ATOM     14  C   UNL     1      49.015   7.936  12.170  0.00  0.00    +0.000 C 
BRANCH  14  15
ATOM     15  C   UNL     1      47.513   7.804  12.097  0.00  0.00    +0.000 A 
ATOM     16  C   UNL     1      46.711   8.950  12.136  0.00  0.00    +0.000 A 
ATOM     17  C   UNL     1      45.340   8.847  11.941  0.00  0.00    +0.000 A 
ATOM     18  C   UNL     1      44.762   7.601  11.686  0.00  0.00    +0.000 A 
ATOM     19  C   UNL     1      45.537   6.429  11.606  0.00  0.00    +0.000 A 
ATOM     20  C   UNL     1      46.917   6.553  11.845  0.00  0.00    +0.000 A 
BRANCH  19  21
ATOM     21  C   UNL     1      44.922   5.139  11.217  0.00  0.00    +0.000 A 
ATOM     22  C   UNL     1      44.148   4.410  12.134  0.00  0.00    +0.000 A 
ATOM     23  C   UNL     1      43.578   3.206  11.750  0.00  0.00    +0.000 A 
ATOM     24  N   UNL     1      43.707   2.677  10.519  0.00  0.00    +0.000 NA
ATOM     25  C   UNL     1      44.441   3.386   9.638  0.00  0.00    +0.000 A 
ATOM     26  C   UNL     1      45.057   4.597   9.932  0.00  0.00    +0.000 A 
ENDBRANCH  19  21
ENDBRANCH  14  15
ENDBRANCH   1  14
TORSDOF 6
ENDMDL
MODEL 8
REMARK VINA RESULT:    -6.583      3.555      4.654
REMARK INTER + INTRA:          -9.911
REMARK INTER:                  -9.088
REMARK INTRA:                  -0.823
REMARK UNBOUND:                -1.018
REMARK  Name = 
REMARK  6 active torsions:
REMARK  status: ('A' for Active; 'I' for Inactive)
REMARK    1  A    between atoms: C_2  and  C_4
REMARK    2  A    between atoms: C_8  and  O_9
REMARK    3  A    between atoms: O_9  and  C_10
REMARK    4  A    between atoms: C_10  and  C_11
REMARK    5  A    between atoms: C_11  and  C_12
REMARK    6  A    between atoms: C_16  and  C_17
REMARK                            x       y       z     vdW  Elec       q    Type
REMARK                         _______ _______ _______ _____ _____    ______ ____
ROOT
ATOM      1  C   UNL     1      44.531   5.317  11.029  0.00  0.00    +0.000 C 
ENDROOT
BRANCH   1   2
ATOM      2  O   UNL     1      44.960   5.286   9.668  0.00  0.00    +0.000 OA
BRANCH   2   7
ATOM      3  C   UNL     1      46.417   2.789   7.470  0.00  0.00    +0.000 A 
ATOM      4  C   UNL     1      45.874   1.593   7.957  0.00  0.00    +0.000 A 
ATOM      5  C   UNL     1      45.005   1.618   9.044  0.00  0.00    +0.000 A 
ATOM      6  C   UNL     1      44.675   2.836   9.646  0.00  0.00    +0.000 A 
ATOM      7  C   UNL     1      45.205   4.034   9.159  0.00  0.00    +0.000 A 
ATOM      8  C   UNL     1      46.066   4.007   8.062  0.00  0.00    +0.000 A 
BRANCH   3  10
ATOM      9  N   UNL     1      48.565   2.116   6.542  0.00  0.00    +0.000 N 
ATOM     10  C   UNL     1      47.358   2.718   6.323  0.00  0.00    +0.000 C 
ATOM     11  O   UNL     1      47.054   3.135   5.213  0.00  0.00    +0.000 OA
ATOM     12  H   UNL     1      49.146   1.970   5.728  0.00  0.00    +0.000 HD
ATOM     13  H   UNL     1      48.747   1.548   7.357  0.00  0.00    +0.000 HD
ENDBRANCH   3  10
ENDBRANCH   2   7
ENDBRANCH   1   2
BRANCH   1  14
ATOM     14  C   UNL     1      45.741   5.353  11.961  0.00  0.00    +0.000 C 
BRANCH  14  15
ATOM     15  C   UNL     1      46.239   6.774  12.064  0.00  0.00    +0.000 A 
ATOM     16  C   UNL     1      45.468   7.736  12.726  0.00  0.00    +0.000 A 
ATOM     17  C   UNL     1      45.976   9.012  12.936  0.00  0.00    +0.000 A 
ATOM     18  C   UNL     1      47.264   9.331  12.503  0.00  0.00    +0.000 A 
ATOM     19  C   UNL     1      48.084   8.383  11.862  0.00  0.00    +0.000 A 
ATOM     20  C   UNL     1      47.535   7.110  11.627  0.00  0.00    +0.000 A 
BRANCH  19  21
ATOM     21  C   UNL     1      49.488   8.706  11.518  0.00  0.00    +0.000 A 
ATOM     22  C   UNL     1      50.430   7.683  11.320  0.00  0.00    +0.000 A 
ATOM     23  C   UNL     1      51.738   8.005  10.995  0.00  0.00    +0.000 A 
ATOM     24  N   UNL     1      52.181   9.267  10.839  0.00  0.00    +0.000 NA
ATOM     25  C   UNL     1      51.271  10.245  11.018  0.00  0.00    +0.000 A 
ATOM     26  C   UNL     1      49.941  10.021  11.352  0.00  0.00    +0.000 A 
ENDBRANCH  19  21
ENDBRANCH  14  15
ENDBRANCH   1  14
TORSDOF 6
ENDMDL
MODEL 9
REMARK VINA RESULT:    -6.580      3.427      5.612
REMARK INTER + INTRA:          -9.906
REMARK INTER:                  -9.240
REMARK INTRA:                  -0.666
REMARK UNBOUND:                -1.018
REMARK  Name = 
REMARK  6 active torsions:
REMARK  status: ('A' for Active; 'I' for Inactive)
REMARK    1  A    between atoms: C_2  and  C_4
REMARK    2  A    between atoms: C_8  and  O_9
REMARK    3  A    between atoms: O_9  and  C_10
REMARK    4  A    between atoms: C_10  and  C_11
REMARK    5  A    between atoms: C_11  and  C_12
REMARK    6  A    between atoms: C_16  and  C_17
REMARK                            x       y       z     vdW  Elec       q    Type
REMARK                         _______ _______ _______ _____ _____    ______ ____
ROOT
ATOM      1  C   UNL     1      46.975   4.141  15.675  0.00  0.00    +0.000 C 
ENDROOT
BRANCH   1   2
ATOM      2  O   UNL     1      47.038   3.549  14.378  0.00  0.00    +0.000 OA
BRANCH   2   7
ATOM      3  C   UNL     1      45.049   4.531  11.502  0.00  0.00    +0.000 A 
ATOM      4  C   UNL     1      45.555   5.800  11.195  0.00  0.00    +0.000 A 
ATOM      5  C   UNL     1      46.580   6.344  11.966  0.00  0.00    +0.000 A 
ATOM      6  C   UNL     1      47.103   5.620  13.042  0.00  0.00    +0.000 A 
ATOM      7  C   UNL     1      46.610   4.349  13.347  0.00  0.00    +0.000 A 
ATOM      8  C   UNL     1      45.591   3.802  12.566  0.00  0.00    +0.000 A 
BRANCH   3  10
ATOM      9  N   UNL     1      43.879   4.413   9.371  0.00  0.00    +0.000 N 
ATOM     10  C   UNL     1      43.941   3.996  10.671  0.00  0.00    +0.000 C 
ATOM     11  O   UNL     1      43.143   3.178  11.109  0.00  0.00    +0.000 OA
ATOM     12  H   UNL     1      43.195   3.954   8.786  0.00  0.00    +0.000 HD
ATOM     13  H   UNL     1      44.650   4.879   8.914  0.00  0.00    +0.000 HD
ENDBRANCH   3  10
ENDBRANCH   2   7
ENDBRANCH   1   2
BRANCH   1  14
ATOM     14  C   UNL     1      47.628   3.221  16.706  0.00  0.00    +0.000 C 
BRANCH  14  15
ATOM     15  C   UNL     1      49.021   3.724  17.000  0.00  0.00    +0.000 A 
ATOM     16  C   UNL     1      49.243   5.094  17.175  0.00  0.00    +0.000 A 
ATOM     17  C   UNL     1      50.494   5.551  17.571  0.00  0.00    +0.000 A 
ATOM     18  C   UNL     1      51.526   4.641  17.813  0.00  0.00    +0.000 A 
ATOM     19  C   UNL     1      51.334   3.254  17.679  0.00  0.00    +0.000 A 
ATOM     20  C   UNL     1      50.071   2.818  17.241  0.00  0.00    +0.000 A 
BRANCH  19  21
ATOM     21  C   UNL     1      52.404   2.301  18.055  0.00  0.00    +0.000 A 
ATOM     22  C   UNL     1      53.496   2.721  18.831  0.00  0.00    +0.000 A 
ATOM     23  C   UNL     1      54.487   1.814  19.175  0.00  0.00    +0.000 A 
ATOM     24  N   UNL     1      54.467   0.516  18.818  0.00  0.00    +0.000 NA
ATOM     25  C   UNL     1      53.411   0.114  18.083  0.00  0.00    +0.000 A 
ATOM     26  C   UNL     1      52.376   0.950  17.683  0.00  0.00    +0.000 A 
ENDBRANCH  19  21
ENDBRANCH  14  15
ENDBRANCH   1  14
TORSDOF 6
ENDMDL
