MODEL 1
REMARK VINA RESULT:    -8.211      0.000      0.000
REMARK INTER + INTRA:         -13.782
REMARK INTER:                 -12.531
REMARK INTRA:                  -1.251
REMARK UNBOUND:                -1.251
REMARK  Name = 
REMARK  9 active torsions:
REMARK  status: ('A' for Active; 'I' for Inactive)
REMARK    1  A    between atoms: C_2  and  C_3
REMARK    2  A    between atoms: C_3  and  N_4
REMARK    3  A    between atoms: N_4  and  C_5
REMARK    4  A    between atoms: N_4  and  C_12
REMARK    5  A    between atoms: C_5  and  C_6
REMARK    6  A    between atoms: C_12  and  C_13
REMARK    7  A    between atoms: C_16  and  C_17
REMARK    8  A    between atoms: C_17  and  N_18
REMARK    9  A    between atoms: C_19  and  C_21
REMARK                            x       y       z     vdW  Elec       q    Type
REMARK                         _______ _______ _______ _____ _____    ______ ____
ROOT
ATOM      1  C   UNL     1      44.873   6.135  11.076  0.00  0.00    +0.000 A 
ATOM      2  C   UNL     1      44.400   7.297  11.705  0.00  0.00    +0.000 A 
ATOM      3  C   UNL     1      45.255   8.074  12.488  0.00  0.00    +0.000 A 
ATOM      4  C   UNL     1      46.596   7.702  12.649  0.00  0.00    +0.000 A 
ATOM      5  C   UNL     1      47.067   6.548  12.009  0.00  0.00    +0.000 A 
ATOM      6  C   UNL     1      46.214   5.772  11.225  0.00  0.00    +0.000 A 
ENDROOT
BRANCH   1   7
ATOM      7  C   UNL     1      43.931   5.240  10.303  0.00  0.00    +0.000 C 
BRANCH   7   8
ATOM      8  N   UNL     1      44.526   3.943   9.941  0.00  0.00    +0.000 NA
BRANCH   8   9
ATOM      9  C   UNL     1      43.851   2.845  10.691  0.00  0.00    +0.000 C 
BRANCH   9  11
ATOM     10  N   UNL     1      43.539   3.498  13.376  0.00  0.00    +0.000 NA
ATOM     11  C   UNL     1      43.681   3.202  12.159  0.00  0.00    +0.000 C 
ENDBRANCH   9  11
ENDBRANCH   8   9
BRANCH   8  12
ATOM     12  C   UNL     1      44.465   3.731   8.472  0.00  0.00    +0.000 C 
BRANCH  12  13
ATOM     13  C   UNL     1      45.645   2.947   7.918  0.00  0.00    +0.000 A 
ATOM     14  C   UNL     1      46.508   3.519   6.970  0.00  0.00    +0.000 A 
ATOM     15  C   UNL     1      47.529   2.761   6.390  0.00  0.00    +0.000 A 
ATOM     16  C   UNL     1      47.710   1.431   6.761  0.00  0.00    +0.000 A 
ATOM     17  C   UNL     1      46.888   0.863   7.732  0.00  0.00    +0.000 A 
ATOM     18  C   UNL     1      45.865   1.617   8.312  0.00  0.00    +0.000 A 
ENDBRANCH  12  13
ENDBRANCH   8  12
ENDBRANCH   7   8
ENDBRANCH   1   7
BRANCH   4  19
ATOM     19  C   UNL     1      47.501   8.465  13.579  0.00  0.00    +0.000 C 
BRANCH  19  20
ATOM     20  N   UNL     1      47.805   7.670  14.742  0.00  0.00    +0.000 N 
ATOM     21  C   UNL     1      49.042   7.117  14.932  0.00  0.00    +0.000 C 
ATOM     22  O   UNL     1      49.961   7.288  14.133  0.00  0.00    +0.000 OA
ATOM     23  H   UNL     1      47.017   7.335  15.288  0.00  0.00    +0.000 HD
BRANCH  21  24
ATOM     24  C   UNL     1      49.236   6.364  16.176  0.00  0.00    +0.000 A 
ATOM     25  C   UNL     1      50.210   6.766  17.080  0.00  0.00    +0.000 A 
ATOM     26  S   UNL     1      50.258   5.823  18.499  0.00  0.00    +0.000 S 
ATOM     27  C   UNL     1      49.018   4.807  17.933  0.00  0.00    +0.000 A 
ATOM     28  N   UNL     1      48.579   3.754  18.675  0.00  0.00    +0.000 NA
ATOM     29  C   UNL     1      47.655   3.052  18.111  0.00  0.00    +0.000 A 
ATOM     30  N   UNL     1      47.126   3.307  16.872  0.00  0.00    +0.000 N 
ATOM     31  C   UNL     1      47.514   4.374  16.098  0.00  0.00    +0.000 A 
ATOM     32  O   UNL     1      46.991   4.596  15.012  0.00  0.00    +0.000 OA
ATOM     33  C   UNL     1      48.560   5.193  16.684  0.00  0.00    +0.000 A 
ATOM     34  H   UNL     1      46.397   2.723  16.491  0.00  0.00    +0.000 HD
ENDBRANCH  21  24
ENDBRANCH  19  20
ENDBRANCH   4  19
TORSDOF 9
ENDMDL
MODEL 2
REMARK VINA RESULT:    -7.651      1.293      1.617
REMARK INTER + INTRA:         -12.928
REMARK INTER:                 -11.328
REMARK INTRA:                  -1.600
REMARK UNBOUND:                -1.251
REMARK  Name = 
REMARK  9 active torsions:
REMARK  status: ('A' for Active; 'I' for Inactive)
REMARK    1  A    between atoms: C_2  and  C_3
REMARK    2  A    between atoms: C_3  and  N_4
REMARK    3  A    between atoms: N_4  and  C_5
REMARK    4  A    between atoms: N_4  and  C_12
REMARK    5  A    between atoms: C_5  and  C_6
REMARK    6  A    between atoms: C_12  and  C_13
REMARK    7  A    between atoms: C_16  and  C_17
REMARK    8  A    between atoms: C_17  and  N_18
REMARK    9  A    between atoms: C_19  and  C_21
REMARK                            x       y       z     vdW  Elec       q    Type
REMARK                         _______ _______ _______ _____ _____    ______ ____
ROOT
ATOM      1  C   UNL     1      45.627   6.846  11.523  0.00  0.00    +0.000 A 
ATOM      2  C   UNL     1      45.312   7.765  12.534  0.00  0.00    +0.000 A 
ATOM      3  C   UNL     1      46.326   8.406  13.248  0.00  0.00    +0.000 A 
ATOM      4  C   UNL     1      47.670   8.137  12.958  0.00  0.00    +0.000 A 
ATOM      5  C   UNL     1      47.981   7.227  11.939  0.00  0.00    +0.000 A 
ATOM      6  C   UNL     1      46.968   6.589  11.223  0.00  0.00    +0.000 A 
ENDROOT
BRANCH   1   7
ATOM      7  C   UNL     1      44.536   6.081  10.808  0.00  0.00    +0.000 C 
BRANCH   7   8
ATOM      8  N   UNL     1      44.879   4.671  10.559  0.00  0.00    +0.000 NA
BRANCH   8   9
ATOM      9  C   UNL     1      44.361   3.817  11.665  0.00  0.00    +0.000 C 
BRANCH   9  11
ATOM     10  N   UNL     1      46.402   3.054  13.394  0.00  0.00    +0.000 NA
ATOM     11  C   UNL     1      45.477   3.401  12.611  0.00  0.00    +0.000 C 
ENDBRANCH   9  11
ENDBRANCH   8   9
BRANCH   8  12
ATOM     12  C   UNL     1      44.368   4.236   9.235  0.00  0.00    +0.000 C 
BRANCH  12  13
ATOM     13  C   UNL     1      45.336   3.346   8.469  0.00  0.00    +0.000 A 
ATOM     14  C   UNL     1      45.391   1.965   8.713  0.00  0.00    +0.000 A 
ATOM     15  C   UNL     1      46.350   1.169   8.081  0.00  0.00    +0.000 A 
ATOM     16  C   UNL     1      47.254   1.740   7.187  0.00  0.00    +0.000 A 
ATOM     17  C   UNL     1      47.184   3.102   6.904  0.00  0.00    +0.000 A 
ATOM     18  C   UNL     1      46.227   3.900   7.536  0.00  0.00    +0.000 A 
ENDBRANCH  12  13
ENDBRANCH   8  12
ENDBRANCH   7   8
ENDBRANCH   1   7
BRANCH   4  19
ATOM     19  C   UNL     1      48.773   8.732  13.793  0.00  0.00    +0.000 C 
BRANCH  19  20
ATOM     20  N   UNL     1      49.063   7.878  14.916  0.00  0.00    +0.000 N 
ATOM     21  C   UNL     1      48.679   8.207  16.188  0.00  0.00    +0.000 C 
ATOM     22  O   UNL     1      48.053   9.236  16.433  0.00  0.00    +0.000 OA
ATOM     23  H   UNL     1      49.759   7.153  14.775  0.00  0.00    +0.000 HD
BRANCH  21  24
ATOM     24  C   UNL     1      48.998   7.234  17.238  0.00  0.00    +0.000 A 
ATOM     25  C   UNL     1      49.613   7.659  18.408  0.00  0.00    +0.000 A 
ATOM     26  S   UNL     1      49.851   6.415  19.549  0.00  0.00    +0.000 S 
ATOM     27  C   UNL     1      49.193   5.251  18.499  0.00  0.00    +0.000 A 
ATOM     28  N   UNL     1      49.115   3.942  18.861  0.00  0.00    +0.000 NA
ATOM     29  C   UNL     1      48.620   3.165  17.958  0.00  0.00    +0.000 A 
ATOM     30  N   UNL     1      48.193   3.578  16.722  0.00  0.00    +0.000 N 
ATOM     31  C   UNL     1      48.223   4.892  16.320  0.00  0.00    +0.000 A 
ATOM     32  O   UNL     1      47.794   5.231  15.224  0.00  0.00    +0.000 OA
ATOM     33  C   UNL     1      48.779   5.807  17.299  0.00  0.00    +0.000 A 
ATOM     34  H   UNL     1      47.806   2.920  16.063  0.00  0.00    +0.000 HD
ENDBRANCH  21  24
ENDBRANCH  19  20
ENDBRANCH   4  19
TORSDOF 9
ENDMDL
MODEL 3
REMARK VINA RESULT:    -7.075      3.748     10.091
REMARK INTER + INTRA:         -12.048
REMARK INTER:                  -9.981
REMARK INTRA:                  -2.067
REMARK UNBOUND:                -1.251
REMARK  Name = 
REMARK  9 active torsions:
REMARK  status: ('A' for Active; 'I' for Inactive)
REMARK    1  A    between atoms: C_2  and  C_3
REMARK    2  A    between atoms: C_3  and  N_4
REMARK    3  A    between atoms: N_4  and  C_5
REMARK    4  A    between atoms: N_4  and  C_12
REMARK    5  A    between atoms: C_5  and  C_6
REMARK    6  A    between atoms: C_12  and  C_13
REMARK    7  A    between atoms: C_16  and  C_17
REMARK    8  A    between atoms: C_17  and  N_18
REMARK    9  A    between atoms: C_19  and  C_21
REMARK                            x       y       z     vdW  Elec       q    Type
REMARK                         _______ _______ _______ _____ _____    ______ ____
ROOT
ATOM      1  C   UNL     1      51.366   4.446  17.755  0.00  0.00    +0.000 A 
ATOM      2  C   UNL     1      50.939   3.110  17.732  0.00  0.00    +0.000 A 
ATOM      3  C   UNL     1      49.639   2.790  17.339  0.00  0.00    +0.000 A 
ATOM      4  C   UNL     1      48.748   3.803  16.961  0.00  0.00    +0.000 A 
ATOM      5  C   UNL     1      49.181   5.135  16.973  0.00  0.00    +0.000 A 
ATOM      6  C   UNL     1      50.482   5.456  17.363  0.00  0.00    +0.000 A 
ENDROOT
BRANCH   1   7
ATOM      7  C   UNL     1      52.742   4.807  18.267  0.00  0.00    +0.000 C 
BRANCH   7   8
ATOM      8  N   UNL     1      52.974   4.393  19.660  0.00  0.00    +0.000 NA
BRANCH   8   9
ATOM      9  C   UNL     1      54.349   3.837  19.805  0.00  0.00    +0.000 C 
BRANCH   9  11
ATOM     10  N   UNL     1      54.391   1.099  19.320  0.00  0.00    +0.000 NA
ATOM     11  C   UNL     1      54.372   2.340  19.539  0.00  0.00    +0.000 C 
ENDBRANCH   9  11
ENDBRANCH   8   9
BRANCH   8  12
ATOM     12  C   UNL     1      52.731   5.525  20.590  0.00  0.00    +0.000 C 
BRANCH  12  13
ATOM     13  C   UNL     1      51.256   5.831  20.809  0.00  0.00    +0.000 A 
ATOM     14  C   UNL     1      50.366   4.824  21.214  0.00  0.00    +0.000 A 
ATOM     15  C   UNL     1      48.997   5.085  21.316  0.00  0.00    +0.000 A 
ATOM     16  C   UNL     1      48.504   6.357  21.031  0.00  0.00    +0.000 A 
ATOM     17  C   UNL     1      49.382   7.376  20.668  0.00  0.00    +0.000 A 
ATOM     18  C   UNL     1      50.751   7.117  20.564  0.00  0.00    +0.000 A 
ENDBRANCH  12  13
ENDBRANCH   8  12
ENDBRANCH   7   8
ENDBRANCH   1   7
BRANCH   4  19
ATOM     19  C   UNL     1      47.310   3.486  16.643  0.00  0.00    +0.000 C 
BRANCH  19  20
ATOM     20  N   UNL     1      46.787   4.444  15.702  0.00  0.00    +0.000 N 
ATOM     21  C   UNL     1      46.761   4.189  14.357  0.00  0.00    +0.000 C 
ATOM     22  O   UNL     1      47.163   3.127  13.888  0.00  0.00    +0.000 OA
ATOM     23  H   UNL     1      46.663   5.395  16.035  0.00  0.00    +0.000 HD
BRANCH  21  24
ATOM     24  C   UNL     1      46.166   5.227  13.508  0.00  0.00    +0.000 A 
ATOM     25  C   UNL     1      46.865   6.402  13.264  0.00  0.00    +0.000 A 
ATOM     26  S   UNL     1      46.061   7.470  12.207  0.00  0.00    +0.000 S 
ATOM     27  C   UNL     1      44.723   6.429  12.082  0.00  0.00    +0.000 A 
ATOM     28  N   UNL     1      43.642   6.761  11.325  0.00  0.00    +0.000 NA
ATOM     29  C   UNL     1      42.689   5.891  11.344  0.00  0.00    +0.000 A 
ATOM     30  N   UNL     1      42.717   4.716  12.050  0.00  0.00    +0.000 N 
ATOM     31  C   UNL     1      43.797   4.322  12.804  0.00  0.00    +0.000 A 
ATOM     32  O   UNL     1      43.804   3.246  13.390  0.00  0.00    +0.000 OA
ATOM     33  C   UNL     1      44.895   5.271  12.823  0.00  0.00    +0.000 A 
ATOM     34  H   UNL     1      41.941   4.074  12.014  0.00  0.00    +0.000 HD
ENDBRANCH  21  24
ENDBRANCH  19  20
ENDBRANCH   4  19
TORSDOF 9
ENDMDL
MODEL 4
REMARK VINA RESULT:    -6.904      2.504      3.008
REMARK INTER + INTRA:         -11.787
REMARK INTER:                 -10.698
REMARK INTRA:                  -1.089
REMARK UNBOUND:                -1.251
REMARK  Name = 
REMARK  9 active torsions:
REMARK  status: ('A' for Active; 'I' for Inactive)
REMARK    1  A    between atoms: C_2  and  C_3
REMARK    2  A    between atoms: C_3  and  N_4
REMARK    3  A    between atoms: N_4  and  C_5
REMARK    4  A    between atoms: N_4  and  C_12
REMARK    5  A    between atoms: C_5  and  C_6
REMARK    6  A    between atoms: C_12  and  C_13
REMARK    7  A    between atoms: C_16  and  C_17
REMARK    8  A    between atoms: C_17  and  N_18
REMARK    9  A    between atoms: C_19  and  C_21
REMARK                            x       y       z     vdW  Elec       q    Type
REMARK                         _______ _______ _______ _____ _____    ______ ____
ROOT
ATOM      1  C   UNL     1      45.614   6.781  11.508  0.00  0.00    +0.000 A 
ATOM      2  C   UNL     1      45.082   7.757  12.363  0.00  0.00    +0.000 A 
ATOM      3  C   UNL     1      45.923   8.525  13.170  0.00  0.00    +0.000 A 
ATOM      4  C   UNL     1      47.309   8.328  13.131  0.00  0.00    +0.000 A 
ATOM      5  C   UNL     1      47.839   7.361  12.266  0.00  0.00    +0.000 A 
ATOM      6  C   UNL     1      46.999   6.595  11.457  0.00  0.00    +0.000 A 
ENDROOT
BRANCH   1   7
ATOM      7  C   UNL     1      44.704   5.884  10.700  0.00  0.00    +0.000 C 
BRANCH   7   8
ATOM      8  N   UNL     1      45.236   4.524  10.518  0.00  0.00    +0.000 NA
BRANCH   8   9
ATOM      9  C   UNL     1      45.078   3.742  11.777  0.00  0.00    +0.000 C 
BRANCH   9  11
ATOM     10  N   UNL     1      42.852   2.079  11.664  0.00  0.00    +0.000 NA
ATOM     11  C   UNL     1      43.861   2.833  11.715  0.00  0.00    +0.000 C 
ENDBRANCH   9  11
ENDBRANCH   8   9
BRANCH   8  12
ATOM     12  C   UNL     1      44.583   3.856   9.364  0.00  0.00    +0.000 C 
BRANCH  12  13
ATOM     13  C   UNL     1      45.552   3.102   8.465  0.00  0.00    +0.000 A 
ATOM     14  C   UNL     1      46.214   3.755   7.413  0.00  0.00    +0.000 A 
ATOM     15  C   UNL     1      47.025   3.038   6.530  0.00  0.00    +0.000 A 
ATOM     16  C   UNL     1      47.196   1.665   6.695  0.00  0.00    +0.000 A 
ATOM     17  C   UNL     1      46.579   1.012   7.759  0.00  0.00    +0.000 A 
ATOM     18  C   UNL     1      45.766   1.727   8.643  0.00  0.00    +0.000 A 
ENDBRANCH  12  13
ENDBRANCH   8  12
ENDBRANCH   7   8
ENDBRANCH   1   7
BRANCH   4  19
ATOM     19  C   UNL     1      48.220   9.068  14.075  0.00  0.00    +0.000 C 
BRANCH  19  20
ATOM     20  N   UNL     1      47.949   8.676  15.435  0.00  0.00    +0.000 N 
ATOM     21  C   UNL     1      48.833   7.919  16.155  0.00  0.00    +0.000 C 
ATOM     22  O   UNL     1      49.908   7.552  15.686  0.00  0.00    +0.000 OA
ATOM     23  H   UNL     1      46.992   8.773  15.759  0.00  0.00    +0.000 HD
BRANCH  21  24
ATOM     24  C   UNL     1      48.460   7.622  17.542  0.00  0.00    +0.000 A 
ATOM     25  C   UNL     1      48.556   6.322  18.018  0.00  0.00    +0.000 A 
ATOM     26  S   UNL     1      48.148   6.164  19.666  0.00  0.00    +0.000 S 
ATOM     27  C   UNL     1      47.772   7.817  19.789  0.00  0.00    +0.000 A 
ATOM     28  N   UNL     1      47.327   8.351  20.959  0.00  0.00    +0.000 NA
ATOM     29  C   UNL     1      47.054   9.611  20.901  0.00  0.00    +0.000 A 
ATOM     30  N   UNL     1      47.184  10.388  19.779  0.00  0.00    +0.000 N 
ATOM     31  C   UNL     1      47.657   9.903  18.583  0.00  0.00    +0.000 A 
ATOM     32  O   UNL     1      47.799  10.635  17.612  0.00  0.00    +0.000 OA
ATOM     33  C   UNL     1      47.972   8.486  18.592  0.00  0.00    +0.000 A 
ATOM     34  H   UNL     1      46.961  11.372  19.804  0.00  0.00    +0.000 HD
ENDBRANCH  21  24
ENDBRANCH  19  20
ENDBRANCH   4  19
TORSDOF 9
ENDMDL
MODEL 5
REMARK VINA RESULT:    -6.800      3.011      8.389
REMARK INTER + INTRA:         -11.629
REMARK INTER:                  -9.659
REMARK INTRA:                  -1.970
REMARK UNBOUND:                -1.251
REMARK  Name = 
REMARK  9 active torsions:
REMARK  status: ('A' for Active; 'I' for Inactive)
REMARK    1  A    between atoms: C_2  and  C_3
REMARK    2  A    between atoms: C_3  and  N_4
REMARK    3  A    between atoms: N_4  and  C_5
REMARK    4  A    between atoms: N_4  and  C_12
REMARK    5  A    between atoms: C_5  and  C_6
REMARK    6  A    between atoms: C_12  and  C_13
REMARK    7  A    between atoms: C_16  and  C_17
REMARK    8  A    between atoms: C_17  and  N_18
REMARK    9  A    between atoms: C_19  and  C_21
REMARK                            x       y       z     vdW  Elec       q    Type
REMARK                         _______ _______ _______ _____ _____    ______ ____
ROOT
ATOM      1  C   UNL     1      49.410   8.151  15.820  0.00  0.00    +0.000 A 
ATOM      2  C   UNL     1      50.009   7.331  14.852  0.00  0.00    +0.000 A 
ATOM      3  C   UNL     1      49.499   7.281  13.554  0.00  0.00    +0.000 A 
ATOM      4  C   UNL     1      48.384   8.053  13.205  0.00  0.00    +0.000 A 
ATOM      5  C   UNL     1      47.796   8.881  14.171  0.00  0.00    +0.000 A 
ATOM      6  C   UNL     1      48.307   8.934  15.468  0.00  0.00    +0.000 A 
ENDROOT
BRANCH   1   7
ATOM      7  C   UNL     1      49.901   8.141  17.250  0.00  0.00    +0.000 C 
BRANCH   7   8
ATOM      8  N   UNL     1      50.635   6.915  17.606  0.00  0.00    +0.000 NA
BRANCH   8   9
ATOM      9  C   UNL     1      51.901   7.266  18.311  0.00  0.00    +0.000 C 
BRANCH   9  11
ATOM     10  N   UNL     1      53.085   5.019  19.444  0.00  0.00    +0.000 NA
ATOM     11  C   UNL     1      52.549   6.037  18.930  0.00  0.00    +0.000 C 
ENDBRANCH   9  11
ENDBRANCH   8   9
BRANCH   8  12
ATOM     12  C   UNL     1      49.781   6.010  18.415  0.00  0.00    +0.000 C 
BRANCH  12  13
ATOM     13  C   UNL     1      49.295   4.786  17.653  0.00  0.00    +0.000 A 
ATOM     14  C   UNL     1      48.101   4.825  16.916  0.00  0.00    +0.000 A 
ATOM     15  C   UNL     1      47.607   3.672  16.302  0.00  0.00    +0.000 A 
ATOM     16  C   UNL     1      48.306   2.471  16.403  0.00  0.00    +0.000 A 
ATOM     17  C   UNL     1      49.513   2.427  17.096  0.00  0.00    +0.000 A 
ATOM     18  C   UNL     1      50.009   3.579  17.713  0.00  0.00    +0.000 A 
ENDBRANCH  12  13
ENDBRANCH   8  12
ENDBRANCH   7   8
ENDBRANCH   1   7
BRANCH   4  19
ATOM     19  C   UNL     1      47.754   7.926  11.844  0.00  0.00    +0.000 C 
BRANCH  19  20
ATOM     20  N   UNL     1      47.021   6.689  11.749  0.00  0.00    +0.000 N 
ATOM     21  C   UNL     1      45.653   6.661  11.759  0.00  0.00    +0.000 C 
ATOM     22  O   UNL     1      44.981   7.688  11.829  0.00  0.00    +0.000 OA
ATOM     23  H   UNL     1      47.542   5.833  11.915  0.00  0.00    +0.000 HD
BRANCH  21  24
ATOM     24  C   UNL     1      45.026   5.342  11.614  0.00  0.00    +0.000 A 
ATOM     25  C   UNL     1      44.358   4.775  12.691  0.00  0.00    +0.000 A 
ATOM     26  S   UNL     1      43.632   3.275  12.334  0.00  0.00    +0.000 S 
ATOM     27  C   UNL     1      44.234   3.300  10.744  0.00  0.00    +0.000 A 
ATOM     28  N   UNL     1      43.989   2.274   9.884  0.00  0.00    +0.000 NA
ATOM     29  C   UNL     1      44.529   2.411   8.721  0.00  0.00    +0.000 A 
ATOM     30  N   UNL     1      45.293   3.482   8.335  0.00  0.00    +0.000 N 
ATOM     31  C   UNL     1      45.544   4.556   9.156  0.00  0.00    +0.000 A 
ATOM     32  O   UNL     1      46.197   5.516   8.765  0.00  0.00    +0.000 OA
ATOM     33  C   UNL     1      44.964   4.447  10.482  0.00  0.00    +0.000 A 
ATOM     34  H   UNL     1      45.680   3.533   7.405  0.00  0.00    +0.000 HD
ENDBRANCH  21  24
ENDBRANCH  19  20
ENDBRANCH   4  19
TORSDOF 9
ENDMDL
MODEL 6
REMARK VINA RESULT:    -6.763      3.496      8.518
REMARK INTER + INTRA:         -11.572
REMARK INTER:                  -9.167
REMARK INTRA:                  -2.405
REMARK UNBOUND:                -1.251
REMARK  Name = 
REMARK  9 active torsions:
REMARK  status: ('A' for Active; 'I' for Inactive)
REMARK    1  A    between atoms: C_2  and  C_3
REMARK    2  A    between atoms: C_3  and  N_4
REMARK    3  A    between atoms: N_4  and  C_5
REMARK    4  A    between atoms: N_4  and  C_12
REMARK    5  A    between atoms: C_5  and  C_6
REMARK    6  A    between atoms: C_12  and  C_13
REMARK    7  A    between atoms: C_16  and  C_17
REMARK    8  A    between atoms: C_17  and  N_18
REMARK    9  A    between atoms: C_19  and  C_21
REMARK                            x       y       z     vdW  Elec       q    Type
REMARK                         _______ _______ _______ _____ _____    ______ ____
ROOT
ATOM      1  C   UNL     1      49.490   7.451  18.540  0.00  0.00    +0.000 A 
ATOM      2  C   UNL     1      50.252   6.938  17.480  0.00  0.00    +0.000 A 
ATOM      3  C   UNL     1      49.970   7.304  16.164  0.00  0.00    +0.000 A 
ATOM      4  C   UNL     1      48.922   8.191  15.889  0.00  0.00    +0.000 A 
ATOM      5  C   UNL     1      48.170   8.713  16.950  0.00  0.00    +0.000 A 
ATOM      6  C   UNL     1      48.454   8.349  18.267  0.00  0.00    +0.000 A 
ENDROOT
BRANCH   1   7
ATOM      7  C   UNL     1      49.731   6.989  19.959  0.00  0.00    +0.000 C 
BRANCH   7   8
ATOM      8  N   UNL     1      50.046   5.554  20.059  0.00  0.00    +0.000 NA
BRANCH   8   9
ATOM      9  C   UNL     1      50.910   5.304  21.248  0.00  0.00    +0.000 C 
BRANCH   9  11
ATOM     10  N   UNL     1      53.237   3.954  20.542  0.00  0.00    +0.000 NA
ATOM     11  C   UNL     1      52.182   4.565  20.861  0.00  0.00    +0.000 C 
ENDBRANCH   9  11
ENDBRANCH   8   9
BRANCH   8  12
ATOM     12  C   UNL     1      48.801   4.747  20.097  0.00  0.00    +0.000 C 
BRANCH  12  13
ATOM     13  C   UNL     1      48.419   4.149  18.751  0.00  0.00    +0.000 A 
ATOM     14  C   UNL     1      49.155   3.088  18.200  0.00  0.00    +0.000 A 
ATOM     15  C   UNL     1      48.863   2.610  16.921  0.00  0.00    +0.000 A 
ATOM     16  C   UNL     1      47.824   3.173  16.183  0.00  0.00    +0.000 A 
ATOM     17  C   UNL     1      47.058   4.198  16.734  0.00  0.00    +0.000 A 
ATOM     18  C   UNL     1      47.349   4.680  18.013  0.00  0.00    +0.000 A 
ENDBRANCH  12  13
ENDBRANCH   8  12
ENDBRANCH   7   8
ENDBRANCH   1   7
BRANCH   4  19
ATOM     19  C   UNL     1      48.532   8.508  14.469  0.00  0.00    +0.000 C 
BRANCH  19  20
ATOM     20  N   UNL     1      47.499   7.608  14.025  0.00  0.00    +0.000 N 
ATOM     21  C   UNL     1      47.777   6.536  13.220  0.00  0.00    +0.000 C 
ATOM     22  O   UNL     1      48.921   6.275  12.854  0.00  0.00    +0.000 OA
ATOM     23  H   UNL     1      46.539   7.924  14.125  0.00  0.00    +0.000 HD
BRANCH  21  24
ATOM     24  C   UNL     1      46.644   5.671  12.871  0.00  0.00    +0.000 A 
ATOM     25  C   UNL     1      46.730   4.302  13.086  0.00  0.00    +0.000 A 
ATOM     26  S   UNL     1      45.305   3.455  12.689  0.00  0.00    +0.000 S 
ATOM     27  C   UNL     1      44.540   4.879  12.162  0.00  0.00    +0.000 A 
ATOM     28  N   UNL     1      43.273   4.853  11.666  0.00  0.00    +0.000 NA
ATOM     29  C   UNL     1      42.827   6.000  11.277  0.00  0.00    +0.000 A 
ATOM     30  N   UNL     1      43.533   7.174  11.339  0.00  0.00    +0.000 N 
ATOM     31  C   UNL     1      44.803   7.257  11.858  0.00  0.00    +0.000 A 
ATOM     32  O   UNL     1      45.389   8.330  11.936  0.00  0.00    +0.000 OA
ATOM     33  C   UNL     1      45.355   5.990  12.303  0.00  0.00    +0.000 A 
ATOM     34  H   UNL     1      43.122   8.040  11.026  0.00  0.00    +0.000 HD
ENDBRANCH  21  24
ENDBRANCH  19  20
ENDBRANCH   4  19
TORSDOF 9
ENDMDL
MODEL 7
REMARK VINA RESULT:    -6.667      3.468      8.232
REMARK INTER + INTRA:         -11.426
REMARK INTER:                  -8.966
REMARK INTRA:                  -2.460
REMARK UNBOUND:                -1.251
REMARK  Name = 
REMARK  9 active torsions:
REMARK  status: ('A' for Active; 'I' for Inactive)
REMARK    1  A    between atoms: C_2  and  C_3
REMARK    2  A    between atoms: C_3  and  N_4
REMARK    3  A    between atoms: N_4  and  C_5
REMARK    4  A    between atoms: N_4  and  C_12
REMARK    5  A    between atoms: C_5  and  C_6
REMARK    6  A    between atoms: C_12  and  C_13
REMARK    7  A    between atoms: C_16  and  C_17
REMARK    8  A    between atoms: C_17  and  N_18
REMARK    9  A    between atoms: C_19  and  C_21
REMARK                            x       y       z     vdW  Elec       q    Type
REMARK                         _______ _______ _______ _____ _____    ______ ____
ROOT
ATOM      1  C   UNL     1      51.042   7.002  17.232  0.00  0.00    +0.000 A 
ATOM      2  C   UNL     1      50.108   7.839  17.862  0.00  0.00    +0.000 A 
ATOM      3  C   UNL     1      49.149   8.519  17.111  0.00  0.00    +0.000 A 
ATOM      4  C   UNL     1      49.109   8.370  15.719  0.00  0.00    +0.000 A 
ATOM      5  C   UNL     1      50.035   7.524  15.094  0.00  0.00    +0.000 A 
ATOM      6  C   UNL     1      50.992   6.841  15.845  0.00  0.00    +0.000 A 
ENDROOT
BRANCH   1   7
ATOM      7  C   UNL     1      52.140   6.334  18.029  0.00  0.00    +0.000 C 
BRANCH   7   8
ATOM      8  N   UNL     1      52.016   4.868  18.077  0.00  0.00    +0.000 NA
BRANCH   8   9
ATOM      9  C   UNL     1      53.326   4.258  18.442  0.00  0.00    +0.000 C 
BRANCH   9  11
ATOM     10  N   UNL     1      53.154   1.484  18.560  0.00  0.00    +0.000 NA
ATOM     11  C   UNL     1      53.231   2.741  18.506  0.00  0.00    +0.000 C 
ENDBRANCH   9  11
ENDBRANCH   8   9
BRANCH   8  12
ATOM     12  C   UNL     1      50.935   4.464  19.011  0.00  0.00    +0.000 C 
BRANCH  12  13
ATOM     13  C   UNL     1      49.656   4.025  18.313  0.00  0.00    +0.000 A 
ATOM     14  C   UNL     1      49.662   2.948  17.413  0.00  0.00    +0.000 A 
ATOM     15  C   UNL     1      48.508   2.613  16.699  0.00  0.00    +0.000 A 
ATOM     16  C   UNL     1      47.333   3.338  16.887  0.00  0.00    +0.000 A 
ATOM     17  C   UNL     1      47.303   4.382  17.808  0.00  0.00    +0.000 A 
ATOM     18  C   UNL     1      48.455   4.721  18.523  0.00  0.00    +0.000 A 
ENDBRANCH  12  13
ENDBRANCH   8  12
ENDBRANCH   7   8
ENDBRANCH   1   7
BRANCH   4  19
ATOM     19  C   UNL     1      48.155   9.183  14.883  0.00  0.00    +0.000 C 
BRANCH  19  20
ATOM     20  N   UNL     1      47.147   8.329  14.308  0.00  0.00    +0.000 N 
ATOM     21  C   UNL     1      47.040   8.154  12.955  0.00  0.00    +0.000 C 
ATOM     22  O   UNL     1      47.808   8.698  12.165  0.00  0.00    +0.000 OA
ATOM     23  H   UNL     1      46.378   8.054  14.912  0.00  0.00    +0.000 HD
BRANCH  21  24
ATOM     24  C   UNL     1      45.999   7.226  12.498  0.00  0.00    +0.000 A 
ATOM     25  C   UNL     1      44.906   7.711  11.791  0.00  0.00    +0.000 A 
ATOM     26  S   UNL     1      43.828   6.495  11.278  0.00  0.00    +0.000 S 
ATOM     27  C   UNL     1      44.750   5.282  12.031  0.00  0.00    +0.000 A 
ATOM     28  N   UNL     1      44.363   3.978  11.990  0.00  0.00    +0.000 NA
ATOM     29  C   UNL     1      45.141   3.169  12.627  0.00  0.00    +0.000 A 
ATOM     30  N   UNL     1      46.274   3.544  13.301  0.00  0.00    +0.000 N 
ATOM     31  C   UNL     1      46.723   4.842  13.346  0.00  0.00    +0.000 A 
ATOM     32  O   UNL     1      47.763   5.135  13.924  0.00  0.00    +0.000 OA
ATOM     33  C   UNL     1      45.878   5.795  12.651  0.00  0.00    +0.000 A 
ATOM     34  H   UNL     1      46.846   2.859  13.772  0.00  0.00    +0.000 HD
ENDBRANCH  21  24
ENDBRANCH  19  20
ENDBRANCH   4  19
TORSDOF 9
ENDMDL
MODEL 8
REMARK VINA RESULT:    -6.662      3.698      9.165
REMARK INTER + INTRA:         -11.418
REMARK INTER:                  -9.085
REMARK INTRA:                  -2.333
REMARK UNBOUND:                -1.251
REMARK  Name = 
REMARK  9 active torsions:
REMARK  status: ('A' for Active; 'I' for Inactive)
REMARK    1  A    between atoms: C_2  and  C_3
REMARK    2  A    between atoms: C_3  and  N_4
REMARK    3  A    between atoms: N_4  and  C_5
REMARK    4  A    between atoms: N_4  and  C_12
REMARK    5  A    between atoms: C_5  and  C_6
REMARK    6  A    between atoms: C_12  and  C_13
REMARK    7  A    between atoms: C_16  and  C_17
REMARK    8  A    between atoms: C_17  and  N_18
REMARK    9  A    between atoms: C_19  and  C_21
REMARK                            x       y       z     vdW  Elec       q    Type
REMARK                         _______ _______ _______ _____ _____    ______ ____
ROOT
ATOM      1  C   UNL     1      49.193   5.634  19.674  0.00  0.00    +0.000 A 
ATOM      2  C   UNL     1      47.859   5.890  19.325  0.00  0.00    +0.000 A 
ATOM      3  C   UNL     1      47.246   5.169  18.299  0.00  0.00    +0.000 A 
ATOM      4  C   UNL     1      47.958   4.180  17.610  0.00  0.00    +0.000 A 
ATOM      5  C   UNL     1      49.287   3.918  17.970  0.00  0.00    +0.000 A 
ATOM      6  C   UNL     1      49.900   4.636  18.997  0.00  0.00    +0.000 A 
ENDROOT
BRANCH   1   7
ATOM      7  C   UNL     1      49.891   6.472  20.721  0.00  0.00    +0.000 C 
BRANCH   7   8
ATOM      8  N   UNL     1      49.824   7.917  20.451  0.00  0.00    +0.000 NA
BRANCH   8   9
ATOM      9  C   UNL     1      49.944   8.681  21.725  0.00  0.00    +0.000 C 
BRANCH   9  11
ATOM     10  N   UNL     1      48.523  11.069  21.613  0.00  0.00    +0.000 NA
ATOM     11  C   UNL     1      49.168   9.987  21.664  0.00  0.00    +0.000 C 
ENDBRANCH   9  11
ENDBRANCH   8   9
BRANCH   8  12
ATOM     12  C   UNL     1      50.862   8.313  19.465  0.00  0.00    +0.000 C 
BRANCH  12  13
ATOM     13  C   UNL     1      50.464   8.052  18.020  0.00  0.00    +0.000 A 
ATOM     14  C   UNL     1      49.245   8.528  17.512  0.00  0.00    +0.000 A 
ATOM     15  C   UNL     1      48.838   8.200  16.217  0.00  0.00    +0.000 A 
ATOM     16  C   UNL     1      49.650   7.407  15.408  0.00  0.00    +0.000 A 
ATOM     17  C   UNL     1      50.882   6.963  15.884  0.00  0.00    +0.000 A 
ATOM     18  C   UNL     1      51.290   7.288  17.181  0.00  0.00    +0.000 A 
ENDBRANCH  12  13
ENDBRANCH   8  12
ENDBRANCH   7   8
ENDBRANCH   1   7
BRANCH   4  19
ATOM     19  C   UNL     1      47.349   3.473  16.428  0.00  0.00    +0.000 C 
BRANCH  19  20
ATOM     20  N   UNL     1      46.716   4.425  15.552  0.00  0.00    +0.000 N 
ATOM     21  C   UNL     1      46.855   4.353  14.192  0.00  0.00    +0.000 C 
ATOM     22  O   UNL     1      47.508   3.464  13.650  0.00  0.00    +0.000 OA
ATOM     23  H   UNL     1      46.367   5.279  15.976  0.00  0.00    +0.000 HD
BRANCH  21  24
ATOM     24  C   UNL     1      46.126   5.357  13.408  0.00  0.00    +0.000 A 
ATOM     25  C   UNL     1      46.690   6.608  13.196  0.00  0.00    +0.000 A 
ATOM     26  S   UNL     1      45.744   7.628  12.211  0.00  0.00    +0.000 S 
ATOM     27  C   UNL     1      44.519   6.458  12.079  0.00  0.00    +0.000 A 
ATOM     28  N   UNL     1      43.384   6.705  11.370  0.00  0.00    +0.000 NA
ATOM     29  C   UNL     1      42.528   5.740  11.378  0.00  0.00    +0.000 A 
ATOM     30  N   UNL     1      42.702   4.546  12.030  0.00  0.00    +0.000 N 
ATOM     31  C   UNL     1      43.842   4.237  12.734  0.00  0.00    +0.000 A 
ATOM     32  O   UNL     1      43.981   3.144  13.270  0.00  0.00    +0.000 OA
ATOM     33  C   UNL     1      44.835   5.294  12.763  0.00  0.00    +0.000 A 
ATOM     34  H   UNL     1      41.996   3.827  11.988  0.00  0.00    +0.000 HD
ENDBRANCH  21  24
ENDBRANCH  19  20
ENDBRANCH   4  19
TORSDOF 9
ENDMDL
MODEL 9
REMARK VINA RESULT:    -6.637      3.265      8.386
REMARK INTER + INTRA:         -11.380
REMARK INTER:                  -9.620
REMARK INTRA:                  -1.760
REMARK UNBOUND:                -1.251
REMARK  Name = 
REMARK  9 active torsions:
REMARK  status: ('A' for Active; 'I' for Inactive)
REMARK    1  A    between atoms: C_2  and  C_3
REMARK    2  A    between atoms: C_3  and  N_4
REMARK    3  A    between atoms: N_4  and  C_5
REMARK    4  A    between atoms: N_4  and  C_12
REMARK    5  A    between atoms: C_5  and  C_6
REMARK    6  A    between atoms: C_12  and  C_13
REMARK    7  A    between atoms: C_16  and  C_17
REMARK    8  A    between atoms: C_17  and  N_18
REMARK    9  A    between atoms: C_19  and  C_21
REMARK                            x       y       z     vdW  Elec       q    Type
REMARK                         _______ _______ _______ _____ _____    ______ ____
ROOT
ATOM      1  C   UNL     1      50.346   6.954  15.970  0.00  0.00    +0.000 A 
ATOM      2  C   UNL     1      49.012   6.557  15.790  0.00  0.00    +0.000 A 
ATOM      3  C   UNL     1      48.333   6.872  14.612  0.00  0.00    +0.000 A 
ATOM      4  C   UNL     1      48.980   7.588  13.597  0.00  0.00    +0.000 A 
ATOM      5  C   UNL     1      50.316   7.973  13.774  0.00  0.00    +0.000 A 
ATOM      6  C   UNL     1      50.996   7.655  14.950  0.00  0.00    +0.000 A 
ENDROOT
BRANCH   1   7
ATOM      7  C   UNL     1      51.058   6.695  17.278  0.00  0.00    +0.000 C 
BRANCH   7   8
ATOM      8  N   UNL     1      51.818   5.435  17.288  0.00  0.00    +0.000 NA
BRANCH   8   9
ATOM      9  C   UNL     1      53.271   5.717  17.467  0.00  0.00    +0.000 C 
BRANCH   9  11
ATOM     10  N   UNL     1      54.470   6.412  15.055  0.00  0.00    +0.000 NA
ATOM     11  C   UNL     1      53.927   6.097  16.149  0.00  0.00    +0.000 C 
ENDBRANCH   9  11
ENDBRANCH   8   9
BRANCH   8  12
ATOM     12  C   UNL     1      51.298   4.518  18.334  0.00  0.00    +0.000 C 
BRANCH  12  13
ATOM     13  C   UNL     1      49.924   3.946  18.016  0.00  0.00    +0.000 A 
ATOM     14  C   UNL     1      49.772   2.926  17.064  0.00  0.00    +0.000 A 
ATOM     15  C   UNL     1      48.500   2.475  16.703  0.00  0.00    +0.000 A 
ATOM     16  C   UNL     1      47.367   3.025  17.299  0.00  0.00    +0.000 A 
ATOM     17  C   UNL     1      47.505   4.008  18.276  0.00  0.00    +0.000 A 
ATOM     18  C   UNL     1      48.776   4.463  18.638  0.00  0.00    +0.000 A 
ENDBRANCH  12  13
ENDBRANCH   8  12
ENDBRANCH   7   8
ENDBRANCH   1   7
BRANCH   4  19
ATOM     19  C   UNL     1      48.229   8.034  12.370  0.00  0.00    +0.000 C 
BRANCH  19  20
ATOM     20  N   UNL     1      47.534   6.918  11.780  0.00  0.00    +0.000 N 
ATOM     21  C   UNL     1      46.196   6.972  11.497  0.00  0.00    +0.000 C 
ATOM     22  O   UNL     1      45.525   7.979  11.712  0.00  0.00    +0.000 OA
ATOM     23  H   UNL     1      48.006   6.019  11.802  0.00  0.00    +0.000 HD
BRANCH  21  24
ATOM     24  C   UNL     1      45.615   5.785  10.859  0.00  0.00    +0.000 A 
ATOM     25  C   UNL     1      45.801   5.573   9.500  0.00  0.00    +0.000 A 
ATOM     26  S   UNL     1      45.120   4.116   8.934  0.00  0.00    +0.000 S 
ATOM     27  C   UNL     1      44.501   3.744  10.473  0.00  0.00    +0.000 A 
ATOM     28  N   UNL     1      43.776   2.612  10.683  0.00  0.00    +0.000 NA
ATOM     29  C   UNL     1      43.345   2.469  11.891  0.00  0.00    +0.000 A 
ATOM     30  N   UNL     1      43.572   3.356  12.911  0.00  0.00    +0.000 N 
ATOM     31  C   UNL     1      44.323   4.498  12.757  0.00  0.00    +0.000 A 
ATOM     32  O   UNL     1      44.540   5.248  13.701  0.00  0.00    +0.000 OA
ATOM     33  C   UNL     1      44.825   4.709  11.412  0.00  0.00    +0.000 A 
ATOM     34  H   UNL     1      43.214   3.181  13.838  0.00  0.00    +0.000 HD
ENDBRANCH  21  24
ENDBRANCH  19  20
ENDBRANCH   4  19
TORSDOF 9
ENDMDL
