MODEL 1
REMARK VINA RESULT:    -8.620      0.000      0.000
REMARK INTER + INTRA:         -12.139
REMARK INTER:                 -11.140
REMARK INTRA:                  -1.000
REMARK UNBOUND:                -1.000
REMARK  Name = 
REMARK  5 active torsions:
REMARK  status: ('A' for Active; 'I' for Inactive)
REMARK    1  A    between atoms: C_2  and  C_4
REMARK    2  A    between atoms: N_8  and  C_9
REMARK    3  A    between atoms: C_9  and  C_10
REMARK    4  A    between atoms: C_10  and  C_11
REMARK    5  A    between atoms: C_15  and  C_16
REMARK                            x       y       z     vdW  Elec       q    Type
REMARK                         _______ _______ _______ _____ _____    ______ ____
ROOT
ATOM      1  C   UNL     1      43.254   4.206  11.164  0.00  0.00    +0.000 C 
ENDROOT
BRANCH   1   6
ATOM      2  C   UNL     1      46.496   2.541   7.616  0.00  0.00    +0.000 A 
ATOM      3  C   UNL     1      45.652   1.826   8.458  0.00  0.00    +0.000 A 
ATOM      4  C   UNL     1      44.721   2.515   9.235  0.00  0.00    +0.000 A 
ATOM      5  C   UNL     1      44.643   3.902   9.165  0.00  0.00    +0.000 A 
ATOM      6  N   UNL     1      43.681   4.638   9.838  0.00  0.00    +0.000 N 
ATOM      7  N   UNL     1      45.475   4.610   8.367  0.00  0.00    +0.000 NA
ATOM      8  C   UNL     1      46.381   3.923   7.621  0.00  0.00    +0.000 A 
ATOM      9  H   UNL     1      43.906   5.623   9.730  0.00  0.00    +0.000 HD
BRANCH   2  11
ATOM     10  N   UNL     1      48.646   2.583   6.487  0.00  0.00    +0.000 N 
ATOM     11  C   UNL     1      47.498   1.887   6.752  0.00  0.00    +0.000 C 
ATOM     12  O   UNL     1      47.327   0.758   6.309  0.00  0.00    +0.000 OA
ATOM     13  H   UNL     1      49.367   2.094   5.974  0.00  0.00    +0.000 HD
ATOM     14  H   UNL     1      48.928   3.393   7.027  0.00  0.00    +0.000 HD
ENDBRANCH   2  11
ENDBRANCH   1   6
BRANCH   1  15
ATOM     15  C   UNL     1      43.357   5.362  12.167  0.00  0.00    +0.000 C 
BRANCH  15  16
ATOM     16  C   UNL     1      44.775   5.525  12.667  0.00  0.00    +0.000 A 
ATOM     17  C   UNL     1      45.425   4.485  13.338  0.00  0.00    +0.000 A 
ATOM     18  C   UNL     1      46.751   4.626  13.732  0.00  0.00    +0.000 A 
ATOM     19  C   UNL     1      47.450   5.793  13.420  0.00  0.00    +0.000 A 
ATOM     20  C   UNL     1      46.849   6.835  12.690  0.00  0.00    +0.000 A 
ATOM     21  C   UNL     1      45.488   6.693  12.362  0.00  0.00    +0.000 A 
BRANCH  20  22
ATOM     22  C   UNL     1      47.641   7.964  12.157  0.00  0.00    +0.000 A 
ATOM     23  C   UNL     1      47.080   9.256  12.098  0.00  0.00    +0.000 A 
ATOM     24  C   UNL     1      47.841  10.364  11.739  0.00  0.00    +0.000 A 
ATOM     25  C   UNL     1      49.187  10.215  11.431  0.00  0.00    +0.000 A 
ATOM     26  C   UNL     1      49.766   8.949  11.455  0.00  0.00    +0.000 A 
ATOM     27  C   UNL     1      48.997   7.834  11.800  0.00  0.00    +0.000 A 
ENDBRANCH  20  22
ENDBRANCH  15  16
ENDBRANCH   1  15
TORSDOF 5
ENDMDL
MODEL 2
REMARK VINA RESULT:    -8.505      1.666      3.583
REMARK INTER + INTRA:         -11.991
REMARK INTER:                 -11.143
REMARK INTRA:                  -0.848
REMARK UNBOUND:                -1.000
REMARK  Name = 
REMARK  5 active torsions:
REMARK  status: ('A' for Active; 'I' for Inactive)
REMARK    1  A    between atoms: C_2  and  C_4
REMARK    2  A    between atoms: N_8  and  C_9
REMARK    3  A    between atoms: C_9  and  C_10
REMARK    4  A    between atoms: C_10  and  C_11
REMARK    5  A    between atoms: C_15  and  C_16
REMARK                            x       y       z     vdW  Elec       q    Type
REMARK                         _______ _______ _______ _____ _____    ______ ____
ROOT
ATOM      1  C   UNL     1      43.500   4.195  11.093  0.00  0.00    +0.000 C 
ENDROOT
BRANCH   1   6
ATOM      2  C   UNL     1      46.599   2.437   7.464  0.00  0.00    +0.000 A 
ATOM      3  C   UNL     1      45.847   1.744   8.407  0.00  0.00    +0.000 A 
ATOM      4  C   UNL     1      44.932   2.443   9.194  0.00  0.00    +0.000 A 
ATOM      5  C   UNL     1      44.778   3.816   9.034  0.00  0.00    +0.000 A 
ATOM      6  N   UNL     1      43.822   4.551   9.716  0.00  0.00    +0.000 N 
ATOM      7  N   UNL     1      45.520   4.503   8.137  0.00  0.00    +0.000 NA
ATOM      8  C   UNL     1      46.414   3.808   7.383  0.00  0.00    +0.000 A 
ATOM      9  H   UNL     1      43.988   5.536   9.526  0.00  0.00    +0.000 HD
BRANCH   2  11
ATOM     10  N   UNL     1      48.706   2.475   6.256  0.00  0.00    +0.000 N 
ATOM     11  C   UNL     1      47.580   1.771   6.584  0.00  0.00    +0.000 C 
ATOM     12  O   UNL     1      47.410   0.626   6.183  0.00  0.00    +0.000 OA
ATOM     13  H   UNL     1      49.415   1.980   5.731  0.00  0.00    +0.000 HD
ATOM     14  H   UNL     1      48.995   3.304   6.760  0.00  0.00    +0.000 HD
ENDBRANCH   2  11
ENDBRANCH   1   6
BRANCH   1  15
ATOM     15  C   UNL     1      43.683   5.404  12.019  0.00  0.00    +0.000 C 
BRANCH  15  16
ATOM     16  C   UNL     1      45.146   5.650  12.312  0.00  0.00    +0.000 A 
ATOM     17  C   UNL     1      45.885   6.569  11.562  0.00  0.00    +0.000 A 
ATOM     18  C   UNL     1      47.211   6.834  11.887  0.00  0.00    +0.000 A 
ATOM     19  C   UNL     1      47.795   6.212  12.991  0.00  0.00    +0.000 A 
ATOM     20  C   UNL     1      47.064   5.329  13.807  0.00  0.00    +0.000 A 
ATOM     21  C   UNL     1      45.746   5.030  13.418  0.00  0.00    +0.000 A 
BRANCH  20  22
ATOM     22  C   UNL     1      47.597   4.850  15.101  0.00  0.00    +0.000 A 
ATOM     23  C   UNL     1      48.289   5.737  15.952  0.00  0.00    +0.000 A 
ATOM     24  C   UNL     1      48.676   5.360  17.234  0.00  0.00    +0.000 A 
ATOM     25  C   UNL     1      48.383   4.087  17.705  0.00  0.00    +0.000 A 
ATOM     26  C   UNL     1      47.723   3.180  16.881  0.00  0.00    +0.000 A 
ATOM     27  C   UNL     1      47.348   3.553  15.587  0.00  0.00    +0.000 A 
ENDBRANCH  20  22
ENDBRANCH  15  16
ENDBRANCH   1  15
TORSDOF 5
ENDMDL
MODEL 3
REMARK VINA RESULT:    -7.470      3.914      7.307
REMARK INTER + INTRA:         -10.653
REMARK INTER:                 -10.037
REMARK INTRA:                  -0.616
REMARK UNBOUND:                -1.000
REMARK  Name = 
REMARK  5 active torsions:
REMARK  status: ('A' for Active; 'I' for Inactive)
REMARK    1  A    between atoms: C_2  and  C_4
REMARK    2  A    between atoms: N_8  and  C_9
REMARK    3  A    between atoms: C_9  and  C_10
REMARK    4  A    between atoms: C_10  and  C_11
REMARK    5  A    between atoms: C_15  and  C_16
REMARK                            x       y       z     vdW  Elec       q    Type
REMARK                         _______ _______ _______ _____ _____    ______ ____
ROOT
ATOM      1  C   UNL     1      47.531   7.108  11.877  0.00  0.00    +0.000 C 
ENDROOT
BRANCH   1   6
ATOM      2  C   UNL     1      47.522   4.581  16.291  0.00  0.00    +0.000 A 
ATOM      3  C   UNL     1      47.103   4.173  15.029  0.00  0.00    +0.000 A 
ATOM      4  C   UNL     1      47.366   4.988  13.928  0.00  0.00    +0.000 A 
ATOM      5  C   UNL     1      48.038   6.194  14.096  0.00  0.00    +0.000 A 
ATOM      6  N   UNL     1      48.411   7.002  13.035  0.00  0.00    +0.000 N 
ATOM      7  N   UNL     1      48.428   6.612  15.321  0.00  0.00    +0.000 NA
ATOM      8  C   UNL     1      48.158   5.809  16.385  0.00  0.00    +0.000 A 
ATOM      9  H   UNL     1      48.771   7.874  13.415  0.00  0.00    +0.000 HD
BRANCH   2  11
ATOM     10  N   UNL     1      47.921   4.176  18.652  0.00  0.00    +0.000 N 
ATOM     11  C   UNL     1      47.295   3.772  17.505  0.00  0.00    +0.000 C 
ATOM     12  O   UNL     1      46.557   2.795  17.497  0.00  0.00    +0.000 OA
ATOM     13  H   UNL     1      47.688   3.673  19.499  0.00  0.00    +0.000 HD
ATOM     14  H   UNL     1      48.326   5.099  18.755  0.00  0.00    +0.000 HD
ENDBRANCH   2  11
ENDBRANCH   1   6
BRANCH   1  15
ATOM     15  C   UNL     1      46.077   7.313  12.321  0.00  0.00    +0.000 C 
BRANCH  15  16
ATOM     16  C   UNL     1      45.166   6.278  11.700  0.00  0.00    +0.000 A 
ATOM     17  C   UNL     1      43.784   6.323  11.902  0.00  0.00    +0.000 A 
ATOM     18  C   UNL     1      42.953   5.404  11.269  0.00  0.00    +0.000 A 
ATOM     19  C   UNL     1      43.496   4.460  10.397  0.00  0.00    +0.000 A 
ATOM     20  C   UNL     1      44.875   4.424  10.120  0.00  0.00    +0.000 A 
ATOM     21  C   UNL     1      45.699   5.322  10.823  0.00  0.00    +0.000 A 
BRANCH  20  22
ATOM     22  C   UNL     1      45.424   3.588   9.031  0.00  0.00    +0.000 A 
ATOM     23  C   UNL     1      46.047   4.194   7.920  0.00  0.00    +0.000 A 
ATOM     24  C   UNL     1      46.700   3.439   6.951  0.00  0.00    +0.000 A 
ATOM     25  C   UNL     1      46.753   2.055   7.064  0.00  0.00    +0.000 A 
ATOM     26  C   UNL     1      46.127   1.425   8.136  0.00  0.00    +0.000 A 
ATOM     27  C   UNL     1      45.457   2.182   9.100  0.00  0.00    +0.000 A 
ENDBRANCH  20  22
ENDBRANCH  15  16
ENDBRANCH   1  15
TORSDOF 5
ENDMDL
MODEL 4
REMARK VINA RESULT:    -7.103      4.517     10.450
REMARK INTER + INTRA:         -10.179
REMARK INTER:                  -9.587
REMARK INTRA:                  -0.591
REMARK UNBOUND:                -1.000
REMARK  Name = 
REMARK  5 active torsions:
REMARK  status: ('A' for Active; 'I' for Inactive)
REMARK    1  A    between atoms: C_2  and  C_4
REMARK    2  A    between atoms: N_8  and  C_9
REMARK    3  A    between atoms: C_9  and  C_10
REMARK    4  A    between atoms: C_10  and  C_11
REMARK    5  A    between atoms: C_15  and  C_16
REMARK                            x       y       z     vdW  Elec       q    Type
REMARK                         _______ _______ _______ _____ _____    ______ ____
ROOT
ATOM      1  C   UNL     1      46.683   3.045   5.287  0.00  0.00    +0.000 C 
ENDROOT
BRANCH   1   6
ATOM      2  C   UNL     1      44.753   3.273   9.987  0.00  0.00    +0.000 A 
ATOM      3  C   UNL     1      44.916   2.180   9.143  0.00  0.00    +0.000 A 
ATOM      4  C   UNL     1      45.634   2.337   7.957  0.00  0.00    +0.000 A 
ATOM      5  C   UNL     1      46.176   3.575   7.628  0.00  0.00    +0.000 A 
ATOM      6  N   UNL     1      46.977   3.775   6.515  0.00  0.00    +0.000 N 
ATOM      7  N   UNL     1      46.003   4.650   8.430  0.00  0.00    +0.000 NA
ATOM      8  C   UNL     1      45.295   4.482   9.579  0.00  0.00    +0.000 A 
ATOM      9  H   UNL     1      47.144   4.773   6.423  0.00  0.00    +0.000 HD
BRANCH   2  11
ATOM     10  N   UNL     1      44.718   2.760  12.361  0.00  0.00    +0.000 N 
ATOM     11  C   UNL     1      44.019   3.187  11.265  0.00  0.00    +0.000 C 
ATOM     12  O   UNL     1      42.841   3.509  11.352  0.00  0.00    +0.000 OA
ATOM     13  H   UNL     1      44.235   2.793  13.250  0.00  0.00    +0.000 HD
ATOM     14  H   UNL     1      45.730   2.729  12.382  0.00  0.00    +0.000 HD
ENDBRANCH   2  11
ENDBRANCH   1   6
BRANCH   1  15
ATOM     15  C   UNL     1      47.488   1.740   5.229  0.00  0.00    +0.000 C 
BRANCH  15  16
ATOM     16  C   UNL     1      46.856   0.752   4.274  0.00  0.00    +0.000 A 
ATOM     17  C   UNL     1      46.149   1.189   3.151  0.00  0.00    +0.000 A 
ATOM     18  C   UNL     1      45.632   0.268   2.246  0.00  0.00    +0.000 A 
ATOM     19  C   UNL     1      45.854  -1.096   2.438  0.00  0.00    +0.000 A 
ATOM     20  C   UNL     1      46.614  -1.570   3.522  0.00  0.00    +0.000 A 
ATOM     21  C   UNL     1      47.070  -0.622   4.456  0.00  0.00    +0.000 A 
BRANCH  20  22
ATOM     22  C   UNL     1      47.048  -2.981   3.605  0.00  0.00    +0.000 A 
ATOM     23  C   UNL     1      47.939  -3.504   2.644  0.00  0.00    +0.000 A 
ATOM     24  C   UNL     1      48.480  -4.780   2.772  0.00  0.00    +0.000 A 
ATOM     25  C   UNL     1      48.148  -5.571   3.865  0.00  0.00    +0.000 A 
ATOM     26  C   UNL     1      47.252  -5.093   4.818  0.00  0.00    +0.000 A 
ATOM     27  C   UNL     1      46.697  -3.818   4.681  0.00  0.00    +0.000 A 
ENDBRANCH  20  22
ENDBRANCH  15  16
ENDBRANCH   1  15
TORSDOF 5
ENDMDL
MODEL 5
REMARK VINA RESULT:    -6.942      2.333      3.850
REMARK INTER + INTRA:          -9.970
REMARK INTER:                  -9.233
REMARK INTRA:                  -0.738
REMARK UNBOUND:                -1.000
REMARK  Name = 
REMARK  5 active torsions:
REMARK  status: ('A' for Active; 'I' for Inactive)
REMARK    1  A    between atoms: C_2  and  C_4
REMARK    2  A    between atoms: N_8  and  C_9
REMARK    3  A    between atoms: C_9  and  C_10
REMARK    4  A    between atoms: C_10  and  C_11
REMARK    5  A    between atoms: C_15  and  C_16
REMARK                            x       y       z     vdW  Elec       q    Type
REMARK                         _______ _______ _______ _____ _____    ______ ____
ROOT
ATOM      1  C   UNL     1      46.229   4.000   7.602  0.00  0.00    +0.000 C 
ENDROOT
BRANCH   1   6
ATOM      2  C   UNL     1      46.986   0.368   4.123  0.00  0.00    +0.000 A 
ATOM      3  C   UNL     1      46.739   1.727   3.955  0.00  0.00    +0.000 A 
ATOM      4  C   UNL     1      46.736   2.561   5.072  0.00  0.00    +0.000 A 
ATOM      5  C   UNL     1      46.977   2.037   6.337  0.00  0.00    +0.000 A 
ATOM      6  N   UNL     1      47.081   2.824   7.472  0.00  0.00    +0.000 N 
ATOM      7  N   UNL     1      47.195   0.714   6.515  0.00  0.00    +0.000 NA
ATOM      8  C   UNL     1      47.187  -0.088   5.417  0.00  0.00    +0.000 A 
ATOM      9  H   UNL     1      47.134   2.208   8.279  0.00  0.00    +0.000 HD
BRANCH   2  11
ATOM     10  N   UNL     1      46.095  -1.589   2.994  0.00  0.00    +0.000 N 
ATOM     11  C   UNL     1      47.019  -0.580   2.992  0.00  0.00    +0.000 C 
ATOM     12  O   UNL     1      47.820  -0.458   2.075  0.00  0.00    +0.000 OA
ATOM     13  H   UNL     1      46.062  -2.178   2.173  0.00  0.00    +0.000 HD
ATOM     14  H   UNL     1      45.275  -1.574   3.589  0.00  0.00    +0.000 HD
ENDBRANCH   2  11
ENDBRANCH   1   6
BRANCH   1  15
ATOM     15  C   UNL     1      44.838   3.606   8.113  0.00  0.00    +0.000 C 
BRANCH  15  16
ATOM     16  C   UNL     1      44.644   4.033   9.551  0.00  0.00    +0.000 A 
ATOM     17  C   UNL     1      43.993   3.201  10.466  0.00  0.00    +0.000 A 
ATOM     18  C   UNL     1      43.883   3.579  11.800  0.00  0.00    +0.000 A 
ATOM     19  C   UNL     1      44.458   4.773  12.236  0.00  0.00    +0.000 A 
ATOM     20  C   UNL     1      45.174   5.605  11.357  0.00  0.00    +0.000 A 
ATOM     21  C   UNL     1      45.215   5.232  10.001  0.00  0.00    +0.000 A 
BRANCH  20  22
ATOM     22  C   UNL     1      45.979   6.743  11.852  0.00  0.00    +0.000 A 
ATOM     23  C   UNL     1      45.374   7.749  12.635  0.00  0.00    +0.000 A 
ATOM     24  C   UNL     1      46.126   8.753  13.236  0.00  0.00    +0.000 A 
ATOM     25  C   UNL     1      47.505   8.782  13.075  0.00  0.00    +0.000 A 
ATOM     26  C   UNL     1      48.130   7.819  12.288  0.00  0.00    +0.000 A 
ATOM     27  C   UNL     1      47.373   6.819  11.671  0.00  0.00    +0.000 A 
ENDBRANCH  20  22
ENDBRANCH  15  16
ENDBRANCH   1  15
TORSDOF 5
ENDMDL
MODEL 6
REMARK VINA RESULT:    -6.938      4.809      6.975
REMARK INTER + INTRA:          -9.965
REMARK INTER:                  -9.011
REMARK INTRA:                  -0.955
REMARK UNBOUND:                -1.000
REMARK  Name = 
REMARK  5 active torsions:
REMARK  status: ('A' for Active; 'I' for Inactive)
REMARK    1  A    between atoms: C_2  and  C_4
REMARK    2  A    between atoms: N_8  and  C_9
REMARK    3  A    between atoms: C_9  and  C_10
REMARK    4  A    between atoms: C_10  and  C_11
REMARK    5  A    between atoms: C_15  and  C_16
REMARK                            x       y       z     vdW  Elec       q    Type
REMARK                         _______ _______ _______ _____ _____    ______ ____
ROOT
ATOM      1  C   UNL     1      48.537   6.630  14.505  0.00  0.00    +0.000 C 
ENDROOT
BRANCH   1   6
ATOM      2  C   UNL     1      44.833   4.881  11.490  0.00  0.00    +0.000 A 
ATOM      3  C   UNL     1      45.517   4.247  12.522  0.00  0.00    +0.000 A 
ATOM      4  C   UNL     1      46.379   4.992  13.325  0.00  0.00    +0.000 A 
ATOM      5  C   UNL     1      46.551   6.352  13.092  0.00  0.00    +0.000 A 
ATOM      6  N   UNL     1      47.318   7.166  13.910  0.00  0.00    +0.000 N 
ATOM      7  N   UNL     1      45.910   6.974  12.077  0.00  0.00    +0.000 NA
ATOM      8  C   UNL     1      45.078   6.232  11.298  0.00  0.00    +0.000 A 
ATOM      9  H   UNL     1      47.389   8.079  13.468  0.00  0.00    +0.000 HD
BRANCH   2  11
ATOM     10  N   UNL     1      43.888   4.522   9.281  0.00  0.00    +0.000 N 
ATOM     11  C   UNL     1      43.893   4.167  10.603  0.00  0.00    +0.000 C 
ATOM     12  O   UNL     1      43.165   3.277  11.021  0.00  0.00    +0.000 OA
ATOM     13  H   UNL     1      43.311   3.967   8.663  0.00  0.00    +0.000 HD
ATOM     14  H   UNL     1      44.635   5.062   8.860  0.00  0.00    +0.000 HD
ENDBRANCH   2  11
ENDBRANCH   1   6
BRANCH   1  15
ATOM     15  C   UNL     1      48.478   6.723  16.035  0.00  0.00    +0.000 C 
BRANCH  15  16
ATOM     16  C   UNL     1      48.518   5.350  16.667  0.00  0.00    +0.000 A 
ATOM     17  C   UNL     1      47.359   4.576  16.777  0.00  0.00    +0.000 A 
ATOM     18  C   UNL     1      47.425   3.288  17.299  0.00  0.00    +0.000 A 
ATOM     19  C   UNL     1      48.656   2.751  17.676  0.00  0.00    +0.000 A 
ATOM     20  C   UNL     1      49.851   3.477  17.520  0.00  0.00    +0.000 A 
ATOM     21  C   UNL     1      49.748   4.799  17.051  0.00  0.00    +0.000 A 
BRANCH  20  22
ATOM     22  C   UNL     1      51.173   2.838  17.696  0.00  0.00    +0.000 A 
ATOM     23  C   UNL     1      51.351   1.479  17.364  0.00  0.00    +0.000 A 
ATOM     24  C   UNL     1      52.609   0.885  17.379  0.00  0.00    +0.000 A 
ATOM     25  C   UNL     1      53.728   1.632  17.725  0.00  0.00    +0.000 A 
ATOM     26  C   UNL     1      53.583   2.969  18.082  0.00  0.00    +0.000 A 
ATOM     27  C   UNL     1      52.318   3.562  18.082  0.00  0.00    +0.000 A 
ENDBRANCH  20  22
ENDBRANCH  15  16
ENDBRANCH   1  15
TORSDOF 5
ENDMDL
MODEL 7
REMARK VINA RESULT:    -6.899      4.660      7.890
REMARK INTER + INTRA:          -9.916
REMARK INTER:                  -9.184
REMARK INTRA:                  -0.732
REMARK UNBOUND:                -1.000
REMARK  Name = 
REMARK  5 active torsions:
REMARK  status: ('A' for Active; 'I' for Inactive)
REMARK    1  A    between atoms: C_2  and  C_4
REMARK    2  A    between atoms: N_8  and  C_9
REMARK    3  A    between atoms: C_9  and  C_10
REMARK    4  A    between atoms: C_10  and  C_11
REMARK    5  A    between atoms: C_15  and  C_16
REMARK                            x       y       z     vdW  Elec       q    Type
REMARK                         _______ _______ _______ _____ _____    ______ ____
ROOT
ATOM      1  C   UNL     1      46.805   6.202  13.307  0.00  0.00    +0.000 C 
ENDROOT
BRANCH   1   6
ATOM      2  C   UNL     1      49.538   4.664  17.311  0.00  0.00    +0.000 A 
ATOM      3  C   UNL     1      49.438   5.924  16.731  0.00  0.00    +0.000 A 
ATOM      4  C   UNL     1      48.484   6.142  15.738  0.00  0.00    +0.000 A 
ATOM      5  C   UNL     1      47.645   5.108  15.335  0.00  0.00    +0.000 A 
ATOM      6  N   UNL     1      46.617   5.283  14.424  0.00  0.00    +0.000 N 
ATOM      7  N   UNL     1      47.749   3.873  15.876  0.00  0.00    +0.000 NA
ATOM      8  C   UNL     1      48.690   3.675  16.838  0.00  0.00    +0.000 A 
ATOM      9  H   UNL     1      46.233   4.368  14.202  0.00  0.00    +0.000 HD
BRANCH   2  11
ATOM     10  N   UNL     1      51.035   3.090  18.398  0.00  0.00    +0.000 N 
ATOM     11  C   UNL     1      50.512   4.354  18.377  0.00  0.00    +0.000 C 
ATOM     12  O   UNL     1      50.860   5.197  19.194  0.00  0.00    +0.000 OA
ATOM     13  H   UNL     1      51.770   2.913  19.071  0.00  0.00    +0.000 HD
ATOM     14  H   UNL     1      50.966   2.460  17.608  0.00  0.00    +0.000 HD
ENDBRANCH   2  11
ENDBRANCH   1   6
BRANCH   1  15
ATOM     15  C   UNL     1      45.462   6.522  12.638  0.00  0.00    +0.000 C 
BRANCH  15  16
ATOM     16  C   UNL     1      44.862   5.288  12.003  0.00  0.00    +0.000 A 
ATOM     17  C   UNL     1      43.612   4.809  12.405  0.00  0.00    +0.000 A 
ATOM     18  C   UNL     1      43.042   3.713  11.765  0.00  0.00    +0.000 A 
ATOM     19  C   UNL     1      43.702   3.114  10.691  0.00  0.00    +0.000 A 
ATOM     20  C   UNL     1      44.931   3.608  10.218  0.00  0.00    +0.000 A 
ATOM     21  C   UNL     1      45.515   4.675  10.924  0.00  0.00    +0.000 A 
BRANCH  20  22
ATOM     22  C   UNL     1      45.518   3.131   8.947  0.00  0.00    +0.000 A 
ATOM     23  C   UNL     1      45.909   4.058   7.958  0.00  0.00    +0.000 A 
ATOM     24  C   UNL     1      46.595   3.656   6.816  0.00  0.00    +0.000 A 
ATOM     25  C   UNL     1      46.913   2.317   6.628  0.00  0.00    +0.000 A 
ATOM     26  C   UNL     1      46.520   1.374   7.574  0.00  0.00    +0.000 A 
ATOM     27  C   UNL     1      45.817   1.775   8.713  0.00  0.00    +0.000 A 
ENDBRANCH  20  22
ENDBRANCH  15  16
ENDBRANCH   1  15
TORSDOF 5
ENDMDL
MODEL 8
REMARK VINA RESULT:    -6.680      3.504      6.093
REMARK INTER + INTRA:          -9.632
REMARK INTER:                  -8.024
REMARK INTRA:                  -1.609
REMARK UNBOUND:                -1.000
REMARK  Name = 
REMARK  5 active torsions:
REMARK  status: ('A' for Active; 'I' for Inactive)
REMARK    1  A    between atoms: C_2  and  C_4
REMARK    2  A    between atoms: N_8  and  C_9
REMARK    3  A    between atoms: C_9  and  C_10
REMARK    4  A    between atoms: C_10  and  C_11
REMARK    5  A    between atoms: C_15  and  C_16
REMARK                            x       y       z     vdW  Elec       q    Type
REMARK                         _______ _______ _______ _____ _____    ______ ____
ROOT
ATOM      1  C   UNL     1      49.105   7.474  12.567  0.00  0.00    +0.000 C 
ENDROOT
BRANCH   1   6
ATOM      2  C   UNL     1      44.468   5.502  11.875  0.00  0.00    +0.000 A 
ATOM      3  C   UNL     1      45.304   6.154  10.974  0.00  0.00    +0.000 A 
ATOM      4  C   UNL     1      46.611   6.456  11.354  0.00  0.00    +0.000 A 
ATOM      5  C   UNL     1      47.069   6.108  12.621  0.00  0.00    +0.000 A 
ATOM      6  N   UNL     1      48.380   6.295  13.025  0.00  0.00    +0.000 N 
ATOM      7  N   UNL     1      46.258   5.496  13.513  0.00  0.00    +0.000 NA
ATOM      8  C   UNL     1      44.984   5.215  13.130  0.00  0.00    +0.000 A 
ATOM      9  H   UNL     1      48.437   6.081  14.017  0.00  0.00    +0.000 HD
BRANCH   2  11
ATOM     10  N   UNL     1      42.120   6.101  11.709  0.00  0.00    +0.000 N 
ATOM     11  C   UNL     1      43.076   5.136  11.548  0.00  0.00    +0.000 C 
ATOM     12  O   UNL     1      42.787   4.024  11.123  0.00  0.00    +0.000 OA
ATOM     13  H   UNL     1      41.186   5.873  11.394  0.00  0.00    +0.000 HD
ATOM     14  H   UNL     1      42.350   7.082  11.812  0.00  0.00    +0.000 HD
ENDBRANCH   2  11
ENDBRANCH   1   6
BRANCH   1  15
ATOM     15  C   UNL     1      48.663   8.717  13.350  0.00  0.00    +0.000 C 
BRANCH  15  16
ATOM     16  C   UNL     1      48.078   9.763  12.427  0.00  0.00    +0.000 A 
ATOM     17  C   UNL     1      48.894  10.494  11.560  0.00  0.00    +0.000 A 
ATOM     18  C   UNL     1      48.332  11.403  10.670  0.00  0.00    +0.000 A 
ATOM     19  C   UNL     1      46.947  11.558  10.613  0.00  0.00    +0.000 A 
ATOM     20  C   UNL     1      46.090  10.793  11.426  0.00  0.00    +0.000 A 
ATOM     21  C   UNL     1      46.686   9.929  12.361  0.00  0.00    +0.000 A 
BRANCH  20  22
ATOM     22  C   UNL     1      44.627  10.780  11.210  0.00  0.00    +0.000 A 
ATOM     23  C   UNL     1      43.913  11.994  11.131  0.00  0.00    +0.000 A 
ATOM     24  C   UNL     1      42.566  12.024  10.786  0.00  0.00    +0.000 A 
ATOM     25  C   UNL     1      41.890  10.842  10.509  0.00  0.00    +0.000 A 
ATOM     26  C   UNL     1      42.560   9.625  10.602  0.00  0.00    +0.000 A 
ATOM     27  C   UNL     1      43.909   9.594  10.964  0.00  0.00    +0.000 A 
ENDBRANCH  20  22
ENDBRANCH  15  16
ENDBRANCH   1  15
TORSDOF 5
ENDMDL
MODEL 9
REMARK VINA RESULT:    -6.633      3.661      6.134
REMARK INTER + INTRA:          -9.571
REMARK INTER:                  -8.205
REMARK INTRA:                  -1.367
REMARK UNBOUND:                -1.000
REMARK  Name = 
REMARK  5 active torsions:
REMARK  status: ('A' for Active; 'I' for Inactive)
REMARK    1  A    between atoms: C_2  and  C_4
REMARK    2  A    between atoms: N_8  and  C_9
REMARK    3  A    between atoms: C_9  and  C_10
REMARK    4  A    between atoms: C_10  and  C_11
REMARK    5  A    between atoms: C_15  and  C_16
REMARK                            x       y       z     vdW  Elec       q    Type
REMARK                         _______ _______ _______ _____ _____    ______ ____
ROOT
ATOM      1  C   UNL     1      48.739   7.797  12.588  0.00  0.00    +0.000 C 
ENDROOT
BRANCH   1   6
ATOM      2  C   UNL     1      45.121   4.277  11.968  0.00  0.00    +0.000 A 
ATOM      3  C   UNL     1      45.881   4.587  13.092  0.00  0.00    +0.000 A 
ATOM      4  C   UNL     1      46.697   5.717  13.070  0.00  0.00    +0.000 A 
ATOM      5  C   UNL     1      46.749   6.521  11.936  0.00  0.00    +0.000 A 
ATOM      6  N   UNL     1      47.465   7.705  11.884  0.00  0.00    +0.000 N 
ATOM      7  N   UNL     1      46.033   6.216  10.830  0.00  0.00    +0.000 NA
ATOM      8  C   UNL     1      45.247   5.107  10.864  0.00  0.00    +0.000 A 
ATOM      9  H   UNL     1      47.449   8.041  10.925  0.00  0.00    +0.000 HD
BRANCH   2  11
ATOM     10  N   UNL     1      44.124   2.449  10.719  0.00  0.00    +0.000 N 
ATOM     11  C   UNL     1      44.222   3.107  11.914  0.00  0.00    +0.000 C 
ATOM     12  O   UNL     1      43.609   2.722  12.901  0.00  0.00    +0.000 OA
ATOM     13  H   UNL     1      43.580   1.595  10.713  0.00  0.00    +0.000 HD
ATOM     14  H   UNL     1      44.791   2.580   9.969  0.00  0.00    +0.000 HD
ENDBRANCH   2  11
ENDBRANCH   1   6
BRANCH   1  15
ATOM     15  C   UNL     1      48.745   9.001  13.539  0.00  0.00    +0.000 C 
BRANCH  15  16
ATOM     16  C   UNL     1      48.744   8.554  14.983  0.00  0.00    +0.000 A 
ATOM     17  C   UNL     1      48.387   9.435  16.008  0.00  0.00    +0.000 A 
ATOM     18  C   UNL     1      48.326   8.991  17.325  0.00  0.00    +0.000 A 
ATOM     19  C   UNL     1      48.582   7.651  17.620  0.00  0.00    +0.000 A 
ATOM     20  C   UNL     1      48.882   6.722  16.608  0.00  0.00    +0.000 A 
ATOM     21  C   UNL     1      49.001   7.211  15.295  0.00  0.00    +0.000 A 
BRANCH  20  22
ATOM     22  C   UNL     1      48.924   5.268  16.880  0.00  0.00    +0.000 A 
ATOM     23  C   UNL     1      47.869   4.438  16.449  0.00  0.00    +0.000 A 
ATOM     24  C   UNL     1      47.942   3.053  16.558  0.00  0.00    +0.000 A 
ATOM     25  C   UNL     1      49.073   2.455  17.100  0.00  0.00    +0.000 A 
ATOM     26  C   UNL     1      50.122   3.249  17.557  0.00  0.00    +0.000 A 
ATOM     27  C   UNL     1      50.042   4.640  17.462  0.00  0.00    +0.000 A 
ENDBRANCH  20  22
ENDBRANCH  15  16
ENDBRANCH   1  15
TORSDOF 5
ENDMDL
