MODEL 1
REMARK VINA RESULT:    -7.579      0.000      0.000
REMARK INTER + INTRA:         -10.645
REMARK INTER:                 -10.016
REMARK INTRA:                  -0.629
REMARK UNBOUND:                -0.629
REMARK  Name = 
REMARK  6 active torsions:
REMARK  status: ('A' for Active; 'I' for Inactive)
REMARK    1  A    between atoms: N_1  and  C_2
REMARK    2  A    between atoms: C_2  and  C_3
REMARK    3  A    between atoms: C_8  and  C_9
REMARK    4  A    between atoms: C_9  and  C_10
REMARK    5  A    between atoms: C_10  and  N_11
REMARK    6  A    between atoms: C_15  and  C_16
REMARK                            x       y       z     vdW  Elec       q    Type
REMARK                         _______ _______ _______ _____ _____    ______ ____
ROOT
ATOM      1  N   UNL     1      43.915   5.079   9.876  0.00  0.00    +0.000 N 
ATOM      2  C   UNL     1      44.686   4.064   9.269  0.00  0.00    +0.000 A 
ATOM      3  C   UNL     1      45.494   4.373   8.178  0.00  0.00    +0.000 A 
ATOM      4  C   UNL     1      46.250   3.361   7.570  0.00  0.00    +0.000 A 
ATOM      5  C   UNL     1      46.188   2.053   8.061  0.00  0.00    +0.000 A 
ATOM      6  C   UNL     1      45.344   1.836   9.133  0.00  0.00    +0.000 A 
ATOM      7  N   UNL     1      44.607   2.800   9.733  0.00  0.00    +0.000 NA
ATOM      8  H   UNL     1      44.527   5.850  10.129  0.00  0.00    +0.000 HD
ENDROOT
BRANCH   5   9
ATOM      9  C   UNL     1      46.996   0.980   7.434  0.00  0.00    +0.000 C 
ATOM     10  N   UNL     1      47.946   1.315   6.508  0.00  0.00    +0.000 N 
ATOM     11  O   UNL     1      46.811  -0.196   7.724  0.00  0.00    +0.000 OA
ATOM     12  H   UNL     1      48.168   2.243   6.191  0.00  0.00    +0.000 HD
ATOM     13  H   UNL     1      48.468   0.549   6.099  0.00  0.00    +0.000 HD
ENDBRANCH   5   9
BRANCH   1  14
ATOM     14  C   UNL     1      43.142   4.573  11.023  0.00  0.00    +0.000 C 
BRANCH  14  15
ATOM     15  C   UNL     1      43.226   5.495  12.247  0.00  0.00    +0.000 C 
BRANCH  15  21
ATOM     16  C   UNL     1      45.445   6.802  12.496  0.00  0.00    +0.000 A 
ATOM     17  C   UNL     1      46.803   6.801  12.890  0.00  0.00    +0.000 A 
ATOM     18  C   UNL     1      47.385   5.683  13.483  0.00  0.00    +0.000 A 
ATOM     19  C   UNL     1      46.619   4.545  13.702  0.00  0.00    +0.000 A 
ATOM     20  C   UNL     1      45.279   4.523  13.313  0.00  0.00    +0.000 A 
ATOM     21  C   UNL     1      44.670   5.641  12.707  0.00  0.00    +0.000 A 
BRANCH  16  22
ATOM     22  C   UNL     1      44.897   8.092  11.933  0.00  0.00    +0.000 C 
BRANCH  22  23
ATOM     23  N   UNL     1      45.078   9.188  12.879  0.00  0.00    +0.000 NA
ATOM     24  H   UNL     1      44.300   9.837  12.789  0.00  0.00    +0.000 HD
ATOM     25  H   UNL     1      45.912   9.717  12.618  0.00  0.00    +0.000 HD
ENDBRANCH  22  23
ENDBRANCH  16  22
ENDBRANCH  15  21
ENDBRANCH  14  15
ENDBRANCH   1  14
TORSDOF 6
ENDMDL
MODEL 2
REMARK VINA RESULT:    -7.380      1.806      2.621
REMARK INTER + INTRA:         -10.382
REMARK INTER:                  -9.644
REMARK INTRA:                  -0.739
REMARK UNBOUND:                -0.629
REMARK  Name = 
REMARK  6 active torsions:
REMARK  status: ('A' for Active; 'I' for Inactive)
REMARK    1  A    between atoms: N_1  and  C_2
REMARK    2  A    between atoms: C_2  and  C_3
REMARK    3  A    between atoms: C_8  and  C_9
REMARK    4  A    between atoms: C_9  and  C_10
REMARK    5  A    between atoms: C_10  and  N_11
REMARK    6  A    between atoms: C_15  and  C_16
REMARK                            x       y       z     vdW  Elec       q    Type
REMARK                         _______ _______ _______ _____ _____    ______ ____
ROOT
ATOM      1  N   UNL     1      43.445   3.545  10.965  0.00  0.00    +0.000 N 
ATOM      2  C   UNL     1      44.385   3.356   9.929  0.00  0.00    +0.000 A 
ATOM      3  C   UNL     1      44.712   2.065   9.524  0.00  0.00    +0.000 A 
ATOM      4  C   UNL     1      45.655   1.879   8.502  0.00  0.00    +0.000 A 
ATOM      5  C   UNL     1      46.258   2.988   7.900  0.00  0.00    +0.000 A 
ATOM      6  C   UNL     1      45.888   4.229   8.381  0.00  0.00    +0.000 A 
ATOM      7  N   UNL     1      44.980   4.428   9.366  0.00  0.00    +0.000 NA
ATOM      8  H   UNL     1      42.590   3.049  10.727  0.00  0.00    +0.000 HD
ENDROOT
BRANCH   5   9
ATOM      9  C   UNL     1      47.245   2.802   6.809  0.00  0.00    +0.000 C 
ATOM     10  N   UNL     1      47.090   3.503   5.644  0.00  0.00    +0.000 N 
ATOM     11  O   UNL     1      48.181   2.023   6.935  0.00  0.00    +0.000 OA
ATOM     12  H   UNL     1      46.353   4.155   5.434  0.00  0.00    +0.000 HD
ATOM     13  H   UNL     1      47.781   3.339   4.922  0.00  0.00    +0.000 HD
ENDBRANCH   5   9
BRANCH   1  14
ATOM     14  C   UNL     1      43.211   4.972  11.244  0.00  0.00    +0.000 C 
BRANCH  14  15
ATOM     15  C   UNL     1      43.633   5.375  12.664  0.00  0.00    +0.000 C 
BRANCH  15  21
ATOM     16  C   UNL     1      46.195   5.209  12.984  0.00  0.00    +0.000 A 
ATOM     17  C   UNL     1      47.446   5.866  13.027  0.00  0.00    +0.000 A 
ATOM     18  C   UNL     1      47.561   7.226  12.748  0.00  0.00    +0.000 A 
ATOM     19  C   UNL     1      46.427   7.956  12.414  0.00  0.00    +0.000 A 
ATOM     20  C   UNL     1      45.182   7.328  12.374  0.00  0.00    +0.000 A 
ATOM     21  C   UNL     1      45.041   5.954  12.657  0.00  0.00    +0.000 A 
BRANCH  16  22
ATOM     22  C   UNL     1      46.196   3.718  13.228  0.00  0.00    +0.000 C 
BRANCH  22  23
ATOM     23  N   UNL     1      47.283   3.342  14.127  0.00  0.00    +0.000 NA
ATOM     24  H   UNL     1      46.959   3.413  15.088  0.00  0.00    +0.000 HD
ATOM     25  H   UNL     1      48.038   4.023  14.036  0.00  0.00    +0.000 HD
ENDBRANCH  22  23
ENDBRANCH  16  22
ENDBRANCH  15  21
ENDBRANCH  14  15
ENDBRANCH   1  14
TORSDOF 6
ENDMDL
MODEL 3
REMARK VINA RESULT:    -6.484      4.933      8.032
REMARK INTER + INTRA:          -9.197
REMARK INTER:                  -8.784
REMARK INTRA:                  -0.413
REMARK UNBOUND:                -0.629
REMARK  Name = 
REMARK  6 active torsions:
REMARK  status: ('A' for Active; 'I' for Inactive)
REMARK    1  A    between atoms: N_1  and  C_2
REMARK    2  A    between atoms: C_2  and  C_3
REMARK    3  A    between atoms: C_8  and  C_9
REMARK    4  A    between atoms: C_9  and  C_10
REMARK    5  A    between atoms: C_10  and  N_11
REMARK    6  A    between atoms: C_15  and  C_16
REMARK                            x       y       z     vdW  Elec       q    Type
REMARK                         _______ _______ _______ _____ _____    ______ ____
ROOT
ATOM      1  N   UNL     1      46.582   3.952  14.664  0.00  0.00    +0.000 N 
ATOM      2  C   UNL     1      47.389   4.249  15.783  0.00  0.00    +0.000 A 
ATOM      3  C   UNL     1      47.335   3.430  16.908  0.00  0.00    +0.000 A 
ATOM      4  C   UNL     1      48.130   3.733  18.022  0.00  0.00    +0.000 A 
ATOM      5  C   UNL     1      48.967   4.853  17.998  0.00  0.00    +0.000 A 
ATOM      6  C   UNL     1      48.940   5.619  16.849  0.00  0.00    +0.000 A 
ATOM      7  N   UNL     1      48.180   5.341  15.763  0.00  0.00    +0.000 NA
ATOM      8  H   UNL     1      46.756   2.991  14.379  0.00  0.00    +0.000 HD
ENDROOT
BRANCH   5   9
ATOM      9  C   UNL     1      49.822   5.173  19.166  0.00  0.00    +0.000 C 
ATOM     10  N   UNL     1      49.790   4.352  20.261  0.00  0.00    +0.000 N 
ATOM     11  O   UNL     1      50.540   6.166  19.166  0.00  0.00    +0.000 OA
ATOM     12  H   UNL     1      49.230   3.523  20.369  0.00  0.00    +0.000 HD
ATOM     13  H   UNL     1      50.383   4.613  21.039  0.00  0.00    +0.000 HD
ENDBRANCH   5   9
BRANCH   1  14
ATOM     14  C   UNL     1      46.787   4.912  13.566  0.00  0.00    +0.000 C 
BRANCH  14  15
ATOM     15  C   UNL     1      45.469   5.488  13.029  0.00  0.00    +0.000 C 
BRANCH  15  21
ATOM     16  C   UNL     1      44.431   3.878  11.289  0.00  0.00    +0.000 A 
ATOM     17  C   UNL     1      44.330   3.471   9.939  0.00  0.00    +0.000 A 
ATOM     18  C   UNL     1      44.985   4.162   8.922  0.00  0.00    +0.000 A 
ATOM     19  C   UNL     1      45.749   5.279   9.233  0.00  0.00    +0.000 A 
ATOM     20  C   UNL     1      45.867   5.694  10.561  0.00  0.00    +0.000 A 
ATOM     21  C   UNL     1      45.217   5.007  11.607  0.00  0.00    +0.000 A 
BRANCH  16  22
ATOM     22  C   UNL     1      43.619   3.104  12.301  0.00  0.00    +0.000 C 
BRANCH  22  23
ATOM     23  N   UNL     1      42.998   1.937  11.681  0.00  0.00    +0.000 NA
ATOM     24  H   UNL     1      43.520   1.104  11.944  0.00  0.00    +0.000 HD
ATOM     25  H   UNL     1      43.089   2.013  10.667  0.00  0.00    +0.000 HD
ENDBRANCH  22  23
ENDBRANCH  16  22
ENDBRANCH  15  21
ENDBRANCH  14  15
ENDBRANCH   1  14
TORSDOF 6
ENDMDL
MODEL 4
REMARK VINA RESULT:    -6.295      4.174      6.060
REMARK INTER + INTRA:          -8.948
REMARK INTER:                  -8.573
REMARK INTRA:                  -0.376
REMARK UNBOUND:                -0.629
REMARK  Name = 
REMARK  6 active torsions:
REMARK  status: ('A' for Active; 'I' for Inactive)
REMARK    1  A    between atoms: N_1  and  C_2
REMARK    2  A    between atoms: C_2  and  C_3
REMARK    3  A    between atoms: C_8  and  C_9
REMARK    4  A    between atoms: C_9  and  C_10
REMARK    5  A    between atoms: C_10  and  N_11
REMARK    6  A    between atoms: C_15  and  C_16
REMARK                            x       y       z     vdW  Elec       q    Type
REMARK                         _______ _______ _______ _____ _____    ______ ____
ROOT
ATOM      1  N   UNL     1      46.989   5.233  14.841  0.00  0.00    +0.000 N 
ATOM      2  C   UNL     1      46.343   4.851  13.645  0.00  0.00    +0.000 A 
ATOM      3  C   UNL     1      46.032   5.818  12.692  0.00  0.00    +0.000 A 
ATOM      4  C   UNL     1      45.381   5.438  11.510  0.00  0.00    +0.000 A 
ATOM      5  C   UNL     1      45.048   4.097  11.297  0.00  0.00    +0.000 A 
ATOM      6  C   UNL     1      45.377   3.212  12.306  0.00  0.00    +0.000 A 
ATOM      7  N   UNL     1      46.006   3.560  13.454  0.00  0.00    +0.000 NA
ATOM      8  H   UNL     1      47.834   5.748  14.608  0.00  0.00    +0.000 HD
ENDROOT
BRANCH   5   9
ATOM      9  C   UNL     1      44.372   3.683  10.044  0.00  0.00    +0.000 C 
ATOM     10  N   UNL     1      43.876   4.645   9.206  0.00  0.00    +0.000 N 
ATOM     11  O   UNL     1      44.243   2.498   9.762  0.00  0.00    +0.000 OA
ATOM     12  H   UNL     1      43.918   5.640   9.348  0.00  0.00    +0.000 HD
ATOM     13  H   UNL     1      43.415   4.317   8.365  0.00  0.00    +0.000 HD
ENDBRANCH   5   9
BRANCH   1  14
ATOM     14  C   UNL     1      47.256   4.079  15.716  0.00  0.00    +0.000 C 
BRANCH  14  15
ATOM     15  C   UNL     1      47.665   4.494  17.136  0.00  0.00    +0.000 C 
BRANCH  15  21
ATOM     16  C   UNL     1      50.131   3.768  17.433  0.00  0.00    +0.000 A 
ATOM     17  C   UNL     1      51.488   4.144  17.556  0.00  0.00    +0.000 A 
ATOM     18  C   UNL     1      51.885   5.474  17.447  0.00  0.00    +0.000 A 
ATOM     19  C   UNL     1      50.933   6.457  17.205  0.00  0.00    +0.000 A 
ATOM     20  C   UNL     1      49.587   6.107  17.088  0.00  0.00    +0.000 A 
ATOM     21  C   UNL     1      49.161   4.768  17.200  0.00  0.00    +0.000 A 
BRANCH  16  22
ATOM     22  C   UNL     1      49.822   2.290  17.492  0.00  0.00    +0.000 C 
BRANCH  22  23
ATOM     23  N   UNL     1      49.898   1.692  16.163  0.00  0.00    +0.000 NA
ATOM     24  H   UNL     1      50.158   2.409  15.490  0.00  0.00    +0.000 HD
ATOM     25  H   UNL     1      48.967   1.378  15.888  0.00  0.00    +0.000 HD
ENDBRANCH  22  23
ENDBRANCH  16  22
ENDBRANCH  15  21
ENDBRANCH  14  15
ENDBRANCH   1  14
TORSDOF 6
ENDMDL
MODEL 5
REMARK VINA RESULT:    -6.078      4.149      5.748
REMARK INTER + INTRA:          -8.661
REMARK INTER:                  -8.293
REMARK INTRA:                  -0.368
REMARK UNBOUND:                -0.629
REMARK  Name = 
REMARK  6 active torsions:
REMARK  status: ('A' for Active; 'I' for Inactive)
REMARK    1  A    between atoms: N_1  and  C_2
REMARK    2  A    between atoms: C_2  and  C_3
REMARK    3  A    between atoms: C_8  and  C_9
REMARK    4  A    between atoms: C_9  and  C_10
REMARK    5  A    between atoms: C_10  and  N_11
REMARK    6  A    between atoms: C_15  and  C_16
REMARK                            x       y       z     vdW  Elec       q    Type
REMARK                         _______ _______ _______ _____ _____    ______ ____
ROOT
ATOM      1  N   UNL     1      46.995   5.232  14.703  0.00  0.00    +0.000 N 
ATOM      2  C   UNL     1      46.360   4.830  13.508  0.00  0.00    +0.000 A 
ATOM      3  C   UNL     1      46.152   5.760  12.493  0.00  0.00    +0.000 A 
ATOM      4  C   UNL     1      45.511   5.362  11.312  0.00  0.00    +0.000 A 
ATOM      5  C   UNL     1      45.086   4.038  11.161  0.00  0.00    +0.000 A 
ATOM      6  C   UNL     1      45.317   3.191  12.228  0.00  0.00    +0.000 A 
ATOM      7  N   UNL     1      45.934   3.558  13.376  0.00  0.00    +0.000 NA
ATOM      8  H   UNL     1      47.883   5.671  14.472  0.00  0.00    +0.000 HD
ENDROOT
BRANCH   5   9
ATOM      9  C   UNL     1      44.421   3.604   9.909  0.00  0.00    +0.000 C 
ATOM     10  N   UNL     1      43.969   4.551   9.031  0.00  0.00    +0.000 N 
ATOM     11  O   UNL     1      44.261   2.414   9.664  0.00  0.00    +0.000 OA
ATOM     12  H   UNL     1      44.038   5.549   9.142  0.00  0.00    +0.000 HD
ATOM     13  H   UNL     1      43.513   4.210   8.193  0.00  0.00    +0.000 HD
ENDBRANCH   5   9
BRANCH   1  14
ATOM     14  C   UNL     1      47.148   4.114  15.649  0.00  0.00    +0.000 C 
BRANCH  14  15
ATOM     15  C   UNL     1      47.678   4.564  17.018  0.00  0.00    +0.000 C 
BRANCH  15  21
ATOM     16  C   UNL     1      50.211   4.815  17.484  0.00  0.00    +0.000 A 
ATOM     17  C   UNL     1      51.475   4.197  17.614  0.00  0.00    +0.000 A 
ATOM     18  C   UNL     1      51.620   2.815  17.527  0.00  0.00    +0.000 A 
ATOM     19  C   UNL     1      50.501   2.020  17.317  0.00  0.00    +0.000 A 
ATOM     20  C   UNL     1      49.243   2.610  17.179  0.00  0.00    +0.000 A 
ATOM     21  C   UNL     1      49.074   4.008  17.258  0.00  0.00    +0.000 A 
BRANCH  16  22
ATOM     22  C   UNL     1      50.158   6.313  17.671  0.00  0.00    +0.000 C 
BRANCH  22  23
ATOM     23  N   UNL     1      51.007   6.987  16.693  0.00  0.00    +0.000 NA
ATOM     24  H   UNL     1      51.624   7.634  17.178  0.00  0.00    +0.000 HD
ATOM     25  H   UNL     1      50.420   7.563  16.087  0.00  0.00    +0.000 HD
ENDBRANCH  22  23
ENDBRANCH  16  22
ENDBRANCH  15  21
ENDBRANCH  14  15
ENDBRANCH   1  14
TORSDOF 6
ENDMDL
MODEL 6
REMARK VINA RESULT:    -5.844      4.000      6.128
REMARK INTER + INTRA:          -8.352
REMARK INTER:                  -7.800
REMARK INTRA:                  -0.552
REMARK UNBOUND:                -0.629
REMARK  Name = 
REMARK  6 active torsions:
REMARK  status: ('A' for Active; 'I' for Inactive)
REMARK    1  A    between atoms: N_1  and  C_2
REMARK    2  A    between atoms: C_2  and  C_3
REMARK    3  A    between atoms: C_8  and  C_9
REMARK    4  A    between atoms: C_9  and  C_10
REMARK    5  A    between atoms: C_10  and  N_11
REMARK    6  A    between atoms: C_15  and  C_16
REMARK                            x       y       z     vdW  Elec       q    Type
REMARK                         _______ _______ _______ _____ _____    ______ ____
ROOT
ATOM      1  N   UNL     1      47.704   7.437  14.044  0.00  0.00    +0.000 N 
ATOM      2  C   UNL     1      46.921   6.376  13.543  0.00  0.00    +0.000 A 
ATOM      3  C   UNL     1      45.718   6.653  12.898  0.00  0.00    +0.000 A 
ATOM      4  C   UNL     1      44.936   5.596  12.410  0.00  0.00    +0.000 A 
ATOM      5  C   UNL     1      45.367   4.276  12.574  0.00  0.00    +0.000 A 
ATOM      6  C   UNL     1      46.563   4.096  13.243  0.00  0.00    +0.000 A 
ATOM      7  N   UNL     1      47.331   5.103  13.721  0.00  0.00    +0.000 NA
ATOM      8  H   UNL     1      47.879   8.100  13.293  0.00  0.00    +0.000 HD
ENDROOT
BRANCH   5   9
ATOM      9  C   UNL     1      44.555   3.153  12.048  0.00  0.00    +0.000 C 
ATOM     10  N   UNL     1      44.787   2.699  10.778  0.00  0.00    +0.000 N 
ATOM     11  O   UNL     1      43.674   2.642  12.730  0.00  0.00    +0.000 OA
ATOM     12  H   UNL     1      45.474   3.055  10.134  0.00  0.00    +0.000 HD
ATOM     13  H   UNL     1      44.203   1.937  10.457  0.00  0.00    +0.000 HD
ENDBRANCH   5   9
BRANCH   1  14
ATOM     14  C   UNL     1      48.947   6.957  14.673  0.00  0.00    +0.000 C 
BRANCH  14  15
ATOM     15  C   UNL     1      48.886   6.991  16.207  0.00  0.00    +0.000 C 
BRANCH  15  21
ATOM     16  C   UNL     1      48.825   4.640  17.286  0.00  0.00    +0.000 A 
ATOM     17  C   UNL     1      49.534   3.576  17.887  0.00  0.00    +0.000 A 
ATOM     18  C   UNL     1      50.922   3.600  17.998  0.00  0.00    +0.000 A 
ATOM     19  C   UNL     1      51.631   4.687  17.504  0.00  0.00    +0.000 A 
ATOM     20  C   UNL     1      50.950   5.752  16.913  0.00  0.00    +0.000 A 
ATOM     21  C   UNL     1      49.545   5.752  16.794  0.00  0.00    +0.000 A 
BRANCH  16  22
ATOM     22  C   UNL     1      47.329   4.476  17.149  0.00  0.00    +0.000 C 
BRANCH  22  23
ATOM     23  N   UNL     1      46.642   4.996  18.327  0.00  0.00    +0.000 NA
ATOM     24  H   UNL     1      46.709   6.010  18.331  0.00  0.00    +0.000 HD
ATOM     25  H   UNL     1      47.135   4.681  19.163  0.00  0.00    +0.000 HD
ENDBRANCH  22  23
ENDBRANCH  16  22
ENDBRANCH  15  21
ENDBRANCH  14  15
ENDBRANCH   1  14
TORSDOF 6
ENDMDL
MODEL 7
REMARK VINA RESULT:    -5.726      4.149      5.787
REMARK INTER + INTRA:          -8.197
REMARK INTER:                  -7.516
REMARK INTRA:                  -0.680
REMARK UNBOUND:                -0.629
REMARK  Name = 
REMARK  6 active torsions:
REMARK  status: ('A' for Active; 'I' for Inactive)
REMARK    1  A    between atoms: N_1  and  C_2
REMARK    2  A    between atoms: C_2  and  C_3
REMARK    3  A    between atoms: C_8  and  C_9
REMARK    4  A    between atoms: C_9  and  C_10
REMARK    5  A    between atoms: C_10  and  N_11
REMARK    6  A    between atoms: C_15  and  C_16
REMARK                            x       y       z     vdW  Elec       q    Type
REMARK                         _______ _______ _______ _____ _____    ______ ____
ROOT
ATOM      1  N   UNL     1      47.618   6.053  14.566  0.00  0.00    +0.000 N 
ATOM      2  C   UNL     1      46.721   5.568  13.590  0.00  0.00    +0.000 A 
ATOM      3  C   UNL     1      46.501   6.307  12.430  0.00  0.00    +0.000 A 
ATOM      4  C   UNL     1      45.601   5.829  11.467  0.00  0.00    +0.000 A 
ATOM      5  C   UNL     1      44.931   4.620  11.678  0.00  0.00    +0.000 A 
ATOM      6  C   UNL     1      45.196   3.966  12.866  0.00  0.00    +0.000 A 
ATOM      7  N   UNL     1      46.062   4.412  13.807  0.00  0.00    +0.000 NA
ATOM      8  H   UNL     1      48.514   6.243  14.123  0.00  0.00    +0.000 HD
ENDROOT
BRANCH   5   9
ATOM      9  C   UNL     1      43.988   4.099  10.659  0.00  0.00    +0.000 C 
ATOM     10  N   UNL     1      44.064   4.573   9.377  0.00  0.00    +0.000 N 
ATOM     11  O   UNL     1      43.140   3.266  10.955  0.00  0.00    +0.000 OA
ATOM     12  H   UNL     1      44.711   5.262   9.034  0.00  0.00    +0.000 HD
ATOM     13  H   UNL     1      43.395   4.196   8.716  0.00  0.00    +0.000 HD
ENDBRANCH   5   9
BRANCH   1  14
ATOM     14  C   UNL     1      47.739   5.133  15.710  0.00  0.00    +0.000 C 
BRANCH  14  15
ATOM     15  C   UNL     1      48.887   5.512  16.656  0.00  0.00    +0.000 C 
BRANCH  15  21
ATOM     16  C   UNL     1      48.401   7.736  17.886  0.00  0.00    +0.000 A 
ATOM     17  C   UNL     1      47.962   8.389  19.060  0.00  0.00    +0.000 A 
ATOM     18  C   UNL     1      47.490   7.670  20.156  0.00  0.00    +0.000 A 
ATOM     19  C   UNL     1      47.440   6.283  20.097  0.00  0.00    +0.000 A 
ATOM     20  C   UNL     1      47.875   5.619  18.950  0.00  0.00    +0.000 A 
ATOM     21  C   UNL     1      48.362   6.325  17.831  0.00  0.00    +0.000 A 
BRANCH  16  22
ATOM     22  C   UNL     1      48.821   8.614  16.731  0.00  0.00    +0.000 C 
BRANCH  22  23
ATOM     23  N   UNL     1      47.664   9.011  15.935  0.00  0.00    +0.000 NA
ATOM     24  H   UNL     1      47.878   9.877  15.446  0.00  0.00    +0.000 HD
ATOM     25  H   UNL     1      46.890   9.231  16.563  0.00  0.00    +0.000 HD
ENDBRANCH  22  23
ENDBRANCH  16  22
ENDBRANCH  15  21
ENDBRANCH  14  15
ENDBRANCH   1  14
TORSDOF 6
ENDMDL
MODEL 8
REMARK VINA RESULT:    -5.707      4.644      7.668
REMARK INTER + INTRA:          -8.171
REMARK INTER:                  -7.761
REMARK INTRA:                  -0.410
REMARK UNBOUND:                -0.629
REMARK  Name = 
REMARK  6 active torsions:
REMARK  status: ('A' for Active; 'I' for Inactive)
REMARK    1  A    between atoms: N_1  and  C_2
REMARK    2  A    between atoms: C_2  and  C_3
REMARK    3  A    between atoms: C_8  and  C_9
REMARK    4  A    between atoms: C_9  and  C_10
REMARK    5  A    between atoms: C_10  and  N_11
REMARK    6  A    between atoms: C_15  and  C_16
REMARK                            x       y       z     vdW  Elec       q    Type
REMARK                         _______ _______ _______ _____ _____    ______ ____
ROOT
ATOM      1  N   UNL     1      48.355   6.871  13.878  0.00  0.00    +0.000 N 
ATOM      2  C   UNL     1      48.429   6.288  15.161  0.00  0.00    +0.000 A 
ATOM      3  C   UNL     1      49.080   6.966  16.188  0.00  0.00    +0.000 A 
ATOM      4  C   UNL     1      49.163   6.380  17.459  0.00  0.00    +0.000 A 
ATOM      5  C   UNL     1      48.593   5.124  17.687  0.00  0.00    +0.000 A 
ATOM      6  C   UNL     1      47.984   4.517  16.605  0.00  0.00    +0.000 A 
ATOM      7  N   UNL     1      47.895   5.067  15.370  0.00  0.00    +0.000 NA
ATOM      8  H   UNL     1      47.955   7.802  13.962  0.00  0.00    +0.000 HD
ENDROOT
BRANCH   5   9
ATOM      9  C   UNL     1      48.661   4.503  19.032  0.00  0.00    +0.000 C 
ATOM     10  N   UNL     1      48.318   3.187  19.177  0.00  0.00    +0.000 N 
ATOM     11  O   UNL     1      49.005   5.158  20.008  0.00  0.00    +0.000 OA
ATOM     12  H   UNL     1      48.012   2.566  18.447  0.00  0.00    +0.000 HD
ATOM     13  H   UNL     1      48.372   2.807  20.114  0.00  0.00    +0.000 HD
ENDBRANCH   5   9
BRANCH   1  14
ATOM     14  C   UNL     1      47.613   6.022  12.929  0.00  0.00    +0.000 C 
BRANCH  14  15
ATOM     15  C   UNL     1      46.584   6.812  12.108  0.00  0.00    +0.000 C 
BRANCH  15  21
ATOM     16  C   UNL     1      44.954   5.404  10.675  0.00  0.00    +0.000 A 
ATOM     17  C   UNL     1      43.715   4.730  10.577  0.00  0.00    +0.000 A 
ATOM     18  C   UNL     1      42.856   4.629  11.668  0.00  0.00    +0.000 A 
ATOM     19  C   UNL     1      43.220   5.195  12.883  0.00  0.00    +0.000 A 
ATOM     20  C   UNL     1      44.435   5.871  12.999  0.00  0.00    +0.000 A 
ATOM     21  C   UNL     1      45.319   5.990  11.907  0.00  0.00    +0.000 A 
BRANCH  16  22
ATOM     22  C   UNL     1      45.841   5.387   9.452  0.00  0.00    +0.000 C 
BRANCH  22  23
ATOM     23  N   UNL     1      45.222   4.623   8.374  0.00  0.00    +0.000 NA
ATOM     24  H   UNL     1      45.782   4.723   7.531  0.00  0.00    +0.000 HD
ATOM     25  H   UNL     1      44.315   5.036   8.155  0.00  0.00    +0.000 HD
ENDBRANCH  22  23
ENDBRANCH  16  22
ENDBRANCH  15  21
ENDBRANCH  14  15
ENDBRANCH   1  14
TORSDOF 6
ENDMDL
MODEL 9
REMARK VINA RESULT:    -5.493      5.272      7.985
REMARK INTER + INTRA:          -7.888
REMARK INTER:                  -7.522
REMARK INTRA:                  -0.366
REMARK UNBOUND:                -0.629
REMARK  Name = 
REMARK  6 active torsions:
REMARK  status: ('A' for Active; 'I' for Inactive)
REMARK    1  A    between atoms: N_1  and  C_2
REMARK    2  A    between atoms: C_2  and  C_3
REMARK    3  A    between atoms: C_8  and  C_9
REMARK    4  A    between atoms: C_9  and  C_10
REMARK    5  A    between atoms: C_10  and  N_11
REMARK    6  A    between atoms: C_15  and  C_16
REMARK                            x       y       z     vdW  Elec       q    Type
REMARK                         _______ _______ _______ _____ _____    ______ ____
ROOT
ATOM      1  N   UNL     1      46.975   3.537  15.236  0.00  0.00    +0.000 N 
ATOM      2  C   UNL     1      47.833   3.935  16.284  0.00  0.00    +0.000 A 
ATOM      3  C   UNL     1      48.010   3.098  17.383  0.00  0.00    +0.000 A 
ATOM      4  C   UNL     1      48.854   3.500  18.428  0.00  0.00    +0.000 A 
ATOM      5  C   UNL     1      49.509   4.734  18.360  0.00  0.00    +0.000 A 
ATOM      6  C   UNL     1      49.258   5.505  17.242  0.00  0.00    +0.000 A 
ATOM      7  N   UNL     1      48.447   5.134  16.223  0.00  0.00    +0.000 NA
ATOM      8  H   UNL     1      47.262   2.618  14.907  0.00  0.00    +0.000 HD
ENDROOT
BRANCH   5   9
ATOM      9  C   UNL     1      50.415   5.160  19.454  0.00  0.00    +0.000 C 
ATOM     10  N   UNL     1      51.378   4.295  19.898  0.00  0.00    +0.000 N 
ATOM     11  O   UNL     1      50.300   6.266  19.968  0.00  0.00    +0.000 OA
ATOM     12  H   UNL     1      51.548   3.365  19.554  0.00  0.00    +0.000 HD
ATOM     13  H   UNL     1      51.969   4.625  20.651  0.00  0.00    +0.000 HD
ENDBRANCH   5   9
BRANCH   1  14
ATOM     14  C   UNL     1      46.929   4.535  14.153  0.00  0.00    +0.000 C 
BRANCH  14  15
ATOM     15  C   UNL     1      45.498   4.827  13.678  0.00  0.00    +0.000 C 
BRANCH  15  21
ATOM     16  C   UNL     1      45.524   5.680  11.236  0.00  0.00    +0.000 A 
ATOM     17  C   UNL     1      45.318   5.406   9.865  0.00  0.00    +0.000 A 
ATOM     18  C   UNL     1      44.990   4.126   9.423  0.00  0.00    +0.000 A 
ATOM     19  C   UNL     1      44.866   3.093  10.343  0.00  0.00    +0.000 A 
ATOM     20  C   UNL     1      45.058   3.345  11.702  0.00  0.00    +0.000 A 
ATOM     21  C   UNL     1      45.386   4.633  12.173  0.00  0.00    +0.000 A 
BRANCH  16  22
ATOM     22  C   UNL     1      45.951   7.084  11.596  0.00  0.00    +0.000 C 
BRANCH  22  23
ATOM     23  N   UNL     1      44.802   7.887  12.002  0.00  0.00    +0.000 NA
ATOM     24  H   UNL     1      44.399   7.488  12.846  0.00  0.00    +0.000 HD
ATOM     25  H   UNL     1      44.077   7.812  11.287  0.00  0.00    +0.000 HD
ENDBRANCH  22  23
ENDBRANCH  16  22
ENDBRANCH  15  21
ENDBRANCH  14  15
ENDBRANCH   1  14
TORSDOF 6
ENDMDL
