MODEL 1
REMARK VINA RESULT:    -7.927      0.000      0.000
REMARK INTER + INTRA:         -12.967
REMARK INTER:                 -11.634
REMARK INTRA:                  -1.333
REMARK UNBOUND:                -1.333
REMARK  Name = 
REMARK  9 active torsions:
REMARK  status: ('A' for Active; 'I' for Inactive)
REMARK    1  A    between atoms: C_1  and  O_2
REMARK    2  A    between atoms: O_2  and  C_3
REMARK    3  A    between atoms: C_8  and  C_9
REMARK    4  A    between atoms: N_11  and  C_12
REMARK    5  A    between atoms: C_12  and  C_13
REMARK    6  A    between atoms: C_16  and  C_17
REMARK    7  A    between atoms: C_17  and  O_18
REMARK    8  A    between atoms: O_18  and  C_19
REMARK    9  A    between atoms: C_19  and  C_20
REMARK                            x       y       z     vdW  Elec       q    Type
REMARK                         _______ _______ _______ _____ _____    ______ ____
ROOT
ATOM      1  C   UNL     1      46.944   7.762  13.091  0.00  0.00    +0.000 C 
ENDROOT
BRANCH   1   2
ATOM      2  C   UNL     1      46.186   6.605  12.501  0.00  0.00    +0.000 A 
ATOM      3  C   UNL     1      45.884   6.573  11.134  0.00  0.00    +0.000 A 
ATOM      4  C   UNL     1      45.093   5.550  10.607  0.00  0.00    +0.000 A 
ATOM      5  C   UNL     1      44.581   4.543  11.438  0.00  0.00    +0.000 A 
ATOM      6  C   UNL     1      44.917   4.554  12.798  0.00  0.00    +0.000 A 
ATOM      7  C   UNL     1      45.710   5.577  13.325  0.00  0.00    +0.000 A 
BRANCH   5   8
ATOM      8  C   UNL     1      43.637   3.504  10.889  0.00  0.00    +0.000 C 
BRANCH   8   9
ATOM      9  O   UNL     1      43.958   3.230   9.532  0.00  0.00    +0.000 OA
BRANCH   9  10
ATOM     10  C   UNL     1      44.672   2.003   9.401  0.00  0.00    +0.000 C 
BRANCH  10  11
ATOM     11  C   UNL     1      45.692   2.164   8.306  0.00  0.00    +0.000 A 
ATOM     12  C   UNL     1      45.801   3.381   7.619  0.00  0.00    +0.000 A 
ATOM     13  C   UNL     1      46.719   3.530   6.578  0.00  0.00    +0.000 A 
ATOM     14  C   UNL     1      47.541   2.465   6.219  0.00  0.00    +0.000 A 
ATOM     15  C   UNL     1      47.455   1.255   6.904  0.00  0.00    +0.000 A 
ATOM     16  C   UNL     1      46.536   1.104   7.945  0.00  0.00    +0.000 A 
ENDBRANCH  10  11
ENDBRANCH   9  10
ENDBRANCH   8   9
ENDBRANCH   5   8
ENDBRANCH   1   2
BRANCH   1  19
ATOM     17  C   UNL     1      48.718   6.935  14.547  0.00  0.00    +0.000 C 
ATOM     18  O   UNL     1      49.473   6.808  13.584  0.00  0.00    +0.000 OA
ATOM     19  N   UNL     1      47.443   7.428  14.408  0.00  0.00    +0.000 N 
ATOM     20  H   UNL     1      46.773   7.255  15.142  0.00  0.00    +0.000 HD
BRANCH  17  26
ATOM     21  C   UNL     1      48.932   4.385  18.919  0.00  0.00    +0.000 A 
ATOM     22  N   UNL     1      48.079   3.384  18.600  0.00  0.00    +0.000 NA
ATOM     23  C   UNL     1      47.526   3.368  17.376  0.00  0.00    +0.000 A 
ATOM     24  C   UNL     1      47.766   4.318  16.395  0.00  0.00    +0.000 A 
ATOM     25  C   UNL     1      48.676   5.363  16.679  0.00  0.00    +0.000 A 
ATOM     26  C   UNL     1      49.115   6.509  15.893  0.00  0.00    +0.000 A 
ATOM     27  C   UNL     1      50.000   7.291  16.615  0.00  0.00    +0.000 A 
ATOM     28  S   UNL     1      50.318   6.701  18.169  0.00  0.00    +0.000 S 
ATOM     29  C   UNL     1      49.247   5.367  17.964  0.00  0.00    +0.000 A 
BRANCH  21  31
ATOM     30  C   UNL     1      48.572   4.946  21.167  0.00  0.00    +0.000 C 
ATOM     31  O   UNL     1      49.477   4.449  20.188  0.00  0.00    +0.000 OA
ENDBRANCH  21  31
ENDBRANCH  17  26
ENDBRANCH   1  19
TORSDOF 8
ENDMDL
MODEL 2
REMARK VINA RESULT:    -7.156      2.473      3.028
REMARK INTER + INTRA:         -11.836
REMARK INTER:                 -10.742
REMARK INTRA:                  -1.094
REMARK UNBOUND:                -1.333
REMARK  Name = 
REMARK  9 active torsions:
REMARK  status: ('A' for Active; 'I' for Inactive)
REMARK    1  A    between atoms: C_1  and  O_2
REMARK    2  A    between atoms: O_2  and  C_3
REMARK    3  A    between atoms: C_8  and  C_9
REMARK    4  A    between atoms: N_11  and  C_12
REMARK    5  A    between atoms: C_12  and  C_13
REMARK    6  A    between atoms: C_16  and  C_17
REMARK    7  A    between atoms: C_17  and  O_18
REMARK    8  A    between atoms: O_18  and  C_19
REMARK    9  A    between atoms: C_19  and  C_20
REMARK                            x       y       z     vdW  Elec       q    Type
REMARK                         _______ _______ _______ _____ _____    ______ ____
ROOT
ATOM      1  C   UNL     1      47.460   4.145  14.984  0.00  0.00    +0.000 C 
ENDROOT
BRANCH   1   2
ATOM      2  C   UNL     1      46.596   4.314  13.765  0.00  0.00    +0.000 A 
ATOM      3  C   UNL     1      46.205   5.590  13.339  0.00  0.00    +0.000 A 
ATOM      4  C   UNL     1      45.320   5.738  12.269  0.00  0.00    +0.000 A 
ATOM      5  C   UNL     1      44.801   4.615  11.609  0.00  0.00    +0.000 A 
ATOM      6  C   UNL     1      45.224   3.342  12.011  0.00  0.00    +0.000 A 
ATOM      7  C   UNL     1      46.111   3.192  13.080  0.00  0.00    +0.000 A 
BRANCH   5   8
ATOM      8  C   UNL     1      43.761   4.774  10.529  0.00  0.00    +0.000 C 
BRANCH   8   9
ATOM      9  O   UNL     1      44.002   3.838   9.488  0.00  0.00    +0.000 OA
BRANCH   9  10
ATOM     10  C   UNL     1      44.841   4.388   8.474  0.00  0.00    +0.000 C 
BRANCH  10  11
ATOM     11  C   UNL     1      45.745   3.299   7.965  0.00  0.00    +0.000 A 
ATOM     12  C   UNL     1      46.699   3.582   6.977  0.00  0.00    +0.000 A 
ATOM     13  C   UNL     1      47.519   2.572   6.471  0.00  0.00    +0.000 A 
ATOM     14  C   UNL     1      47.397   1.271   6.952  0.00  0.00    +0.000 A 
ATOM     15  C   UNL     1      46.464   0.979   7.944  0.00  0.00    +0.000 A 
ATOM     16  C   UNL     1      45.642   1.988   8.451  0.00  0.00    +0.000 A 
ENDBRANCH  10  11
ENDBRANCH   9  10
ENDBRANCH   8   9
ENDBRANCH   5   8
ENDBRANCH   1   2
BRANCH   1  19
ATOM     17  C   UNL     1      48.546   5.593  16.621  0.00  0.00    +0.000 C 
ATOM     18  O   UNL     1      49.476   4.796  16.735  0.00  0.00    +0.000 OA
ATOM     19  N   UNL     1      47.504   5.371  15.753  0.00  0.00    +0.000 N 
ATOM     20  H   UNL     1      46.644   5.881  15.887  0.00  0.00    +0.000 HD
BRANCH  17  26
ATOM     21  C   UNL     1      47.644   8.700  20.519  0.00  0.00    +0.000 A 
ATOM     22  N   UNL     1      47.283   7.766  21.430  0.00  0.00    +0.000 NA
ATOM     23  C   UNL     1      47.293   6.472  21.071  0.00  0.00    +0.000 A 
ATOM     24  C   UNL     1      47.650   6.010  19.814  0.00  0.00    +0.000 A 
ATOM     25  C   UNL     1      48.063   6.952  18.843  0.00  0.00    +0.000 A 
ATOM     26  C   UNL     1      48.466   6.800  17.450  0.00  0.00    +0.000 A 
ATOM     27  C   UNL     1      48.749   8.029  16.882  0.00  0.00    +0.000 A 
ATOM     28  S   UNL     1      48.558   9.331  17.948  0.00  0.00    +0.000 S 
ATOM     29  C   UNL     1      48.048   8.303  19.232  0.00  0.00    +0.000 A 
BRANCH  21  31
ATOM     30  C   UNL     1      48.739  10.484  21.574  0.00  0.00    +0.000 C 
ATOM     31  O   UNL     1      47.597  10.041  20.850  0.00  0.00    +0.000 OA
ENDBRANCH  21  31
ENDBRANCH  17  26
ENDBRANCH   1  19
TORSDOF 8
ENDMDL
MODEL 3
REMARK VINA RESULT:    -7.115      1.766      2.304
REMARK INTER + INTRA:         -11.777
REMARK INTER:                 -10.787
REMARK INTRA:                  -0.989
REMARK UNBOUND:                -1.333
REMARK  Name = 
REMARK  9 active torsions:
REMARK  status: ('A' for Active; 'I' for Inactive)
REMARK    1  A    between atoms: C_1  and  O_2
REMARK    2  A    between atoms: O_2  and  C_3
REMARK    3  A    between atoms: C_8  and  C_9
REMARK    4  A    between atoms: N_11  and  C_12
REMARK    5  A    between atoms: C_12  and  C_13
REMARK    6  A    between atoms: C_16  and  C_17
REMARK    7  A    between atoms: C_17  and  O_18
REMARK    8  A    between atoms: O_18  and  C_19
REMARK    9  A    between atoms: C_19  and  C_20
REMARK                            x       y       z     vdW  Elec       q    Type
REMARK                         _______ _______ _______ _____ _____    ______ ____
ROOT
ATOM      1  C   UNL     1      47.638   7.822  13.535  0.00  0.00    +0.000 C 
ENDROOT
BRANCH   1   2
ATOM      2  C   UNL     1      46.628   6.946  12.847  0.00  0.00    +0.000 A 
ATOM      3  C   UNL     1      45.689   7.497  11.965  0.00  0.00    +0.000 A 
ATOM      4  C   UNL     1      44.688   6.699  11.407  0.00  0.00    +0.000 A 
ATOM      5  C   UNL     1      44.600   5.337  11.726  0.00  0.00    +0.000 A 
ATOM      6  C   UNL     1      45.563   4.779  12.576  0.00  0.00    +0.000 A 
ATOM      7  C   UNL     1      46.566   5.576  13.133  0.00  0.00    +0.000 A 
BRANCH   5   8
ATOM      8  C   UNL     1      43.454   4.503  11.211  0.00  0.00    +0.000 C 
BRANCH   8   9
ATOM      9  O   UNL     1      43.732   4.067   9.887  0.00  0.00    +0.000 OA
BRANCH   9  10
ATOM     10  C   UNL     1      44.303   2.761   9.875  0.00  0.00    +0.000 C 
BRANCH  10  11
ATOM     11  C   UNL     1      45.333   2.704   8.780  0.00  0.00    +0.000 A 
ATOM     12  C   UNL     1      45.928   1.481   8.438  0.00  0.00    +0.000 A 
ATOM     13  C   UNL     1      46.910   1.421   7.449  0.00  0.00    +0.000 A 
ATOM     14  C   UNL     1      47.304   2.582   6.789  0.00  0.00    +0.000 A 
ATOM     15  C   UNL     1      46.710   3.802   7.109  0.00  0.00    +0.000 A 
ATOM     16  C   UNL     1      45.727   3.863   8.099  0.00  0.00    +0.000 A 
ENDBRANCH  10  11
ENDBRANCH   9  10
ENDBRANCH   8   9
ENDBRANCH   5   8
ENDBRANCH   1   2
BRANCH   1  19
ATOM     17  C   UNL     1      48.919   6.990  15.439  0.00  0.00    +0.000 C 
ATOM     18  O   UNL     1      49.921   6.870  14.734  0.00  0.00    +0.000 OA
ATOM     19  N   UNL     1      47.737   7.482  14.939  0.00  0.00    +0.000 N 
ATOM     20  H   UNL     1      46.884   7.304  15.448  0.00  0.00    +0.000 HD
BRANCH  17  26
ATOM     21  C   UNL     1      48.408   7.018  20.478  0.00  0.00    +0.000 A 
ATOM     22  N   UNL     1      47.837   8.238  20.607  0.00  0.00    +0.000 NA
ATOM     23  C   UNL     1      47.597   8.962  19.501  0.00  0.00    +0.000 A 
ATOM     24  C   UNL     1      47.896   8.548  18.213  0.00  0.00    +0.000 A 
ATOM     25  C   UNL     1      48.465   7.265  18.034  0.00  0.00    +0.000 A 
ATOM     26  C   UNL     1      48.912   6.559  16.840  0.00  0.00    +0.000 A 
ATOM     27  C   UNL     1      49.444   5.324  17.168  0.00  0.00    +0.000 A 
ATOM     28  S   UNL     1      49.416   4.991  18.828  0.00  0.00    +0.000 S 
ATOM     29  C   UNL     1      48.711   6.518  19.199  0.00  0.00    +0.000 A 
BRANCH  21  31
ATOM     30  C   UNL     1      47.581   5.598  22.151  0.00  0.00    +0.000 C 
ATOM     31  O   UNL     1      48.708   6.274  21.604  0.00  0.00    +0.000 OA
ENDBRANCH  21  31
ENDBRANCH  17  26
ENDBRANCH   1  19
TORSDOF 8
ENDMDL
MODEL 4
REMARK VINA RESULT:    -7.002      2.692      3.411
REMARK INTER + INTRA:         -11.609
REMARK INTER:                 -10.637
REMARK INTRA:                  -0.972
REMARK UNBOUND:                -1.333
REMARK  Name = 
REMARK  9 active torsions:
REMARK  status: ('A' for Active; 'I' for Inactive)
REMARK    1  A    between atoms: C_1  and  O_2
REMARK    2  A    between atoms: O_2  and  C_3
REMARK    3  A    between atoms: C_8  and  C_9
REMARK    4  A    between atoms: N_11  and  C_12
REMARK    5  A    between atoms: C_12  and  C_13
REMARK    6  A    between atoms: C_16  and  C_17
REMARK    7  A    between atoms: C_17  and  O_18
REMARK    8  A    between atoms: O_18  and  C_19
REMARK    9  A    between atoms: C_19  and  C_20
REMARK                            x       y       z     vdW  Elec       q    Type
REMARK                         _______ _______ _______ _____ _____    ______ ____
ROOT
ATOM      1  C   UNL     1      48.206   5.841  14.111  0.00  0.00    +0.000 C 
ENDROOT
BRANCH   1   2
ATOM      2  C   UNL     1      46.941   5.519  13.366  0.00  0.00    +0.000 A 
ATOM      3  C   UNL     1      46.467   4.202  13.301  0.00  0.00    +0.000 A 
ATOM      4  C   UNL     1      45.350   3.890  12.523  0.00  0.00    +0.000 A 
ATOM      5  C   UNL     1      44.689   4.885  11.789  0.00  0.00    +0.000 A 
ATOM      6  C   UNL     1      45.139   6.207  11.887  0.00  0.00    +0.000 A 
ATOM      7  C   UNL     1      46.256   6.521  12.666  0.00  0.00    +0.000 A 
BRANCH   5   8
ATOM      8  C   UNL     1      43.553   4.527  10.864  0.00  0.00    +0.000 C 
BRANCH   8   9
ATOM      9  O   UNL     1      43.996   3.580   9.902  0.00  0.00    +0.000 OA
BRANCH   9  10
ATOM     10  C   UNL     1      44.654   4.215   8.808  0.00  0.00    +0.000 C 
BRANCH  10  11
ATOM     11  C   UNL     1      45.632   3.239   8.211  0.00  0.00    +0.000 A 
ATOM     12  C   UNL     1      46.571   3.674   7.266  0.00  0.00    +0.000 A 
ATOM     13  C   UNL     1      47.459   2.772   6.679  0.00  0.00    +0.000 A 
ATOM     14  C   UNL     1      47.420   1.426   7.036  0.00  0.00    +0.000 A 
ATOM     15  C   UNL     1      46.502   0.983   7.985  0.00  0.00    +0.000 A 
ATOM     16  C   UNL     1      45.611   1.885   8.573  0.00  0.00    +0.000 A 
ENDBRANCH  10  11
ENDBRANCH   9  10
ENDBRANCH   8   9
ENDBRANCH   5   8
ENDBRANCH   1   2
BRANCH   1  19
ATOM     17  C   UNL     1      48.810   6.398  16.409  0.00  0.00    +0.000 C 
ATOM     18  O   UNL     1      49.898   5.839  16.277  0.00  0.00    +0.000 OA
ATOM     19  N   UNL     1      47.906   6.476  15.377  0.00  0.00    +0.000 N 
ATOM     20  H   UNL     1      46.941   6.679  15.591  0.00  0.00    +0.000 HD
BRANCH  17  26
ATOM     21  C   UNL     1      47.503   9.711  20.011  0.00  0.00    +0.000 A 
ATOM     22  N   UNL     1      47.462  10.825  19.243  0.00  0.00    +0.000 NA
ATOM     23  C   UNL     1      47.728  10.718  17.930  0.00  0.00    +0.000 A 
ATOM     24  C   UNL     1      48.048   9.531  17.290  0.00  0.00    +0.000 A 
ATOM     25  C   UNL     1      48.071   8.340  18.053  0.00  0.00    +0.000 A 
ATOM     26  C   UNL     1      48.390   6.963  17.695  0.00  0.00    +0.000 A 
ATOM     27  C   UNL     1      48.311   6.136  18.802  0.00  0.00    +0.000 A 
ATOM     28  S   UNL     1      47.869   6.943  20.224  0.00  0.00    +0.000 S 
ATOM     29  C   UNL     1      47.790   8.467  19.424  0.00  0.00    +0.000 A 
BRANCH  21  31
ATOM     30  C   UNL     1      45.946  10.182  21.701  0.00  0.00    +0.000 C 
ATOM     31  O   UNL     1      47.278   9.804  21.372  0.00  0.00    +0.000 OA
ENDBRANCH  21  31
ENDBRANCH  17  26
ENDBRANCH   1  19
TORSDOF 8
ENDMDL
MODEL 5
REMARK VINA RESULT:    -6.665      2.128      2.680
REMARK INTER + INTRA:         -11.116
REMARK INTER:                 -10.115
REMARK INTRA:                  -1.002
REMARK UNBOUND:                -1.333
REMARK  Name = 
REMARK  9 active torsions:
REMARK  status: ('A' for Active; 'I' for Inactive)
REMARK    1  A    between atoms: C_1  and  O_2
REMARK    2  A    between atoms: O_2  and  C_3
REMARK    3  A    between atoms: C_8  and  C_9
REMARK    4  A    between atoms: N_11  and  C_12
REMARK    5  A    between atoms: C_12  and  C_13
REMARK    6  A    between atoms: C_16  and  C_17
REMARK    7  A    between atoms: C_17  and  O_18
REMARK    8  A    between atoms: O_18  and  C_19
REMARK    9  A    between atoms: C_19  and  C_20
REMARK                            x       y       z     vdW  Elec       q    Type
REMARK                         _______ _______ _______ _____ _____    ______ ____
ROOT
ATOM      1  C   UNL     1      48.064   7.478  13.336  0.00  0.00    +0.000 C 
ENDROOT
BRANCH   1   2
ATOM      2  C   UNL     1      46.943   6.762  12.635  0.00  0.00    +0.000 A 
ATOM      3  C   UNL     1      45.961   7.480  11.941  0.00  0.00    +0.000 A 
ATOM      4  C   UNL     1      44.866   6.820  11.379  0.00  0.00    +0.000 A 
ATOM      5  C   UNL     1      44.727   5.431  11.505  0.00  0.00    +0.000 A 
ATOM      6  C   UNL     1      45.730   4.709  12.164  0.00  0.00    +0.000 A 
ATOM      7  C   UNL     1      46.826   5.368  12.726  0.00  0.00    +0.000 A 
BRANCH   5   8
ATOM      8  C   UNL     1      43.490   4.735  10.995  0.00  0.00    +0.000 C 
BRANCH   8   9
ATOM      9  O   UNL     1      43.855   3.723  10.067  0.00  0.00    +0.000 OA
BRANCH   9  10
ATOM     10  C   UNL     1      44.394   4.280   8.870  0.00  0.00    +0.000 C 
BRANCH  10  11
ATOM     11  C   UNL     1      45.410   3.319   8.315  0.00  0.00    +0.000 A 
ATOM     12  C   UNL     1      46.385   3.770   7.414  0.00  0.00    +0.000 A 
ATOM     13  C   UNL     1      47.310   2.882   6.865  0.00  0.00    +0.000 A 
ATOM     14  C   UNL     1      47.274   1.535   7.217  0.00  0.00    +0.000 A 
ATOM     15  C   UNL     1      46.321   1.076   8.123  0.00  0.00    +0.000 A 
ATOM     16  C   UNL     1      45.393   1.964   8.673  0.00  0.00    +0.000 A 
ENDBRANCH  10  11
ENDBRANCH   9  10
ENDBRANCH   8   9
ENDBRANCH   5   8
ENDBRANCH   1   2
BRANCH   1  19
ATOM     17  C   UNL     1      48.792   7.192  15.648  0.00  0.00    +0.000 C 
ATOM     18  O   UNL     1      48.457   8.346  15.914  0.00  0.00    +0.000 OA
ATOM     19  N   UNL     1      48.612   6.658  14.395  0.00  0.00    +0.000 N 
ATOM     20  H   UNL     1      49.141   5.838  14.137  0.00  0.00    +0.000 HD
BRANCH  17  26
ATOM     21  C   UNL     1      52.377   4.691  18.205  0.00  0.00    +0.000 A 
ATOM     22  N   UNL     1      53.459   5.208  17.577  0.00  0.00    +0.000 NA
ATOM     23  C   UNL     1      53.271   6.120  16.609  0.00  0.00    +0.000 A 
ATOM     24  C   UNL     1      52.031   6.580  16.194  0.00  0.00    +0.000 A 
ATOM     25  C   UNL     1      50.878   6.086  16.848  0.00  0.00    +0.000 A 
ATOM     26  C   UNL     1      49.458   6.341  16.638  0.00  0.00    +0.000 A 
ATOM     27  C   UNL     1      48.689   5.589  17.508  0.00  0.00    +0.000 A 
ATOM     28  S   UNL     1      49.599   4.614  18.552  0.00  0.00    +0.000 S 
ATOM     29  C   UNL     1      51.089   5.133  17.859  0.00  0.00    +0.000 A 
BRANCH  21  31
ATOM     30  C   UNL     1      53.621   2.829  18.902  0.00  0.00    +0.000 C 
ATOM     31  O   UNL     1      52.542   3.717  19.173  0.00  0.00    +0.000 OA
ENDBRANCH  21  31
ENDBRANCH  17  26
ENDBRANCH   1  19
TORSDOF 8
ENDMDL
MODEL 6
REMARK VINA RESULT:    -6.517      3.006      8.438
REMARK INTER + INTRA:         -10.898
REMARK INTER:                  -8.697
REMARK INTRA:                  -2.202
REMARK UNBOUND:                -1.333
REMARK  Name = 
REMARK  9 active torsions:
REMARK  status: ('A' for Active; 'I' for Inactive)
REMARK    1  A    between atoms: C_1  and  O_2
REMARK    2  A    between atoms: O_2  and  C_3
REMARK    3  A    between atoms: C_8  and  C_9
REMARK    4  A    between atoms: N_11  and  C_12
REMARK    5  A    between atoms: C_12  and  C_13
REMARK    6  A    between atoms: C_16  and  C_17
REMARK    7  A    between atoms: C_17  and  O_18
REMARK    8  A    between atoms: O_18  and  C_19
REMARK    9  A    between atoms: C_19  and  C_20
REMARK                            x       y       z     vdW  Elec       q    Type
REMARK                         _______ _______ _______ _____ _____    ______ ____
ROOT
ATOM      1  C   UNL     1      48.449   9.208  15.397  0.00  0.00    +0.000 C 
ENDROOT
BRANCH   1   2
ATOM      2  C   UNL     1      49.555   8.489  16.117  0.00  0.00    +0.000 A 
ATOM      3  C   UNL     1      50.190   7.386  15.530  0.00  0.00    +0.000 A 
ATOM      4  C   UNL     1      51.144   6.657  16.243  0.00  0.00    +0.000 A 
ATOM      5  C   UNL     1      51.479   7.011  17.557  0.00  0.00    +0.000 A 
ATOM      6  C   UNL     1      50.873   8.138  18.128  0.00  0.00    +0.000 A 
ATOM      7  C   UNL     1      49.919   8.868  17.416  0.00  0.00    +0.000 A 
BRANCH   5   8
ATOM      8  C   UNL     1      52.426   6.158  18.363  0.00  0.00    +0.000 C 
BRANCH   8   9
ATOM      9  O   UNL     1      51.966   4.813  18.380  0.00  0.00    +0.000 OA
BRANCH   9  10
ATOM     10  C   UNL     1      50.910   4.634  19.320  0.00  0.00    +0.000 C 
BRANCH  10  11
ATOM     11  C   UNL     1      49.658   4.279  18.564  0.00  0.00    +0.000 A 
ATOM     12  C   UNL     1      49.639   3.158  17.722  0.00  0.00    +0.000 A 
ATOM     13  C   UNL     1      48.495   2.840  16.989  0.00  0.00    +0.000 A 
ATOM     14  C   UNL     1      47.358   3.636  17.094  0.00  0.00    +0.000 A 
ATOM     15  C   UNL     1      47.358   4.745  17.938  0.00  0.00    +0.000 A 
ATOM     16  C   UNL     1      48.502   5.065  18.673  0.00  0.00    +0.000 A 
ENDBRANCH  10  11
ENDBRANCH   9  10
ENDBRANCH   8   9
ENDBRANCH   5   8
ENDBRANCH   1   2
BRANCH   1  19
ATOM     17  C   UNL     1      47.390   8.252  13.416  0.00  0.00    +0.000 C 
ATOM     18  O   UNL     1      48.044   8.997  12.686  0.00  0.00    +0.000 OA
ATOM     19  N   UNL     1      47.540   8.264  14.782  0.00  0.00    +0.000 N 
ATOM     20  H   UNL     1      46.811   7.863  15.353  0.00  0.00    +0.000 HD
BRANCH  17  26
ATOM     21  C   UNL     1      44.874   4.044  12.146  0.00  0.00    +0.000 A 
ATOM     22  N   UNL     1      45.645   3.151  12.808  0.00  0.00    +0.000 NA
ATOM     23  C   UNL     1      46.692   3.601  13.520  0.00  0.00    +0.000 A 
ATOM     24  C   UNL     1      47.051   4.935  13.630  0.00  0.00    +0.000 A 
ATOM     25  C   UNL     1      46.251   5.902  12.977  0.00  0.00    +0.000 A 
ATOM     26  C   UNL     1      46.370   7.351  12.873  0.00  0.00    +0.000 A 
ATOM     27  C   UNL     1      45.358   7.873  12.087  0.00  0.00    +0.000 A 
ATOM     28  S   UNL     1      44.290   6.703  11.487  0.00  0.00    +0.000 S 
ATOM     29  C   UNL     1      45.159   5.418  12.236  0.00  0.00    +0.000 A 
BRANCH  21  31
ATOM     30  C   UNL     1      44.219   3.141  10.083  0.00  0.00    +0.000 C 
ATOM     31  O   UNL     1      43.819   3.602  11.369  0.00  0.00    +0.000 OA
ENDBRANCH  21  31
ENDBRANCH  17  26
ENDBRANCH   1  19
TORSDOF 8
ENDMDL
MODEL 7
REMARK VINA RESULT:    -6.443      1.741      2.085
REMARK INTER + INTRA:         -10.790
REMARK INTER:                  -9.869
REMARK INTRA:                  -0.921
REMARK UNBOUND:                -1.333
REMARK  Name = 
REMARK  9 active torsions:
REMARK  status: ('A' for Active; 'I' for Inactive)
REMARK    1  A    between atoms: C_1  and  O_2
REMARK    2  A    between atoms: O_2  and  C_3
REMARK    3  A    between atoms: C_8  and  C_9
REMARK    4  A    between atoms: N_11  and  C_12
REMARK    5  A    between atoms: C_12  and  C_13
REMARK    6  A    between atoms: C_16  and  C_17
REMARK    7  A    between atoms: C_17  and  O_18
REMARK    8  A    between atoms: O_18  and  C_19
REMARK    9  A    between atoms: C_19  and  C_20
REMARK                            x       y       z     vdW  Elec       q    Type
REMARK                         _______ _______ _______ _____ _____    ______ ____
ROOT
ATOM      1  C   UNL     1      47.651   8.408  13.451  0.00  0.00    +0.000 C 
ENDROOT
BRANCH   1   2
ATOM      2  C   UNL     1      46.614   7.517  12.824  0.00  0.00    +0.000 A 
ATOM      3  C   UNL     1      46.747   6.124  12.873  0.00  0.00    +0.000 A 
ATOM      4  C   UNL     1      45.838   5.302  12.201  0.00  0.00    +0.000 A 
ATOM      5  C   UNL     1      44.784   5.857  11.463  0.00  0.00    +0.000 A 
ATOM      6  C   UNL     1      44.629   7.249  11.449  0.00  0.00    +0.000 A 
ATOM      7  C   UNL     1      45.536   8.071  12.121  0.00  0.00    +0.000 A 
BRANCH   5   8
ATOM      8  C   UNL     1      43.871   4.975  10.650  0.00  0.00    +0.000 C 
BRANCH   8   9
ATOM      9  O   UNL     1      44.547   4.530   9.481  0.00  0.00    +0.000 OA
BRANCH   9  10
ATOM     10  C   UNL     1      44.604   3.107   9.420  0.00  0.00    +0.000 C 
BRANCH  10  11
ATOM     11  C   UNL     1      45.587   2.718   8.349  0.00  0.00    +0.000 A 
ATOM     12  C   UNL     1      45.918   3.628   7.334  0.00  0.00    +0.000 A 
ATOM     13  C   UNL     1      46.801   3.266   6.316  0.00  0.00    +0.000 A 
ATOM     14  C   UNL     1      47.365   1.992   6.304  0.00  0.00    +0.000 A 
ATOM     15  C   UNL     1      47.056   1.084   7.314  0.00  0.00    +0.000 A 
ATOM     16  C   UNL     1      46.172   1.444   8.334  0.00  0.00    +0.000 A 
ENDBRANCH  10  11
ENDBRANCH   9  10
ENDBRANCH   8   9
ENDBRANCH   5   8
ENDBRANCH   1   2
BRANCH   1  19
ATOM     17  C   UNL     1      48.865   7.888  15.504  0.00  0.00    +0.000 C 
ATOM     18  O   UNL     1      48.235   8.752  16.114  0.00  0.00    +0.000 OA
ATOM     19  N   UNL     1      48.627   7.623  14.177  0.00  0.00    +0.000 N 
ATOM     20  H   UNL     1      49.331   7.130  13.647  0.00  0.00    +0.000 HD
BRANCH  17  26
ATOM     21  C   UNL     1      51.367   4.329  18.097  0.00  0.00    +0.000 A 
ATOM     22  N   UNL     1      50.345   3.457  18.263  0.00  0.00    +0.000 NA
ATOM     23  C   UNL     1      49.145   3.758  17.740  0.00  0.00    +0.000 A 
ATOM     24  C   UNL     1      48.866   4.916  17.031  0.00  0.00    +0.000 A 
ATOM     25  C   UNL     1      49.916   5.838  16.810  0.00  0.00    +0.000 A 
ATOM     26  C   UNL     1      49.947   7.134  16.143  0.00  0.00    +0.000 A 
ATOM     27  C   UNL     1      51.211   7.692  16.210  0.00  0.00    +0.000 A 
ATOM     28  S   UNL     1      52.339   6.728  17.026  0.00  0.00    +0.000 S 
ATOM     29  C   UNL     1      51.167   5.511  17.362  0.00  0.00    +0.000 A 
BRANCH  21  31
ATOM     30  C   UNL     1      53.397   3.173  17.894  0.00  0.00    +0.000 C 
ATOM     31  O   UNL     1      52.599   4.064  18.665  0.00  0.00    +0.000 OA
ENDBRANCH  21  31
ENDBRANCH  17  26
ENDBRANCH   1  19
TORSDOF 8
ENDMDL
MODEL 8
REMARK VINA RESULT:    -6.318      3.927      9.915
REMARK INTER + INTRA:         -10.607
REMARK INTER:                  -8.555
REMARK INTRA:                  -2.052
REMARK UNBOUND:                -1.333
REMARK  Name = 
REMARK  9 active torsions:
REMARK  status: ('A' for Active; 'I' for Inactive)
REMARK    1  A    between atoms: C_1  and  O_2
REMARK    2  A    between atoms: O_2  and  C_3
REMARK    3  A    between atoms: C_8  and  C_9
REMARK    4  A    between atoms: N_11  and  C_12
REMARK    5  A    between atoms: C_12  and  C_13
REMARK    6  A    between atoms: C_16  and  C_17
REMARK    7  A    between atoms: C_17  and  O_18
REMARK    8  A    between atoms: O_18  and  C_19
REMARK    9  A    between atoms: C_19  and  C_20
REMARK                            x       y       z     vdW  Elec       q    Type
REMARK                         _______ _______ _______ _____ _____    ______ ____
ROOT
ATOM      1  C   UNL     1      47.410   3.524  16.627  0.00  0.00    +0.000 C 
ENDROOT
BRANCH   1   2
ATOM      2  C   UNL     1      48.668   4.251  17.013  0.00  0.00    +0.000 A 
ATOM      3  C   UNL     1      49.692   3.588  17.701  0.00  0.00    +0.000 A 
ATOM      4  C   UNL     1      50.814   4.290  18.149  0.00  0.00    +0.000 A 
ATOM      5  C   UNL     1      50.930   5.669  17.924  0.00  0.00    +0.000 A 
ATOM      6  C   UNL     1      49.925   6.322  17.200  0.00  0.00    +0.000 A 
ATOM      7  C   UNL     1      48.803   5.621  16.751  0.00  0.00    +0.000 A 
BRANCH   5   8
ATOM      8  C   UNL     1      52.086   6.444  18.504  0.00  0.00    +0.000 C 
BRANCH   8   9
ATOM      9  O   UNL     1      52.203   6.168  19.893  0.00  0.00    +0.000 OA
BRANCH   9  10
ATOM     10  C   UNL     1      51.535   7.151  20.680  0.00  0.00    +0.000 C 
BRANCH  10  11
ATOM     11  C   UNL     1      50.108   6.715  20.873  0.00  0.00    +0.000 A 
ATOM     12  C   UNL     1      49.826   5.461  21.435  0.00  0.00    +0.000 A 
ATOM     13  C   UNL     1      48.507   5.031  21.586  0.00  0.00    +0.000 A 
ATOM     14  C   UNL     1      47.457   5.852  21.183  0.00  0.00    +0.000 A 
ATOM     15  C   UNL     1      47.723   7.107  20.637  0.00  0.00    +0.000 A 
ATOM     16  C   UNL     1      49.042   7.538  20.484  0.00  0.00    +0.000 A 
ENDBRANCH  10  11
ENDBRANCH   9  10
ENDBRANCH   8   9
ENDBRANCH   5   8
ENDBRANCH   1   2
BRANCH   1  19
ATOM     17  C   UNL     1      46.680   4.045  14.357  0.00  0.00    +0.000 C 
ATOM     18  O   UNL     1      47.348   3.113  13.910  0.00  0.00    +0.000 OA
ATOM     19  N   UNL     1      46.625   4.315  15.703  0.00  0.00    +0.000 N 
ATOM     20  H   UNL     1      46.314   5.227  16.002  0.00  0.00    +0.000 HD
BRANCH  17  26
ATOM     21  C   UNL     1      45.315   8.202  11.807  0.00  0.00    +0.000 A 
ATOM     22  N   UNL     1      46.385   8.974  12.109  0.00  0.00    +0.000 NA
ATOM     23  C   UNL     1      47.360   8.459  12.876  0.00  0.00    +0.000 A 
ATOM     24  C   UNL     1      47.353   7.173  13.393  0.00  0.00    +0.000 A 
ATOM     25  C   UNL     1      46.267   6.326  13.075  0.00  0.00    +0.000 A 
ATOM     26  C   UNL     1      45.951   4.959  13.472  0.00  0.00    +0.000 A 
ATOM     27  C   UNL     1      44.743   4.555  12.932  0.00  0.00    +0.000 A 
ATOM     28  S   UNL     1      43.995   5.738  11.979  0.00  0.00    +0.000 S 
ATOM     29  C   UNL     1      45.254   6.877  12.271  0.00  0.00    +0.000 A 
BRANCH  21  31
ATOM     30  C   UNL     1      44.017  10.098  11.332  0.00  0.00    +0.000 C 
ATOM     31  O   UNL     1      44.277   8.725  11.057  0.00  0.00    +0.000 OA
ENDBRANCH  21  31
ENDBRANCH  17  26
ENDBRANCH   1  19
TORSDOF 8
ENDMDL
MODEL 9
REMARK VINA RESULT:    -6.310      3.998      9.321
REMARK INTER + INTRA:         -10.594
REMARK INTER:                  -8.518
REMARK INTRA:                  -2.076
REMARK UNBOUND:                -1.333
REMARK  Name = 
REMARK  9 active torsions:
REMARK  status: ('A' for Active; 'I' for Inactive)
REMARK    1  A    between atoms: C_1  and  O_2
REMARK    2  A    between atoms: O_2  and  C_3
REMARK    3  A    between atoms: C_8  and  C_9
REMARK    4  A    between atoms: N_11  and  C_12
REMARK    5  A    between atoms: C_12  and  C_13
REMARK    6  A    between atoms: C_16  and  C_17
REMARK    7  A    between atoms: C_17  and  O_18
REMARK    8  A    between atoms: O_18  and  C_19
REMARK    9  A    between atoms: C_19  and  C_20
REMARK                            x       y       z     vdW  Elec       q    Type
REMARK                         _______ _______ _______ _____ _____    ______ ____
ROOT
ATOM      1  C   UNL     1      47.626   3.591  16.499  0.00  0.00    +0.000 C 
ENDROOT
BRANCH   1   2
ATOM      2  C   UNL     1      47.825   4.264  17.829  0.00  0.00    +0.000 A 
ATOM      3  C   UNL     1      46.929   5.244  18.274  0.00  0.00    +0.000 A 
ATOM      4  C   UNL     1      47.173   5.940  19.459  0.00  0.00    +0.000 A 
ATOM      5  C   UNL     1      48.320   5.676  20.220  0.00  0.00    +0.000 A 
ATOM      6  C   UNL     1      49.194   4.668  19.795  0.00  0.00    +0.000 A 
ATOM      7  C   UNL     1      48.951   3.970  18.610  0.00  0.00    +0.000 A 
BRANCH   5   8
ATOM      8  C   UNL     1      48.638   6.505  21.439  0.00  0.00    +0.000 C 
BRANCH   8   9
ATOM      9  O   UNL     1      48.512   7.886  21.128  0.00  0.00    +0.000 OA
BRANCH   9  10
ATOM     10  C   UNL     1      49.667   8.377  20.451  0.00  0.00    +0.000 C 
BRANCH  10  11
ATOM     11  C   UNL     1      49.315   8.585  19.003  0.00  0.00    +0.000 A 
ATOM     12  C   UNL     1      48.231   9.405  18.655  0.00  0.00    +0.000 A 
ATOM     13  C   UNL     1      47.873   9.577  17.317  0.00  0.00    +0.000 A 
ATOM     14  C   UNL     1      48.597   8.937  16.315  0.00  0.00    +0.000 A 
ATOM     15  C   UNL     1      49.685   8.132  16.647  0.00  0.00    +0.000 A 
ATOM     16  C   UNL     1      50.045   7.957  17.985  0.00  0.00    +0.000 A 
ENDBRANCH  10  11
ENDBRANCH   9  10
ENDBRANCH   8   9
ENDBRANCH   5   8
ENDBRANCH   1   2
BRANCH   1  19
ATOM     17  C   UNL     1      46.704   4.104  14.299  0.00  0.00    +0.000 C 
ATOM     18  O   UNL     1      47.293   3.142  13.808  0.00  0.00    +0.000 OA
ATOM     19  N   UNL     1      46.786   4.396  15.639  0.00  0.00    +0.000 N 
ATOM     20  H   UNL     1      46.537   5.324  15.949  0.00  0.00    +0.000 HD
BRANCH  17  26
ATOM     21  C   UNL     1      45.211   8.294  11.876  0.00  0.00    +0.000 A 
ATOM     22  N   UNL     1      46.304   9.056  12.116  0.00  0.00    +0.000 NA
ATOM     23  C   UNL     1      47.321   8.527  12.817  0.00  0.00    +0.000 A 
ATOM     24  C   UNL     1      47.338   7.237  13.322  0.00  0.00    +0.000 A 
ATOM     25  C   UNL     1      46.227   6.399  13.065  0.00  0.00    +0.000 A 
ATOM     26  C   UNL     1      45.928   5.031  13.469  0.00  0.00    +0.000 A 
ATOM     27  C   UNL     1      44.685   4.641  13.004  0.00  0.00    +0.000 A 
ATOM     28  S   UNL     1      43.887   5.837  12.110  0.00  0.00    +0.000 S 
ATOM     29  C   UNL     1      45.170   6.965  12.331  0.00  0.00    +0.000 A 
BRANCH  21  31
ATOM     30  C   UNL     1      44.098  10.253  11.226  0.00  0.00    +0.000 C 
ATOM     31  O   UNL     1      44.132   8.831  11.198  0.00  0.00    +0.000 OA
ENDBRANCH  21  31
ENDBRANCH  17  26
ENDBRANCH   1  19
TORSDOF 8
ENDMDL
