MODEL 1
REMARK VINA RESULT:    -8.101      0.000      0.000
REMARK INTER + INTRA:         -12.923
REMARK INTER:                 -11.889
REMARK INTRA:                  -1.034
REMARK UNBOUND:                -1.034
REMARK  Name = 
REMARK  9 active torsions:
REMARK  status: ('A' for Active; 'I' for Inactive)
REMARK    1  A    between atoms: C_1  and  C_2
REMARK    2  A    between atoms: C_2  and  C_3
REMARK    3  A    between atoms: C_3  and  C_4
REMARK    4  A    between atoms: C_3  and  C_15
REMARK    5  A    between atoms: C_4  and  O_5
REMARK    6  A    between atoms: O_5  and  C_6
REMARK    7  A    between atoms: C_9  and  C_10
REMARK    8  A    between atoms: C_19  and  O_20
REMARK    9  A    between atoms: O_20  and  C_21
REMARK                            x       y       z     vdW  Elec       q    Type
REMARK                         _______ _______ _______ _____ _____    ______ ____
ROOT
ATOM      1  C   UNL     1      45.072   4.532  11.848  0.00  0.00    +0.000 C 
ENDROOT
BRANCH   1   2
ATOM      2  C   UNL     1      46.227   5.312  12.466  0.00  0.00    +0.000 A 
ATOM      3  C   UNL     1      46.660   6.506  11.873  0.00  0.00    +0.000 A 
ATOM      4  C   UNL     1      47.622   7.302  12.498  0.00  0.00    +0.000 A 
ATOM      5  C   UNL     1      48.172   6.914  13.721  0.00  0.00    +0.000 A 
ATOM      6  C   UNL     1      47.775   5.715  14.305  0.00  0.00    +0.000 A 
ATOM      7  C   UNL     1      46.810   4.920  13.681  0.00  0.00    +0.000 A 
BRANCH   6   8
ATOM      8  O   UNL     1      48.217   5.249  15.517  0.00  0.00    +0.000 OA
BRANCH   8   9
ATOM      9  C   UNL     1      47.399   4.303  16.241  0.00  0.00    +0.000 C 
ATOM     10  C   UNL     1      47.178   4.545  17.747  0.00  0.00    +0.000 C 
ATOM     11  N   UNL     1      47.602   3.167  18.045  0.00  0.00    +0.000 NA
ATOM     12  C   UNL     1      48.139   3.023  16.683  0.00  0.00    +0.000 C 
ATOM     13  H   UNL     1      46.833   2.532  18.255  0.00  0.00    +0.000 HD
ENDBRANCH   8   9
ENDBRANCH   6   8
ENDBRANCH   1   2
BRANCH   1  15
ATOM     14  C   UNL     1      42.872   5.071  13.060  0.00  0.00    +0.000 C 
ATOM     15  C   UNL     1      44.041   4.100  12.914  0.00  0.00    +0.000 C 
ENDBRANCH   1  15
BRANCH   1  16
ATOM     16  C   UNL     1      44.421   5.346  10.713  0.00  0.00    +0.000 C 
BRANCH  16  17
ATOM     17  O   UNL     1      43.860   4.460   9.732  0.00  0.00    +0.000 OA
BRANCH  17  18
ATOM     18  C   UNL     1      44.831   3.813   8.999  0.00  0.00    +0.000 A 
ATOM     19  C   UNL     1      44.882   2.433   9.094  0.00  0.00    +0.000 A 
ATOM     20  C   UNL     1      45.806   1.752   8.302  0.00  0.00    +0.000 A 
ATOM     21  C   UNL     1      46.650   2.469   7.445  0.00  0.00    +0.000 A 
ATOM     22  C   UNL     1      46.533   3.850   7.447  0.00  0.00    +0.000 A 
ATOM     23  N   UNL     1      45.642   4.537   8.200  0.00  0.00    +0.000 NA
BRANCH  21  24
ATOM     24  C   UNL     1      47.601   1.741   6.574  0.00  0.00    +0.000 C 
ATOM     25  N   UNL     1      48.784   2.341   6.239  0.00  0.00    +0.000 N 
ATOM     26  O   UNL     1      47.335   0.627   6.140  0.00  0.00    +0.000 OA
ATOM     27  H   UNL     1      49.093   3.259   6.512  0.00  0.00    +0.000 HD
ATOM     28  H   UNL     1      49.390   1.817   5.616  0.00  0.00    +0.000 HD
ENDBRANCH  21  24
ENDBRANCH  17  18
ENDBRANCH  16  17
ENDBRANCH   1  16
TORSDOF 8
ENDMDL
MODEL 2
REMARK VINA RESULT:    -7.148      2.714      3.244
REMARK INTER + INTRA:         -11.525
REMARK INTER:                 -10.541
REMARK INTRA:                  -0.984
REMARK UNBOUND:                -1.034
REMARK  Name = 
REMARK  9 active torsions:
REMARK  status: ('A' for Active; 'I' for Inactive)
REMARK    1  A    between atoms: C_1  and  C_2
REMARK    2  A    between atoms: C_2  and  C_3
REMARK    3  A    between atoms: C_3  and  C_4
REMARK    4  A    between atoms: C_3  and  C_15
REMARK    5  A    between atoms: C_4  and  O_5
REMARK    6  A    between atoms: O_5  and  C_6
REMARK    7  A    between atoms: C_9  and  C_10
REMARK    8  A    between atoms: C_19  and  O_20
REMARK    9  A    between atoms: O_20  and  C_21
REMARK                            x       y       z     vdW  Elec       q    Type
REMARK                         _______ _______ _______ _____ _____    ______ ____
ROOT
ATOM      1  C   UNL     1      45.011   4.865  11.478  0.00  0.00    +0.000 C 
ENDROOT
BRANCH   1   2
ATOM      2  C   UNL     1      45.566   6.254  11.775  0.00  0.00    +0.000 A 
ATOM      3  C   UNL     1      44.759   7.384  11.582  0.00  0.00    +0.000 A 
ATOM      4  C   UNL     1      45.201   8.648  11.976  0.00  0.00    +0.000 A 
ATOM      5  C   UNL     1      46.458   8.805  12.561  0.00  0.00    +0.000 A 
ATOM      6  C   UNL     1      47.282   7.696  12.730  0.00  0.00    +0.000 A 
ATOM      7  C   UNL     1      46.839   6.430  12.338  0.00  0.00    +0.000 A 
BRANCH   6   8
ATOM      8  O   UNL     1      48.518   7.721  13.324  0.00  0.00    +0.000 OA
BRANCH   8   9
ATOM      9  C   UNL     1      49.592   8.435  12.670  0.00  0.00    +0.000 C 
ATOM     10  C   UNL     1      50.330   7.728  11.516  0.00  0.00    +0.000 C 
ATOM     11  N   UNL     1      51.626   8.008  12.155  0.00  0.00    +0.000 NA
ATOM     12  C   UNL     1      50.946   8.372  13.408  0.00  0.00    +0.000 C 
ATOM     13  H   UNL     1      52.143   8.774  11.728  0.00  0.00    +0.000 HD
ENDBRANCH   8   9
ENDBRANCH   6   8
ENDBRANCH   1   2
BRANCH   1  15
ATOM     14  C   UNL     1      43.182   4.477  13.240  0.00  0.00    +0.000 C 
ATOM     15  C   UNL     1      44.592   4.130  12.771  0.00  0.00    +0.000 C 
ENDBRANCH   1  15
BRANCH   1  16
ATOM     16  C   UNL     1      43.854   4.954  10.465  0.00  0.00    +0.000 C 
BRANCH  16  17
ATOM     17  O   UNL     1      43.616   3.666   9.877  0.00  0.00    +0.000 OA
BRANCH  17  18
ATOM     18  C   UNL     1      44.644   3.273   9.050  0.00  0.00    +0.000 A 
ATOM     19  C   UNL     1      45.083   1.965   9.161  0.00  0.00    +0.000 A 
ATOM     20  C   UNL     1      46.070   1.523   8.281  0.00  0.00    +0.000 A 
ATOM     21  C   UNL     1      46.591   2.401   7.322  0.00  0.00    +0.000 A 
ATOM     22  C   UNL     1      46.099   3.697   7.314  0.00  0.00    +0.000 A 
ATOM     23  N   UNL     1      45.138   4.152   8.151  0.00  0.00    +0.000 NA
BRANCH  21  24
ATOM     24  C   UNL     1      47.609   1.918   6.361  0.00  0.00    +0.000 C 
ATOM     25  N   UNL     1      48.832   2.531   6.330  0.00  0.00    +0.000 N 
ATOM     26  O   UNL     1      47.365   0.999   5.590  0.00  0.00    +0.000 OA
ATOM     27  H   UNL     1      49.131   3.308   6.893  0.00  0.00    +0.000 HD
ATOM     28  H   UNL     1      49.486   2.186   5.635  0.00  0.00    +0.000 HD
ENDBRANCH  21  24
ENDBRANCH  17  18
ENDBRANCH  16  17
ENDBRANCH   1  16
TORSDOF 8
ENDMDL
MODEL 3
REMARK VINA RESULT:    -7.030      2.060      2.284
REMARK INTER + INTRA:         -11.352
REMARK INTER:                 -10.382
REMARK INTRA:                  -0.969
REMARK UNBOUND:                -1.034
REMARK  Name = 
REMARK  9 active torsions:
REMARK  status: ('A' for Active; 'I' for Inactive)
REMARK    1  A    between atoms: C_1  and  C_2
REMARK    2  A    between atoms: C_2  and  C_3
REMARK    3  A    between atoms: C_3  and  C_4
REMARK    4  A    between atoms: C_3  and  C_15
REMARK    5  A    between atoms: C_4  and  O_5
REMARK    6  A    between atoms: O_5  and  C_6
REMARK    7  A    between atoms: C_9  and  C_10
REMARK    8  A    between atoms: C_19  and  O_20
REMARK    9  A    between atoms: O_20  and  C_21
REMARK                            x       y       z     vdW  Elec       q    Type
REMARK                         _______ _______ _______ _____ _____    ______ ____
ROOT
ATOM      1  C   UNL     1      45.053   4.879  11.769  0.00  0.00    +0.000 C 
ENDROOT
BRANCH   1   2
ATOM      2  C   UNL     1      45.927   5.994  12.331  0.00  0.00    +0.000 A 
ATOM      3  C   UNL     1      45.495   7.326  12.255  0.00  0.00    +0.000 A 
ATOM      4  C   UNL     1      46.216   8.343  12.883  0.00  0.00    +0.000 A 
ATOM      5  C   UNL     1      47.382   8.048  13.591  0.00  0.00    +0.000 A 
ATOM      6  C   UNL     1      47.839   6.735  13.647  0.00  0.00    +0.000 A 
ATOM      7  C   UNL     1      47.117   5.716  13.021  0.00  0.00    +0.000 A 
BRANCH   6   8
ATOM      8  O   UNL     1      48.948   6.320  14.340  0.00  0.00    +0.000 OA
BRANCH   8   9
ATOM      9  C   UNL     1      49.669   7.282  15.143  0.00  0.00    +0.000 C 
ATOM     10  C   UNL     1      50.953   7.896  14.552  0.00  0.00    +0.000 C 
ATOM     11  N   UNL     1      51.701   7.540  15.769  0.00  0.00    +0.000 NA
ATOM     12  C   UNL     1      50.604   6.661  16.202  0.00  0.00    +0.000 C 
ATOM     13  H   UNL     1      51.872   8.325  16.395  0.00  0.00    +0.000 HD
ENDBRANCH   8   9
ENDBRANCH   6   8
ENDBRANCH   1   2
BRANCH   1  15
ATOM     14  C   UNL     1      42.916   4.821  13.194  0.00  0.00    +0.000 C 
ATOM     15  C   UNL     1      44.257   4.163  12.881  0.00  0.00    +0.000 C 
ENDBRANCH   1  15
BRANCH   1  16
ATOM     16  C   UNL     1      44.131   5.426  10.662  0.00  0.00    +0.000 C 
BRANCH  16  17
ATOM     17  O   UNL     1      43.711   4.358   9.799  0.00  0.00    +0.000 OA
BRANCH  17  18
ATOM     18  C   UNL     1      44.747   3.867   9.036  0.00  0.00    +0.000 A 
ATOM     19  C   UNL     1      44.917   2.494   9.006  0.00  0.00    +0.000 A 
ATOM     20  C   UNL     1      45.911   1.970   8.179  0.00  0.00    +0.000 A 
ATOM     21  C   UNL     1      46.705   2.833   7.414  0.00  0.00    +0.000 A 
ATOM     22  C   UNL     1      46.468   4.193   7.539  0.00  0.00    +0.000 A 
ATOM     23  N   UNL     1      45.508   4.729   8.328  0.00  0.00    +0.000 NA
BRANCH  21  24
ATOM     24  C   UNL     1      47.731   2.273   6.505  0.00  0.00    +0.000 C 
ATOM     25  N   UNL     1      47.893   2.830   5.266  0.00  0.00    +0.000 N 
ATOM     26  O   UNL     1      48.416   1.315   6.840  0.00  0.00    +0.000 OA
ATOM     27  H   UNL     1      47.370   3.596   4.876  0.00  0.00    +0.000 HD
ATOM     28  H   UNL     1      48.586   2.394   4.667  0.00  0.00    +0.000 HD
ENDBRANCH  21  24
ENDBRANCH  17  18
ENDBRANCH  16  17
ENDBRANCH   1  16
TORSDOF 8
ENDMDL
MODEL 4
REMARK VINA RESULT:    -6.883      3.316      5.464
REMARK INTER + INTRA:         -11.136
REMARK INTER:                 -10.282
REMARK INTRA:                  -0.855
REMARK UNBOUND:                -1.034
REMARK  Name = 
REMARK  9 active torsions:
REMARK  status: ('A' for Active; 'I' for Inactive)
REMARK    1  A    between atoms: C_1  and  C_2
REMARK    2  A    between atoms: C_2  and  C_3
REMARK    3  A    between atoms: C_3  and  C_4
REMARK    4  A    between atoms: C_3  and  C_15
REMARK    5  A    between atoms: C_4  and  O_5
REMARK    6  A    between atoms: O_5  and  C_6
REMARK    7  A    between atoms: C_9  and  C_10
REMARK    8  A    between atoms: C_19  and  O_20
REMARK    9  A    between atoms: O_20  and  C_21
REMARK                            x       y       z     vdW  Elec       q    Type
REMARK                         _______ _______ _______ _____ _____    ______ ____
ROOT
ATOM      1  C   UNL     1      44.931   5.389  11.629  0.00  0.00    +0.000 C 
ENDROOT
BRANCH   1   2
ATOM      2  C   UNL     1      44.929   6.895  11.864  0.00  0.00    +0.000 A 
ATOM      3  C   UNL     1      45.736   7.447  12.868  0.00  0.00    +0.000 A 
ATOM      4  C   UNL     1      45.850   8.831  13.007  0.00  0.00    +0.000 A 
ATOM      5  C   UNL     1      45.153   9.686  12.152  0.00  0.00    +0.000 A 
ATOM      6  C   UNL     1      44.323   9.151  11.171  0.00  0.00    +0.000 A 
ATOM      7  C   UNL     1      44.211   7.766  11.029  0.00  0.00    +0.000 A 
BRANCH   6   8
ATOM      8  O   UNL     1      43.620   9.888  10.252  0.00  0.00    +0.000 OA
BRANCH   8   9
ATOM      9  C   UNL     1      42.524  10.712  10.710  0.00  0.00    +0.000 C 
ATOM     10  C   UNL     1      41.178  10.023  11.005  0.00  0.00    +0.000 C 
ATOM     11  N   UNL     1      40.477  10.993  10.147  0.00  0.00    +0.000 NA
ATOM     12  C   UNL     1      41.761  11.446   9.588  0.00  0.00    +0.000 C 
ATOM     13  H   UNL     1      39.974  11.714  10.660  0.00  0.00    +0.000 HD
ENDBRANCH   8   9
ENDBRANCH   6   8
ENDBRANCH   1   2
BRANCH   1  15
ATOM     14  C   UNL     1      46.132   3.628  13.063  0.00  0.00    +0.000 C 
ATOM     15  C   UNL     1      44.964   4.605  12.959  0.00  0.00    +0.000 C 
ENDBRANCH   1  15
BRANCH   1  16
ATOM     16  C   UNL     1      43.735   4.981  10.749  0.00  0.00    +0.000 C 
BRANCH  16  17
ATOM     17  O   UNL     1      43.756   3.564  10.516  0.00  0.00    +0.000 OA
BRANCH  17  18
ATOM     18  C   UNL     1      44.603   3.218   9.487  0.00  0.00    +0.000 A 
ATOM     19  C   UNL     1      44.992   4.226   8.621  0.00  0.00    +0.000 A 
ATOM     20  C   UNL     1      45.910   3.916   7.617  0.00  0.00    +0.000 A 
ATOM     21  C   UNL     1      46.406   2.611   7.509  0.00  0.00    +0.000 A 
ATOM     22  C   UNL     1      45.931   1.673   8.411  0.00  0.00    +0.000 A 
ATOM     23  N   UNL     1      45.046   1.946   9.398  0.00  0.00    +0.000 NA
BRANCH  21  24
ATOM     24  C   UNL     1      47.412   2.294   6.469  0.00  0.00    +0.000 C 
ATOM     25  N   UNL     1      47.530   3.123   5.387  0.00  0.00    +0.000 N 
ATOM     26  O   UNL     1      48.120   1.299   6.556  0.00  0.00    +0.000 OA
ATOM     27  H   UNL     1      46.985   3.947   5.198  0.00  0.00    +0.000 HD
ATOM     28  H   UNL     1      48.209   2.849   4.686  0.00  0.00    +0.000 HD
ENDBRANCH  21  24
ENDBRANCH  17  18
ENDBRANCH  16  17
ENDBRANCH   1  16
TORSDOF 8
ENDMDL
MODEL 5
REMARK VINA RESULT:    -6.598      1.934      8.283
REMARK INTER + INTRA:         -10.718
REMARK INTER:                  -9.960
REMARK INTRA:                  -0.758
REMARK UNBOUND:                -1.034
REMARK  Name = 
REMARK  9 active torsions:
REMARK  status: ('A' for Active; 'I' for Inactive)
REMARK    1  A    between atoms: C_1  and  C_2
REMARK    2  A    between atoms: C_2  and  C_3
REMARK    3  A    between atoms: C_3  and  C_4
REMARK    4  A    between atoms: C_3  and  C_15
REMARK    5  A    between atoms: C_4  and  O_5
REMARK    6  A    between atoms: O_5  and  C_6
REMARK    7  A    between atoms: C_9  and  C_10
REMARK    8  A    between atoms: C_19  and  O_20
REMARK    9  A    between atoms: O_20  and  C_21
REMARK                            x       y       z     vdW  Elec       q    Type
REMARK                         _______ _______ _______ _____ _____    ______ ____
ROOT
ATOM      1  C   UNL     1      45.143   6.148  11.488  0.00  0.00    +0.000 C 
ENDROOT
BRANCH   1   2
ATOM      2  C   UNL     1      45.067   4.913  10.596  0.00  0.00    +0.000 A 
ATOM      3  C   UNL     1      44.295   3.813  10.992  0.00  0.00    +0.000 A 
ATOM      4  C   UNL     1      44.105   2.732  10.129  0.00  0.00    +0.000 A 
ATOM      5  C   UNL     1      44.688   2.730   8.862  0.00  0.00    +0.000 A 
ATOM      6  C   UNL     1      45.483   3.802   8.468  0.00  0.00    +0.000 A 
ATOM      7  C   UNL     1      45.672   4.885   9.330  0.00  0.00    +0.000 A 
BRANCH   6   8
ATOM      8  O   UNL     1      46.076   3.928   7.238  0.00  0.00    +0.000 OA
BRANCH   8   9
ATOM      9  C   UNL     1      46.584   2.744   6.584  0.00  0.00    +0.000 C 
ATOM     10  C   UNL     1      48.053   2.353   6.839  0.00  0.00    +0.000 C 
ATOM     11  N   UNL     1      48.297   2.267   5.390  0.00  0.00    +0.000 NA
ATOM     12  C   UNL     1      47.027   2.958   5.121  0.00  0.00    +0.000 C 
ATOM     13  H   UNL     1      48.332   1.314   5.030  0.00  0.00    +0.000 HD
ENDBRANCH   8   9
ENDBRANCH   6   8
ENDBRANCH   1   2
BRANCH   1  15
ATOM     14  C   UNL     1      44.086   8.463  11.135  0.00  0.00    +0.000 C 
ATOM     15  C   UNL     1      43.846   6.982  11.417  0.00  0.00    +0.000 C 
ENDBRANCH   1  15
BRANCH   1  16
ATOM     16  C   UNL     1      45.491   5.745  12.934  0.00  0.00    +0.000 C 
BRANCH  16  17
ATOM     17  O   UNL     1      46.778   5.109  12.970  0.00  0.00    +0.000 OA
BRANCH  17  18
ATOM     18  C   UNL     1      47.238   4.939  14.257  0.00  0.00    +0.000 A 
ATOM     19  C   UNL     1      48.083   5.911  14.762  0.00  0.00    +0.000 A 
ATOM     20  C   UNL     1      48.499   5.799  16.089  0.00  0.00    +0.000 A 
ATOM     21  C   UNL     1      48.062   4.719  16.866  0.00  0.00    +0.000 A 
ATOM     22  C   UNL     1      47.238   3.789  16.253  0.00  0.00    +0.000 A 
ATOM     23  N   UNL     1      46.814   3.874  14.971  0.00  0.00    +0.000 NA
BRANCH  21  24
ATOM     24  C   UNL     1      48.471   4.625  18.286  0.00  0.00    +0.000 C 
ATOM     25  N   UNL     1      48.333   3.429  18.937  0.00  0.00    +0.000 N 
ATOM     26  O   UNL     1      48.909   5.599  18.884  0.00  0.00    +0.000 OA
ATOM     27  H   UNL     1      47.960   2.575  18.555  0.00  0.00    +0.000 HD
ATOM     28  H   UNL     1      48.597   3.419  19.916  0.00  0.00    +0.000 HD
ENDBRANCH  21  24
ENDBRANCH  17  18
ENDBRANCH  16  17
ENDBRANCH   1  16
TORSDOF 8
ENDMDL
MODEL 6
REMARK VINA RESULT:    -6.302      3.128      7.563
REMARK INTER + INTRA:         -10.283
REMARK INTER:                  -9.301
REMARK INTRA:                  -0.982
REMARK UNBOUND:                -1.034
REMARK  Name = 
REMARK  9 active torsions:
REMARK  status: ('A' for Active; 'I' for Inactive)
REMARK    1  A    between atoms: C_1  and  C_2
REMARK    2  A    between atoms: C_2  and  C_3
REMARK    3  A    between atoms: C_3  and  C_4
REMARK    4  A    between atoms: C_3  and  C_15
REMARK    5  A    between atoms: C_4  and  O_5
REMARK    6  A    between atoms: O_5  and  C_6
REMARK    7  A    between atoms: C_9  and  C_10
REMARK    8  A    between atoms: C_19  and  O_20
REMARK    9  A    between atoms: O_20  and  C_21
REMARK                            x       y       z     vdW  Elec       q    Type
REMARK                         _______ _______ _______ _____ _____    ______ ____
ROOT
ATOM      1  C   UNL     1      48.499   8.301  12.054  0.00  0.00    +0.000 C 
ENDROOT
BRANCH   1   2
ATOM      2  C   UNL     1      47.067   7.789  11.941  0.00  0.00    +0.000 A 
ATOM      3  C   UNL     1      45.997   8.695  11.966  0.00  0.00    +0.000 A 
ATOM      4  C   UNL     1      44.692   8.259  11.728  0.00  0.00    +0.000 A 
ATOM      5  C   UNL     1      44.434   6.912  11.470  0.00  0.00    +0.000 A 
ATOM      6  C   UNL     1      45.483   5.997  11.475  0.00  0.00    +0.000 A 
ATOM      7  C   UNL     1      46.789   6.433  11.710  0.00  0.00    +0.000 A 
BRANCH   6   8
ATOM      8  O   UNL     1      45.358   4.659  11.199  0.00  0.00    +0.000 OA
BRANCH   8   9
ATOM      9  C   UNL     1      44.036   4.075  11.168  0.00  0.00    +0.000 C 
ATOM     10  C   UNL     1      43.563   3.296  12.411  0.00  0.00    +0.000 C 
ATOM     11  N   UNL     1      43.205   2.142  11.569  0.00  0.00    +0.000 NA
ATOM     12  C   UNL     1      43.953   2.716  10.440  0.00  0.00    +0.000 C 
ATOM     13  H   UNL     1      42.205   2.048  11.396  0.00  0.00    +0.000 HD
ENDBRANCH   8   9
ENDBRANCH   6   8
ENDBRANCH   1   2
BRANCH   1  15
ATOM     14  C   UNL     1      49.342  10.684  11.592  0.00  0.00    +0.000 C 
ATOM     15  C   UNL     1      48.542   9.773  12.520  0.00  0.00    +0.000 C 
ENDBRANCH   1  15
BRANCH   1  16
ATOM     16  C   UNL     1      49.327   7.382  12.972  0.00  0.00    +0.000 C 
BRANCH  16  17
ATOM     17  O   UNL     1      49.160   7.777  14.343  0.00  0.00    +0.000 OA
BRANCH  17  18
ATOM     18  C   UNL     1      48.797   6.720  15.148  0.00  0.00    +0.000 A 
ATOM     19  C   UNL     1      49.212   6.757  16.468  0.00  0.00    +0.000 A 
ATOM     20  C   UNL     1      48.790   5.737  17.321  0.00  0.00    +0.000 A 
ATOM     21  C   UNL     1      47.973   4.712  16.828  0.00  0.00    +0.000 A 
ATOM     22  C   UNL     1      47.637   4.758  15.484  0.00  0.00    +0.000 A 
ATOM     23  N   UNL     1      48.026   5.737  14.635  0.00  0.00    +0.000 NA
BRANCH  21  24
ATOM     24  C   UNL     1      47.492   3.653  17.745  0.00  0.00    +0.000 C 
ATOM     25  N   UNL     1      48.109   3.497  18.956  0.00  0.00    +0.000 N 
ATOM     26  O   UNL     1      46.572   2.912  17.427  0.00  0.00    +0.000 OA
ATOM     27  H   UNL     1      48.888   4.027  19.308  0.00  0.00    +0.000 HD
ATOM     28  H   UNL     1      47.767   2.740  19.537  0.00  0.00    +0.000 HD
ENDBRANCH  21  24
ENDBRANCH  17  18
ENDBRANCH  16  17
ENDBRANCH   1  16
TORSDOF 8
ENDMDL
MODEL 7
REMARK VINA RESULT:    -6.286      1.851      8.222
REMARK INTER + INTRA:         -10.260
REMARK INTER:                  -9.277
REMARK INTRA:                  -0.983
REMARK UNBOUND:                -1.034
REMARK  Name = 
REMARK  9 active torsions:
REMARK  status: ('A' for Active; 'I' for Inactive)
REMARK    1  A    between atoms: C_1  and  C_2
REMARK    2  A    between atoms: C_2  and  C_3
REMARK    3  A    between atoms: C_3  and  C_4
REMARK    4  A    between atoms: C_3  and  C_15
REMARK    5  A    between atoms: C_4  and  O_5
REMARK    6  A    between atoms: O_5  and  C_6
REMARK    7  A    between atoms: C_9  and  C_10
REMARK    8  A    between atoms: C_19  and  O_20
REMARK    9  A    between atoms: O_20  and  C_21
REMARK                            x       y       z     vdW  Elec       q    Type
REMARK                         _______ _______ _______ _____ _____    ______ ____
ROOT
ATOM      1  C   UNL     1      46.184   6.369  12.127  0.00  0.00    +0.000 C 
ENDROOT
BRANCH   1   2
ATOM      2  C   UNL     1      45.315   5.132  11.928  0.00  0.00    +0.000 A 
ATOM      3  C   UNL     1      44.362   4.785  12.896  0.00  0.00    +0.000 A 
ATOM      4  C   UNL     1      43.467   3.738  12.669  0.00  0.00    +0.000 A 
ATOM      5  C   UNL     1      43.515   3.016  11.475  0.00  0.00    +0.000 A 
ATOM      6  C   UNL     1      44.478   3.329  10.520  0.00  0.00    +0.000 A 
ATOM      7  C   UNL     1      45.371   4.378  10.746  0.00  0.00    +0.000 A 
BRANCH   6   8
ATOM      8  O   UNL     1      44.598   2.716   9.299  0.00  0.00    +0.000 OA
BRANCH   8   9
ATOM      9  C   UNL     1      45.855   2.808   8.592  0.00  0.00    +0.000 C 
ATOM     10  C   UNL     1      45.824   3.264   7.120  0.00  0.00    +0.000 C 
ATOM     11  N   UNL     1      46.621   2.092   6.725  0.00  0.00    +0.000 NA
ATOM     12  C   UNL     1      46.378   1.467   8.035  0.00  0.00    +0.000 C 
ATOM     13  H   UNL     1      47.602   2.299   6.542  0.00  0.00    +0.000 HD
ENDBRANCH   8   9
ENDBRANCH   6   8
ENDBRANCH   1   2
BRANCH   1  15
ATOM     14  C   UNL     1      45.878   8.893  12.495  0.00  0.00    +0.000 C 
ATOM     15  C   UNL     1      45.443   7.658  11.710  0.00  0.00    +0.000 C 
ENDBRANCH   1  15
BRANCH   1  16
ATOM     16  C   UNL     1      46.692   6.441  13.580  0.00  0.00    +0.000 C 
BRANCH  16  17
ATOM     17  O   UNL     1      47.738   5.478  13.782  0.00  0.00    +0.000 OA
BRANCH  17  18
ATOM     18  C   UNL     1      47.953   5.217  15.117  0.00  0.00    +0.000 A 
ATOM     19  C   UNL     1      47.135   4.276  15.719  0.00  0.00    +0.000 A 
ATOM     20  C   UNL     1      47.385   3.940  17.050  0.00  0.00    +0.000 A 
ATOM     21  C   UNL     1      48.439   4.555  17.736  0.00  0.00    +0.000 A 
ATOM     22  C   UNL     1      49.179   5.502  17.047  0.00  0.00    +0.000 A 
ATOM     23  N   UNL     1      48.964   5.844  15.755  0.00  0.00    +0.000 NA
BRANCH  21  24
ATOM     24  C   UNL     1      48.729   4.166  19.136  0.00  0.00    +0.000 C 
ATOM     25  N   UNL     1      48.265   2.964  19.597  0.00  0.00    +0.000 N 
ATOM     26  O   UNL     1      49.355   4.907  19.881  0.00  0.00    +0.000 OA
ATOM     27  H   UNL     1      47.719   2.292  19.085  0.00  0.00    +0.000 HD
ATOM     28  H   UNL     1      48.461   2.754  20.570  0.00  0.00    +0.000 HD
ENDBRANCH  21  24
ENDBRANCH  17  18
ENDBRANCH  16  17
ENDBRANCH   1  16
TORSDOF 8
ENDMDL
MODEL 8
REMARK VINA RESULT:    -6.224      3.577      5.455
REMARK INTER + INTRA:         -10.168
REMARK INTER:                  -9.321
REMARK INTRA:                  -0.847
REMARK UNBOUND:                -1.034
REMARK  Name = 
REMARK  9 active torsions:
REMARK  status: ('A' for Active; 'I' for Inactive)
REMARK    1  A    between atoms: C_1  and  C_2
REMARK    2  A    between atoms: C_2  and  C_3
REMARK    3  A    between atoms: C_3  and  C_4
REMARK    4  A    between atoms: C_3  and  C_15
REMARK    5  A    between atoms: C_4  and  O_5
REMARK    6  A    between atoms: O_5  and  C_6
REMARK    7  A    between atoms: C_9  and  C_10
REMARK    8  A    between atoms: C_19  and  O_20
REMARK    9  A    between atoms: O_20  and  C_21
REMARK                            x       y       z     vdW  Elec       q    Type
REMARK                         _______ _______ _______ _____ _____    ______ ____
ROOT
ATOM      1  C   UNL     1      48.467   7.841  14.825  0.00  0.00    +0.000 C 
ENDROOT
BRANCH   1   2
ATOM      2  C   UNL     1      49.375   6.939  15.653  0.00  0.00    +0.000 A 
ATOM      3  C   UNL     1      50.762   7.141  15.637  0.00  0.00    +0.000 A 
ATOM      4  C   UNL     1      51.596   6.417  16.491  0.00  0.00    +0.000 A 
ATOM      5  C   UNL     1      51.058   5.474  17.368  0.00  0.00    +0.000 A 
ATOM      6  C   UNL     1      49.686   5.240  17.372  0.00  0.00    +0.000 A 
ATOM      7  C   UNL     1      48.852   5.967  16.520  0.00  0.00    +0.000 A 
BRANCH   6   8
ATOM      8  O   UNL     1      49.042   4.368  18.212  0.00  0.00    +0.000 OA
BRANCH   8   9
ATOM      9  C   UNL     1      48.985   2.969  17.855  0.00  0.00    +0.000 C 
ATOM     10  C   UNL     1      50.249   2.327  17.250  0.00  0.00    +0.000 C 
ATOM     11  N   UNL     1      49.461   1.809  16.119  0.00  0.00    +0.000 NA
ATOM     12  C   UNL     1      48.335   2.683  16.484  0.00  0.00    +0.000 C 
ATOM     13  H   UNL     1      49.249   0.815  16.181  0.00  0.00    +0.000 HD
ENDBRANCH   8   9
ENDBRANCH   6   8
ENDBRANCH   1   2
BRANCH   1  15
ATOM     14  C   UNL     1      48.396   9.764  16.527  0.00  0.00    +0.000 C 
ATOM     15  C   UNL     1      48.740   9.335  15.103  0.00  0.00    +0.000 C 
ENDBRANCH   1  15
BRANCH   1  16
ATOM     16  C   UNL     1      48.594   7.501  13.328  0.00  0.00    +0.000 C 
BRANCH  16  17
ATOM     17  O   UNL     1      48.415   6.090  13.127  0.00  0.00    +0.000 OA
BRANCH  17  18
ATOM     18  C   UNL     1      47.139   5.782  12.708  0.00  0.00    +0.000 A 
ATOM     19  C   UNL     1      46.429   4.864  13.462  0.00  0.00    +0.000 A 
ATOM     20  C   UNL     1      45.109   4.594  13.102  0.00  0.00    +0.000 A 
ATOM     21  C   UNL     1      44.543   5.247  11.999  0.00  0.00    +0.000 A 
ATOM     22  C   UNL     1      45.350   6.128  11.299  0.00  0.00    +0.000 A 
ATOM     23  N   UNL     1      46.631   6.413  11.628  0.00  0.00    +0.000 NA
BRANCH  21  24
ATOM     24  C   UNL     1      43.128   4.990  11.644  0.00  0.00    +0.000 C 
ATOM     25  N   UNL     1      42.224   6.012  11.749  0.00  0.00    +0.000 N 
ATOM     26  O   UNL     1      42.759   3.882  11.279  0.00  0.00    +0.000 OA
ATOM     27  H   UNL     1      42.408   6.950  12.062  0.00  0.00    +0.000 HD
ATOM     28  H   UNL     1      41.262   5.782  11.524  0.00  0.00    +0.000 HD
ENDBRANCH  21  24
ENDBRANCH  17  18
ENDBRANCH  16  17
ENDBRANCH   1  16
TORSDOF 8
ENDMDL
MODEL 9
REMARK VINA RESULT:    -6.050      3.239      4.971
REMARK INTER + INTRA:          -9.914
REMARK INTER:                  -8.749
REMARK INTRA:                  -1.165
REMARK UNBOUND:                -1.034
REMARK  Name = 
REMARK  9 active torsions:
REMARK  status: ('A' for Active; 'I' for Inactive)
REMARK    1  A    between atoms: C_1  and  C_2
REMARK    2  A    between atoms: C_2  and  C_3
REMARK    3  A    between atoms: C_3  and  C_4
REMARK    4  A    between atoms: C_3  and  C_15
REMARK    5  A    between atoms: C_4  and  O_5
REMARK    6  A    between atoms: O_5  and  C_6
REMARK    7  A    between atoms: C_9  and  C_10
REMARK    8  A    between atoms: C_19  and  O_20
REMARK    9  A    between atoms: O_20  and  C_21
REMARK                            x       y       z     vdW  Elec       q    Type
REMARK                         _______ _______ _______ _____ _____    ______ ____
ROOT
ATOM      1  C   UNL     1      49.068   8.254  13.482  0.00  0.00    +0.000 C 
ENDROOT
BRANCH   1   2
ATOM      2  C   UNL     1      49.795   7.519  14.603  0.00  0.00    +0.000 A 
ATOM      3  C   UNL     1      51.169   7.720  14.794  0.00  0.00    +0.000 A 
ATOM      4  C   UNL     1      51.821   7.164  15.896  0.00  0.00    +0.000 A 
ATOM      5  C   UNL     1      51.114   6.393  16.819  0.00  0.00    +0.000 A 
ATOM      6  C   UNL     1      49.756   6.159  16.624  0.00  0.00    +0.000 A 
ATOM      7  C   UNL     1      49.102   6.718  15.524  0.00  0.00    +0.000 A 
BRANCH   6   8
ATOM      8  O   UNL     1      48.952   5.451  17.481  0.00  0.00    +0.000 OA
BRANCH   8   9
ATOM      9  C   UNL     1      48.459   4.158  17.065  0.00  0.00    +0.000 C 
ATOM     10  C   UNL     1      46.958   4.029  16.739  0.00  0.00    +0.000 C 
ATOM     11  N   UNL     1      46.846   2.874  17.644  0.00  0.00    +0.000 NA
ATOM     12  C   UNL     1      48.162   3.182  18.223  0.00  0.00    +0.000 C 
ATOM     13  H   UNL     1      46.805   1.975  17.167  0.00  0.00    +0.000 HD
ENDBRANCH   8   9
ENDBRANCH   6   8
ENDBRANCH   1   2
BRANCH   1  15
ATOM     14  C   UNL     1      50.405   8.933  11.396  0.00  0.00    +0.000 C 
ATOM     15  C   UNL     1      49.599   7.840  12.092  0.00  0.00    +0.000 C 
ENDBRANCH   1  15
BRANCH   1  16
ATOM     16  C   UNL     1      47.546   8.046  13.602  0.00  0.00    +0.000 C 
BRANCH  16  17
ATOM     17  O   UNL     1      46.963   7.917  12.296  0.00  0.00    +0.000 OA
BRANCH  17  18
ATOM     18  C   UNL     1      46.327   6.707  12.127  0.00  0.00    +0.000 A 
ATOM     19  C   UNL     1      46.424   5.791  13.161  0.00  0.00    +0.000 A 
ATOM     20  C   UNL     1      45.724   4.590  13.046  0.00  0.00    +0.000 A 
ATOM     21  C   UNL     1      44.954   4.341  11.902  0.00  0.00    +0.000 A 
ATOM     22  C   UNL     1      44.948   5.315  10.916  0.00  0.00    +0.000 A 
ATOM     23  N   UNL     1      45.612   6.491  11.003  0.00  0.00    +0.000 NA
BRANCH  21  24
ATOM     24  C   UNL     1      44.178   3.084  11.800  0.00  0.00    +0.000 C 
ATOM     25  N   UNL     1      44.115   2.441  10.594  0.00  0.00    +0.000 N 
ATOM     26  O   UNL     1      43.584   2.628  12.768  0.00  0.00    +0.000 OA
ATOM     27  H   UNL     1      44.537   2.738   9.730  0.00  0.00    +0.000 HD
ATOM     28  H   UNL     1      43.548   1.601  10.564  0.00  0.00    +0.000 HD
ENDBRANCH  21  24
ENDBRANCH  17  18
ENDBRANCH  16  17
ENDBRANCH   1  16
TORSDOF 8
ENDMDL
