MODEL 1
REMARK VINA RESULT:    -7.990      0.000      0.000
REMARK INTER + INTRA:         -12.892
REMARK INTER:                 -11.727
REMARK INTRA:                  -1.165
REMARK UNBOUND:                -1.165
REMARK  Name = 
REMARK  9 active torsions:
REMARK  status: ('A' for Active; 'I' for Inactive)
REMARK    1  A    between atoms: C_1  and  O_2
REMARK    2  A    between atoms: O_2  and  C_3
REMARK    3  A    between atoms: C_7  and  C_8
REMARK    4  A    between atoms: C_8  and  C_9
REMARK    5  A    between atoms: C_9  and  N_10
REMARK    6  A    between atoms: N_10  and  C_11
REMARK    7  A    between atoms: C_14  and  C_15
REMARK    8  A    between atoms: C_15  and  N_16
REMARK    9  A    between atoms: C_17  and  C_19
REMARK                            x       y       z     vdW  Elec       q    Type
REMARK                         _______ _______ _______ _____ _____    ______ ____
ROOT
ATOM      1  C   UNL     1      44.609   3.492  10.863  0.00  0.00    +0.000 A 
ATOM      2  C   UNL     1      44.616   4.745  10.241  0.00  0.00    +0.000 A 
ATOM      3  C   UNL     1      45.262   5.842  10.829  0.00  0.00    +0.000 A 
ATOM      4  C   UNL     1      45.912   5.709  12.060  0.00  0.00    +0.000 A 
ATOM      5  C   UNL     1      45.814   4.488  12.736  0.00  0.00    +0.000 A 
ATOM      6  C   UNL     1      45.159   3.400  12.146  0.00  0.00    +0.000 A 
ENDROOT
BRANCH   1   7
ATOM      7  N   UNL     1      44.020   2.340  10.315  0.00  0.00    +0.000 N 
ATOM      8  H   UNL     1      43.009   2.378  10.446  0.00  0.00    +0.000 HD
BRANCH   7   9
ATOM      9  C   UNL     1      44.395   1.980   8.942  0.00  0.00    +0.000 C 
BRANCH   9  10
ATOM     10  C   UNL     1      45.882   1.631   8.861  0.00  0.00    +0.000 C 
BRANCH  10  15
ATOM     11  C   UNL     1      47.338   1.312   5.502  0.00  0.00    +0.000 A 
ATOM     12  C   UNL     1      47.381   2.602   5.003  0.00  0.00    +0.000 A 
ATOM     13  C   UNL     1      46.925   3.635   5.814  0.00  0.00    +0.000 A 
ATOM     14  C   UNL     1      46.444   3.341   7.087  0.00  0.00    +0.000 A 
ATOM     15  C   UNL     1      46.438   2.016   7.514  0.00  0.00    +0.000 A 
ATOM     16  N   UNL     1      46.875   1.001   6.733  0.00  0.00    +0.000 NA
BRANCH  11  18
ATOM     17  C   UNL     1      46.865   0.032   3.610  0.00  0.00    +0.000 C 
ATOM     18  O   UNL     1      47.781   0.307   4.666  0.00  0.00    +0.000 OA
ENDBRANCH  11  18
ENDBRANCH  10  15
ENDBRANCH   9  10
ENDBRANCH   7   9
ENDBRANCH   1   7
BRANCH   4  19
ATOM     19  C   UNL     1      46.693   6.852  12.653  0.00  0.00    +0.000 C 
BRANCH  19  20
ATOM     20  N   UNL     1      47.042   6.604  14.026  0.00  0.00    +0.000 N 
ATOM     21  C   UNL     1      48.354   6.531  14.419  0.00  0.00    +0.000 C 
ATOM     22  O   UNL     1      49.280   6.729  13.637  0.00  0.00    +0.000 OA
ATOM     23  H   UNL     1      46.319   6.208  14.618  0.00  0.00    +0.000 HD
BRANCH  21  24
ATOM     24  C   UNL     1      48.597   6.263  15.841  0.00  0.00    +0.000 A 
ATOM     25  C   UNL     1      49.165   7.249  16.636  0.00  0.00    +0.000 A 
ATOM     26  S   UNL     1      49.323   6.799  18.274  0.00  0.00    +0.000 S 
ATOM     27  C   UNL     1      48.688   5.252  17.967  0.00  0.00    +0.000 A 
ATOM     28  N   UNL     1      48.571   4.332  18.961  0.00  0.00    +0.000 NA
ATOM     29  C   UNL     1      48.105   3.192  18.583  0.00  0.00    +0.000 A 
ATOM     30  N   UNL     1      47.746   2.883  17.295  0.00  0.00    +0.000 N 
ATOM     31  C   UNL     1      47.822   3.785  16.263  0.00  0.00    +0.000 A 
ATOM     32  O   UNL     1      47.457   3.488  15.130  0.00  0.00    +0.000 OA
ATOM     33  C   UNL     1      48.346   5.085  16.635  0.00  0.00    +0.000 A 
ATOM     34  H   UNL     1      47.387   1.968  17.063  0.00  0.00    +0.000 HD
ENDBRANCH  21  24
ENDBRANCH  19  20
ENDBRANCH   4  19
TORSDOF 8
ENDMDL
MODEL 2
REMARK VINA RESULT:    -7.783      1.496      2.101
REMARK INTER + INTRA:         -12.588
REMARK INTER:                 -11.417
REMARK INTRA:                  -1.171
REMARK UNBOUND:                -1.165
REMARK  Name = 
REMARK  9 active torsions:
REMARK  status: ('A' for Active; 'I' for Inactive)
REMARK    1  A    between atoms: C_1  and  O_2
REMARK    2  A    between atoms: O_2  and  C_3
REMARK    3  A    between atoms: C_7  and  C_8
REMARK    4  A    between atoms: C_8  and  C_9
REMARK    5  A    between atoms: C_9  and  N_10
REMARK    6  A    between atoms: N_10  and  C_11
REMARK    7  A    between atoms: C_14  and  C_15
REMARK    8  A    between atoms: C_15  and  N_16
REMARK    9  A    between atoms: C_17  and  C_19
REMARK                            x       y       z     vdW  Elec       q    Type
REMARK                         _______ _______ _______ _____ _____    ______ ____
ROOT
ATOM      1  C   UNL     1      45.403   3.910  12.320  0.00  0.00    +0.000 A 
ATOM      2  C   UNL     1      46.275   3.722  13.398  0.00  0.00    +0.000 A 
ATOM      3  C   UNL     1      47.127   4.749  13.827  0.00  0.00    +0.000 A 
ATOM      4  C   UNL     1      47.129   5.989  13.182  0.00  0.00    +0.000 A 
ATOM      5  C   UNL     1      46.339   6.145  12.037  0.00  0.00    +0.000 A 
ATOM      6  C   UNL     1      45.498   5.110  11.608  0.00  0.00    +0.000 A 
ENDROOT
BRANCH   1   7
ATOM      7  N   UNL     1      44.493   2.942  11.861  0.00  0.00    +0.000 N 
ATOM      8  H   UNL     1      43.775   2.787  12.569  0.00  0.00    +0.000 HD
BRANCH   7   9
ATOM      9  C   UNL     1      43.928   3.132  10.519  0.00  0.00    +0.000 C 
BRANCH   9  10
ATOM     10  C   UNL     1      44.377   2.013   9.579  0.00  0.00    +0.000 C 
BRANCH  10  15
ATOM     11  C   UNL     1      47.135   2.004   7.149  0.00  0.00    +0.000 A 
ATOM     12  C   UNL     1      47.315   3.333   6.803  0.00  0.00    +0.000 A 
ATOM     13  C   UNL     1      46.502   4.285   7.408  0.00  0.00    +0.000 A 
ATOM     14  C   UNL     1      45.543   3.876   8.332  0.00  0.00    +0.000 A 
ATOM     15  C   UNL     1      45.430   2.520   8.626  0.00  0.00    +0.000 A 
ATOM     16  N   UNL     1      46.212   1.583   8.042  0.00  0.00    +0.000 NA
BRANCH  11  18
ATOM     17  C   UNL     1      47.368   0.583   5.316  0.00  0.00    +0.000 C 
ATOM     18  O   UNL     1      47.945   1.083   6.519  0.00  0.00    +0.000 OA
ENDBRANCH  11  18
ENDBRANCH  10  15
ENDBRANCH   9  10
ENDBRANCH   7   9
ENDBRANCH   1   7
BRANCH   4  19
ATOM     19  C   UNL     1      47.967   7.130  13.695  0.00  0.00    +0.000 C 
BRANCH  19  20
ATOM     20  N   UNL     1      47.959   7.193  15.133  0.00  0.00    +0.000 N 
ATOM     21  C   UNL     1      49.081   6.884  15.859  0.00  0.00    +0.000 C 
ATOM     22  O   UNL     1      50.148   6.599  15.320  0.00  0.00    +0.000 OA
ATOM     23  H   UNL     1      47.051   7.187  15.587  0.00  0.00    +0.000 HD
BRANCH  21  24
ATOM     24  C   UNL     1      48.960   6.971  17.318  0.00  0.00    +0.000 A 
ATOM     25  C   UNL     1      48.825   8.213  17.922  0.00  0.00    +0.000 A 
ATOM     26  S   UNL     1      48.635   8.134  19.615  0.00  0.00    +0.000 S 
ATOM     27  C   UNL     1      48.782   6.439  19.607  0.00  0.00    +0.000 A 
ATOM     28  N   UNL     1      48.734   5.725  20.762  0.00  0.00    +0.000 NA
ATOM     29  C   UNL     1      48.891   4.456  20.615  0.00  0.00    +0.000 A 
ATOM     30  N   UNL     1      49.095   3.829  19.411  0.00  0.00    +0.000 N 
ATOM     31  C   UNL     1      49.126   4.503  18.215  0.00  0.00    +0.000 A 
ATOM     32  O   UNL     1      49.272   3.908  17.153  0.00  0.00    +0.000 OA
ATOM     33  C   UNL     1      48.959   5.939  18.328  0.00  0.00    +0.000 A 
ATOM     34  H   UNL     1      49.212   2.827  19.362  0.00  0.00    +0.000 HD
ENDBRANCH  21  24
ENDBRANCH  19  20
ENDBRANCH   4  19
TORSDOF 8
ENDMDL
MODEL 3
REMARK VINA RESULT:    -7.596      2.262      3.179
REMARK INTER + INTRA:         -12.314
REMARK INTER:                 -10.804
REMARK INTRA:                  -1.510
REMARK UNBOUND:                -1.165
REMARK  Name = 
REMARK  9 active torsions:
REMARK  status: ('A' for Active; 'I' for Inactive)
REMARK    1  A    between atoms: C_1  and  O_2
REMARK    2  A    between atoms: O_2  and  C_3
REMARK    3  A    between atoms: C_7  and  C_8
REMARK    4  A    between atoms: C_8  and  C_9
REMARK    5  A    between atoms: C_9  and  N_10
REMARK    6  A    between atoms: N_10  and  C_11
REMARK    7  A    between atoms: C_14  and  C_15
REMARK    8  A    between atoms: C_15  and  N_16
REMARK    9  A    between atoms: C_17  and  C_19
REMARK                            x       y       z     vdW  Elec       q    Type
REMARK                         _______ _______ _______ _____ _____    ______ ____
ROOT
ATOM      1  C   UNL     1      44.655   5.940  12.802  0.00  0.00    +0.000 A 
ATOM      2  C   UNL     1      44.927   7.164  12.180  0.00  0.00    +0.000 A 
ATOM      3  C   UNL     1      46.237   7.653  12.086  0.00  0.00    +0.000 A 
ATOM      4  C   UNL     1      47.308   6.929  12.620  0.00  0.00    +0.000 A 
ATOM      5  C   UNL     1      47.028   5.760  13.337  0.00  0.00    +0.000 A 
ATOM      6  C   UNL     1      45.715   5.283  13.435  0.00  0.00    +0.000 A 
ENDROOT
BRANCH   1   7
ATOM      7  N   UNL     1      43.375   5.368  12.896  0.00  0.00    +0.000 N 
ATOM      8  H   UNL     1      42.742   6.022  13.356  0.00  0.00    +0.000 HD
BRANCH   7   9
ATOM      9  C   UNL     1      42.801   4.796  11.671  0.00  0.00    +0.000 C 
BRANCH   9  10
ATOM     10  C   UNL     1      43.316   3.374  11.444  0.00  0.00    +0.000 C 
BRANCH  10  15
ATOM     11  C   UNL     1      45.467   2.038   8.780  0.00  0.00    +0.000 A 
ATOM     12  C   UNL     1      45.812   3.135   8.010  0.00  0.00    +0.000 A 
ATOM     13  C   UNL     1      45.329   4.382   8.391  0.00  0.00    +0.000 A 
ATOM     14  C   UNL     1      44.522   4.486   9.521  0.00  0.00    +0.000 A 
ATOM     15  C   UNL     1      44.226   3.332  10.242  0.00  0.00    +0.000 A 
ATOM     16  N   UNL     1      44.685   2.112   9.880  0.00  0.00    +0.000 NA
BRANCH  11  18
ATOM     17  C   UNL     1      47.012   0.933   7.427  0.00  0.00    +0.000 C 
ATOM     18  O   UNL     1      45.947   0.813   8.366  0.00  0.00    +0.000 OA
ENDBRANCH  11  18
ENDBRANCH  10  15
ENDBRANCH   9  10
ENDBRANCH   7   9
ENDBRANCH   1   7
BRANCH   4  19
ATOM     19  C   UNL     1      48.728   7.395  12.438  0.00  0.00    +0.000 C 
BRANCH  19  20
ATOM     20  N   UNL     1      49.583   6.924  13.495  0.00  0.00    +0.000 N 
ATOM     21  C   UNL     1      50.062   7.783  14.452  0.00  0.00    +0.000 C 
ATOM     22  O   UNL     1      49.741   8.968  14.483  0.00  0.00    +0.000 OA
ATOM     23  H   UNL     1      50.041   6.030  13.350  0.00  0.00    +0.000 HD
BRANCH  21  24
ATOM     24  C   UNL     1      50.933   7.199  15.477  0.00  0.00    +0.000 A 
ATOM     25  C   UNL     1      52.288   7.505  15.481  0.00  0.00    +0.000 A 
ATOM     26  S   UNL     1      53.146   6.794  16.773  0.00  0.00    +0.000 S 
ATOM     27  C   UNL     1      51.748   6.009  17.340  0.00  0.00    +0.000 A 
ATOM     28  N   UNL     1      51.793   5.197  18.429  0.00  0.00    +0.000 NA
ATOM     29  C   UNL     1      50.671   4.641  18.730  0.00  0.00    +0.000 A 
ATOM     30  N   UNL     1      49.500   4.820  18.037  0.00  0.00    +0.000 N 
ATOM     31  C   UNL     1      49.398   5.649  16.947  0.00  0.00    +0.000 A 
ATOM     32  O   UNL     1      48.327   5.816  16.373  0.00  0.00    +0.000 OA
ATOM     33  C   UNL     1      50.638   6.296  16.563  0.00  0.00    +0.000 A 
ATOM     34  H   UNL     1      48.652   4.353  18.324  0.00  0.00    +0.000 HD
ENDBRANCH  21  24
ENDBRANCH  19  20
ENDBRANCH   4  19
TORSDOF 8
ENDMDL
MODEL 4
REMARK VINA RESULT:    -7.554      3.023      4.171
REMARK INTER + INTRA:         -12.252
REMARK INTER:                 -10.979
REMARK INTRA:                  -1.272
REMARK UNBOUND:                -1.165
REMARK  Name = 
REMARK  9 active torsions:
REMARK  status: ('A' for Active; 'I' for Inactive)
REMARK    1  A    between atoms: C_1  and  O_2
REMARK    2  A    between atoms: O_2  and  C_3
REMARK    3  A    between atoms: C_7  and  C_8
REMARK    4  A    between atoms: C_8  and  C_9
REMARK    5  A    between atoms: C_9  and  N_10
REMARK    6  A    between atoms: N_10  and  C_11
REMARK    7  A    between atoms: C_14  and  C_15
REMARK    8  A    between atoms: C_15  and  N_16
REMARK    9  A    between atoms: C_17  and  C_19
REMARK                            x       y       z     vdW  Elec       q    Type
REMARK                         _______ _______ _______ _____ _____    ______ ____
ROOT
ATOM      1  C   UNL     1      46.465   4.496  13.633  0.00  0.00    +0.000 A 
ATOM      2  C   UNL     1      47.052   5.698  13.222  0.00  0.00    +0.000 A 
ATOM      3  C   UNL     1      47.934   6.396  14.058  0.00  0.00    +0.000 A 
ATOM      4  C   UNL     1      48.247   5.907  15.330  0.00  0.00    +0.000 A 
ATOM      5  C   UNL     1      47.579   4.765  15.786  0.00  0.00    +0.000 A 
ATOM      6  C   UNL     1      46.691   4.079  14.949  0.00  0.00    +0.000 A 
ENDROOT
BRANCH   1   7
ATOM      7  N   UNL     1      45.605   3.722  12.835  0.00  0.00    +0.000 N 
ATOM      8  H   UNL     1      45.660   2.745  13.124  0.00  0.00    +0.000 HD
BRANCH   7   9
ATOM      9  C   UNL     1      44.221   4.188  12.688  0.00  0.00    +0.000 C 
BRANCH   9  10
ATOM     10  C   UNL     1      43.515   3.439  11.556  0.00  0.00    +0.000 C 
BRANCH  10  15
ATOM     11  C   UNL     1      45.570   2.146   8.797  0.00  0.00    +0.000 A 
ATOM     12  C   UNL     1      45.886   3.256   8.032  0.00  0.00    +0.000 A 
ATOM     13  C   UNL     1      45.416   4.497   8.450  0.00  0.00    +0.000 A 
ATOM     14  C   UNL     1      44.650   4.581   9.609  0.00  0.00    +0.000 A 
ATOM     15  C   UNL     1      44.380   3.417  10.323  0.00  0.00    +0.000 A 
ATOM     16  N   UNL     1      44.828   2.203   9.926  0.00  0.00    +0.000 NA
BRANCH  11  18
ATOM     17  C   UNL     1      47.047   1.064   7.353  0.00  0.00    +0.000 C 
ATOM     18  O   UNL     1      46.035   0.928   8.347  0.00  0.00    +0.000 OA
ENDBRANCH  11  18
ENDBRANCH  10  15
ENDBRANCH   9  10
ENDBRANCH   7   9
ENDBRANCH   1   7
BRANCH   4  19
ATOM     19  C   UNL     1      49.269   6.595  16.196  0.00  0.00    +0.000 C 
BRANCH  19  20
ATOM     20  N   UNL     1      50.295   5.686  16.634  0.00  0.00    +0.000 N 
ATOM     21  C   UNL     1      50.620   5.574  17.962  0.00  0.00    +0.000 C 
ATOM     22  O   UNL     1      50.017   6.194  18.835  0.00  0.00    +0.000 OA
ATOM     23  H   UNL     1      50.948   5.360  15.929  0.00  0.00    +0.000 HD
BRANCH  21  24
ATOM     24  C   UNL     1      51.687   4.625  18.296  0.00  0.00    +0.000 A 
ATOM     25  C   UNL     1      52.800   5.066  18.999  0.00  0.00    +0.000 A 
ATOM     26  S   UNL     1      53.916   3.827  19.359  0.00  0.00    +0.000 S 
ATOM     27  C   UNL     1      52.977   2.669  18.541  0.00  0.00    +0.000 A 
ATOM     28  N   UNL     1      53.384   1.376  18.446  0.00  0.00    +0.000 NA
ATOM     29  C   UNL     1      52.595   0.613  17.772  0.00  0.00    +0.000 A 
ATOM     30  N   UNL     1      51.429   1.026  17.178  0.00  0.00    +0.000 N 
ATOM     31  C   UNL     1      50.963   2.316  17.267  0.00  0.00    +0.000 A 
ATOM     32  O   UNL     1      49.897   2.643  16.756  0.00  0.00    +0.000 OA
ATOM     33  C   UNL     1      51.820   3.217  18.012  0.00  0.00    +0.000 A 
ATOM     34  H   UNL     1      50.853   0.378  16.661  0.00  0.00    +0.000 HD
ENDBRANCH  21  24
ENDBRANCH  19  20
ENDBRANCH   4  19
TORSDOF 8
ENDMDL
MODEL 5
REMARK VINA RESULT:    -7.441      1.866      2.851
REMARK INTER + INTRA:         -12.086
REMARK INTER:                 -11.474
REMARK INTRA:                  -0.612
REMARK UNBOUND:                -1.165
REMARK  Name = 
REMARK  9 active torsions:
REMARK  status: ('A' for Active; 'I' for Inactive)
REMARK    1  A    between atoms: C_1  and  O_2
REMARK    2  A    between atoms: O_2  and  C_3
REMARK    3  A    between atoms: C_7  and  C_8
REMARK    4  A    between atoms: C_8  and  C_9
REMARK    5  A    between atoms: C_9  and  N_10
REMARK    6  A    between atoms: N_10  and  C_11
REMARK    7  A    between atoms: C_14  and  C_15
REMARK    8  A    between atoms: C_15  and  N_16
REMARK    9  A    between atoms: C_17  and  C_19
REMARK                            x       y       z     vdW  Elec       q    Type
REMARK                         _______ _______ _______ _____ _____    ______ ____
ROOT
ATOM      1  C   UNL     1      45.425   3.473   8.402  0.00  0.00    +0.000 A 
ATOM      2  C   UNL     1      45.565   4.745   8.970  0.00  0.00    +0.000 A 
ATOM      3  C   UNL     1      45.135   5.004  10.279  0.00  0.00    +0.000 A 
ATOM      4  C   UNL     1      44.550   3.995  11.050  0.00  0.00    +0.000 A 
ATOM      5  C   UNL     1      44.310   2.754  10.450  0.00  0.00    +0.000 A 
ATOM      6  C   UNL     1      44.732   2.506   9.138  0.00  0.00    +0.000 A 
ENDROOT
BRANCH   1   7
ATOM      7  N   UNL     1      45.869   3.128   7.114  0.00  0.00    +0.000 N 
ATOM      8  H   UNL     1      45.559   3.834   6.447  0.00  0.00    +0.000 HD
BRANCH   7   9
ATOM      9  C   UNL     1      47.290   2.793   6.959  0.00  0.00    +0.000 C 
BRANCH   9  10
ATOM     10  C   UNL     1      47.477   1.281   6.817  0.00  0.00    +0.000 C 
BRANCH  10  15
ATOM     11  C   UNL     1      46.733  -0.929   3.977  0.00  0.00    +0.000 A 
ATOM     12  C   UNL     1      46.340  -0.083   2.954  0.00  0.00    +0.000 A 
ATOM     13  C   UNL     1      46.333   1.285   3.200  0.00  0.00    +0.000 A 
ATOM     14  C   UNL     1      46.716   1.755   4.454  0.00  0.00    +0.000 A 
ATOM     15  C   UNL     1      47.101   0.836   5.427  0.00  0.00    +0.000 A 
ATOM     16  N   UNL     1      47.108  -0.498   5.201  0.00  0.00    +0.000 NA
BRANCH  11  18
ATOM     17  C   UNL     1      46.504  -3.069   4.876  0.00  0.00    +0.000 C 
ATOM     18  O   UNL     1      46.712  -2.282   3.707  0.00  0.00    +0.000 OA
ENDBRANCH  11  18
ENDBRANCH  10  15
ENDBRANCH   9  10
ENDBRANCH   7   9
ENDBRANCH   1   7
BRANCH   4  19
ATOM     19  C   UNL     1      44.176   4.236  12.489  0.00  0.00    +0.000 C 
BRANCH  19  20
ATOM     20  N   UNL     1      45.190   4.983  13.185  0.00  0.00    +0.000 N 
ATOM     21  C   UNL     1      46.301   4.361  13.695  0.00  0.00    +0.000 C 
ATOM     22  O   UNL     1      46.509   3.161  13.531  0.00  0.00    +0.000 OA
ATOM     23  H   UNL     1      44.926   5.900  13.532  0.00  0.00    +0.000 HD
BRANCH  21  24
ATOM     24  C   UNL     1      47.266   5.216  14.395  0.00  0.00    +0.000 A 
ATOM     25  C   UNL     1      47.918   6.225  13.700  0.00  0.00    +0.000 A 
ATOM     26  S   UNL     1      48.958   7.163  14.673  0.00  0.00    +0.000 S 
ATOM     27  C   UNL     1      48.614   6.219  16.046  0.00  0.00    +0.000 A 
ATOM     28  N   UNL     1      49.209   6.476  17.240  0.00  0.00    +0.000 NA
ATOM     29  C   UNL     1      48.884   5.665  18.186  0.00  0.00    +0.000 A 
ATOM     30  N   UNL     1      48.015   4.612  18.048  0.00  0.00    +0.000 N 
ATOM     31  C   UNL     1      47.370   4.328  16.869  0.00  0.00    +0.000 A 
ATOM     32  O   UNL     1      46.570   3.402  16.789  0.00  0.00    +0.000 OA
ATOM     33  C   UNL     1      47.707   5.210  15.769  0.00  0.00    +0.000 A 
ATOM     34  H   UNL     1      47.801   4.011  18.830  0.00  0.00    +0.000 HD
ENDBRANCH  21  24
ENDBRANCH  19  20
ENDBRANCH   4  19
TORSDOF 8
ENDMDL
MODEL 6
REMARK VINA RESULT:    -7.404      2.921      5.415
REMARK INTER + INTRA:         -12.033
REMARK INTER:                 -10.811
REMARK INTRA:                  -1.222
REMARK UNBOUND:                -1.165
REMARK  Name = 
REMARK  9 active torsions:
REMARK  status: ('A' for Active; 'I' for Inactive)
REMARK    1  A    between atoms: C_1  and  O_2
REMARK    2  A    between atoms: O_2  and  C_3
REMARK    3  A    between atoms: C_7  and  C_8
REMARK    4  A    between atoms: C_8  and  C_9
REMARK    5  A    between atoms: C_9  and  N_10
REMARK    6  A    between atoms: N_10  and  C_11
REMARK    7  A    between atoms: C_14  and  C_15
REMARK    8  A    between atoms: C_15  and  N_16
REMARK    9  A    between atoms: C_17  and  C_19
REMARK                            x       y       z     vdW  Elec       q    Type
REMARK                         _______ _______ _______ _____ _____    ______ ____
ROOT
ATOM      1  C   UNL     1      46.916   1.718   6.835  0.00  0.00    +0.000 A 
ATOM      2  C   UNL     1      46.299   1.117   7.938  0.00  0.00    +0.000 A 
ATOM      3  C   UNL     1      45.473   1.854   8.797  0.00  0.00    +0.000 A 
ATOM      4  C   UNL     1      45.247   3.216   8.573  0.00  0.00    +0.000 A 
ATOM      5  C   UNL     1      45.947   3.845   7.537  0.00  0.00    +0.000 A 
ATOM      6  C   UNL     1      46.779   3.103   6.690  0.00  0.00    +0.000 A 
ENDROOT
BRANCH   1   7
ATOM      7  N   UNL     1      47.722   1.035   5.909  0.00  0.00    +0.000 N 
ATOM      8  H   UNL     1      47.591   0.029   6.020  0.00  0.00    +0.000 HD
BRANCH   7   9
ATOM      9  C   UNL     1      47.645   1.461   4.506  0.00  0.00    +0.000 C 
BRANCH   9  10
ATOM     10  C   UNL     1      46.516   0.728   3.779  0.00  0.00    +0.000 C 
BRANCH  10  15
ATOM     11  C   UNL     1      46.765  -2.935   3.945  0.00  0.00    +0.000 A 
ATOM     12  C   UNL     1      47.560  -3.291   2.869  0.00  0.00    +0.000 A 
ATOM     13  C   UNL     1      48.054  -2.279   2.054  0.00  0.00    +0.000 A 
ATOM     14  C   UNL     1      47.737  -0.954   2.343  0.00  0.00    +0.000 A 
ATOM     15  C   UNL     1      46.934  -0.681   3.447  0.00  0.00    +0.000 A 
ATOM     16  N   UNL     1      46.443  -1.657   4.245  0.00  0.00    +0.000 NA
BRANCH  11  18
ATOM     17  C   UNL     1      47.292  -4.878   5.122  0.00  0.00    +0.000 C 
ATOM     18  O   UNL     1      46.276  -3.963   4.723  0.00  0.00    +0.000 OA
ENDBRANCH  11  18
ENDBRANCH  10  15
ENDBRANCH   9  10
ENDBRANCH   7   9
ENDBRANCH   1   7
BRANCH   4  19
ATOM     19  C   UNL     1      44.284   3.995   9.430  0.00  0.00    +0.000 C 
BRANCH  19  20
ATOM     20  N   UNL     1      44.941   5.061  10.137  0.00  0.00    +0.000 N 
ATOM     21  C   UNL     1      44.252   5.853  11.021  0.00  0.00    +0.000 C 
ATOM     22  O   UNL     1      43.070   5.653  11.290  0.00  0.00    +0.000 OA
ATOM     23  H   UNL     1      45.825   5.386   9.758  0.00  0.00    +0.000 HD
BRANCH  21  24
ATOM     24  C   UNL     1      45.017   6.917  11.679  0.00  0.00    +0.000 A 
ATOM     25  C   UNL     1      44.732   8.244  11.392  0.00  0.00    +0.000 A 
ATOM     26  S   UNL     1      45.669   9.355  12.286  0.00  0.00    +0.000 S 
ATOM     27  C   UNL     1      46.527   8.099  13.049  0.00  0.00    +0.000 A 
ATOM     28  N   UNL     1      47.518   8.367  13.939  0.00  0.00    +0.000 NA
ATOM     29  C   UNL     1      48.106   7.326  14.416  0.00  0.00    +0.000 A 
ATOM     30  N   UNL     1      47.794   6.032  14.082  0.00  0.00    +0.000 N 
ATOM     31  C   UNL     1      46.785   5.709  13.208  0.00  0.00    +0.000 A 
ATOM     32  O   UNL     1      46.507   4.541  12.961  0.00  0.00    +0.000 OA
ATOM     33  C   UNL     1      46.094   6.850  12.638  0.00  0.00    +0.000 A 
ATOM     34  H   UNL     1      48.294   5.256  14.493  0.00  0.00    +0.000 HD
ENDBRANCH  21  24
ENDBRANCH  19  20
ENDBRANCH   4  19
TORSDOF 8
ENDMDL
MODEL 7
REMARK VINA RESULT:    -7.398      4.613      8.988
REMARK INTER + INTRA:         -12.023
REMARK INTER:                  -9.964
REMARK INTRA:                  -2.058
REMARK UNBOUND:                -1.165
REMARK  Name = 
REMARK  9 active torsions:
REMARK  status: ('A' for Active; 'I' for Inactive)
REMARK    1  A    between atoms: C_1  and  O_2
REMARK    2  A    between atoms: O_2  and  C_3
REMARK    3  A    between atoms: C_7  and  C_8
REMARK    4  A    between atoms: C_8  and  C_9
REMARK    5  A    between atoms: C_9  and  N_10
REMARK    6  A    between atoms: N_10  and  C_11
REMARK    7  A    between atoms: C_14  and  C_15
REMARK    8  A    between atoms: C_15  and  N_16
REMARK    9  A    between atoms: C_17  and  C_19
REMARK                            x       y       z     vdW  Elec       q    Type
REMARK                         _______ _______ _______ _____ _____    ______ ____
ROOT
ATOM      1  C   UNL     1      49.780   7.174  18.671  0.00  0.00    +0.000 A 
ATOM      2  C   UNL     1      48.734   8.084  18.479  0.00  0.00    +0.000 A 
ATOM      3  C   UNL     1      48.348   8.482  17.192  0.00  0.00    +0.000 A 
ATOM      4  C   UNL     1      49.005   7.979  16.064  0.00  0.00    +0.000 A 
ATOM      5  C   UNL     1      50.119   7.155  16.256  0.00  0.00    +0.000 A 
ATOM      6  C   UNL     1      50.505   6.770  17.546  0.00  0.00    +0.000 A 
ENDROOT
BRANCH   1   7
ATOM      7  N   UNL     1      50.194   6.699  19.928  0.00  0.00    +0.000 N 
ATOM      8  H   UNL     1      49.648   7.153  20.660  0.00  0.00    +0.000 HD
BRANCH   7   9
ATOM      9  C   UNL     1      50.273   5.243  20.104  0.00  0.00    +0.000 C 
BRANCH   9  10
ATOM     10  C   UNL     1      48.877   4.618  20.079  0.00  0.00    +0.000 C 
BRANCH  10  15
ATOM     11  C   UNL     1      49.209   2.663  16.985  0.00  0.00    +0.000 A 
ATOM     12  C   UNL     1      48.065   2.942  16.257  0.00  0.00    +0.000 A 
ATOM     13  C   UNL     1      47.143   3.830  16.799  0.00  0.00    +0.000 A 
ATOM     14  C   UNL     1      47.396   4.403  18.043  0.00  0.00    +0.000 A 
ATOM     15  C   UNL     1      48.573   4.070  18.708  0.00  0.00    +0.000 A 
ATOM     16  N   UNL     1      49.477   3.205  18.194  0.00  0.00    +0.000 NA
BRANCH  11  18
ATOM     17  C   UNL     1      51.213   1.506  17.273  0.00  0.00    +0.000 C 
ATOM     18  O   UNL     1      50.095   1.764  16.428  0.00  0.00    +0.000 OA
ENDBRANCH  11  18
ENDBRANCH  10  15
ENDBRANCH   9  10
ENDBRANCH   7   9
ENDBRANCH   1   7
BRANCH   4  19
ATOM     19  C   UNL     1      48.535   8.321  14.675  0.00  0.00    +0.000 C 
BRANCH  19  20
ATOM     20  N   UNL     1      47.488   7.439  14.234  0.00  0.00    +0.000 N 
ATOM     21  C   UNL     1      47.746   6.422  13.350  0.00  0.00    +0.000 C 
ATOM     22  O   UNL     1      48.881   6.185  12.943  0.00  0.00    +0.000 OA
ATOM     23  H   UNL     1      46.533   7.761  14.363  0.00  0.00    +0.000 HD
BRANCH  21  24
ATOM     24  C   UNL     1      46.603   5.590  12.959  0.00  0.00    +0.000 A 
ATOM     25  C   UNL     1      46.656   4.217  13.159  0.00  0.00    +0.000 A 
ATOM     26  S   UNL     1      45.225   3.405  12.708  0.00  0.00    +0.000 S 
ATOM     27  C   UNL     1      44.506   4.853  12.179  0.00  0.00    +0.000 A 
ATOM     28  N   UNL     1      43.257   4.860  11.641  0.00  0.00    +0.000 NA
ATOM     29  C   UNL     1      42.848   6.017  11.253  0.00  0.00    +0.000 A 
ATOM     30  N   UNL     1      43.576   7.176  11.350  0.00  0.00    +0.000 N 
ATOM     31  C   UNL     1      44.831   7.224  11.908  0.00  0.00    +0.000 A 
ATOM     32  O   UNL     1      45.439   8.284  12.014  0.00  0.00    +0.000 OA
ATOM     33  C   UNL     1      45.340   5.943  12.357  0.00  0.00    +0.000 A 
ATOM     34  H   UNL     1      43.198   8.054  11.025  0.00  0.00    +0.000 HD
ENDBRANCH  21  24
ENDBRANCH  19  20
ENDBRANCH   4  19
TORSDOF 8
ENDMDL
MODEL 8
REMARK VINA RESULT:    -7.339      3.184      9.007
REMARK INTER + INTRA:         -11.937
REMARK INTER:                 -10.467
REMARK INTRA:                  -1.470
REMARK UNBOUND:                -1.165
REMARK  Name = 
REMARK  9 active torsions:
REMARK  status: ('A' for Active; 'I' for Inactive)
REMARK    1  A    between atoms: C_1  and  O_2
REMARK    2  A    between atoms: O_2  and  C_3
REMARK    3  A    between atoms: C_7  and  C_8
REMARK    4  A    between atoms: C_8  and  C_9
REMARK    5  A    between atoms: C_9  and  N_10
REMARK    6  A    between atoms: N_10  and  C_11
REMARK    7  A    between atoms: C_14  and  C_15
REMARK    8  A    between atoms: C_15  and  N_16
REMARK    9  A    between atoms: C_17  and  C_19
REMARK                            x       y       z     vdW  Elec       q    Type
REMARK                         _______ _______ _______ _____ _____    ______ ____
ROOT
ATOM      1  C   UNL     1      49.394   8.035  15.962  0.00  0.00    +0.000 A 
ATOM      2  C   UNL     1      48.277   8.805  15.619  0.00  0.00    +0.000 A 
ATOM      3  C   UNL     1      47.757   8.786  14.318  0.00  0.00    +0.000 A 
ATOM      4  C   UNL     1      48.348   7.999  13.326  0.00  0.00    +0.000 A 
ATOM      5  C   UNL     1      49.529   7.314  13.636  0.00  0.00    +0.000 A 
ATOM      6  C   UNL     1      50.048   7.345  14.936  0.00  0.00    +0.000 A 
ENDROOT
BRANCH   1   7
ATOM      7  N   UNL     1      49.944   7.971  17.254  0.00  0.00    +0.000 N 
ATOM      8  H   UNL     1      50.336   8.879  17.503  0.00  0.00    +0.000 HD
BRANCH   7   9
ATOM      9  C   UNL     1      49.102   7.410  18.318  0.00  0.00    +0.000 C 
BRANCH   9  10
ATOM     10  C   UNL     1      49.661   6.071  18.802  0.00  0.00    +0.000 C 
BRANCH  10  15
ATOM     11  C   UNL     1      49.278   2.920  16.950  0.00  0.00    +0.000 A 
ATOM     12  C   UNL     1      47.913   2.767  16.777  0.00  0.00    +0.000 A 
ATOM     13  C   UNL     1      47.072   3.754  17.279  0.00  0.00    +0.000 A 
ATOM     14  C   UNL     1      47.625   4.853  17.933  0.00  0.00    +0.000 A 
ATOM     15  C   UNL     1      49.009   4.932  18.061  0.00  0.00    +0.000 A 
ATOM     16  N   UNL     1      49.837   3.977  17.581  0.00  0.00    +0.000 NA
BRANCH  11  18
ATOM     17  C   UNL     1      51.169   1.609  17.327  0.00  0.00    +0.000 C 
ATOM     18  O   UNL     1      50.083   1.915  16.457  0.00  0.00    +0.000 OA
ENDBRANCH  11  18
ENDBRANCH  10  15
ENDBRANCH   9  10
ENDBRANCH   7   9
ENDBRANCH   1   7
BRANCH   4  19
ATOM     19  C   UNL     1      47.740   7.894  11.952  0.00  0.00    +0.000 C 
BRANCH  19  20
ATOM     20  N   UNL     1      47.029   6.656  11.776  0.00  0.00    +0.000 N 
ATOM     21  C   UNL     1      45.658   6.627  11.750  0.00  0.00    +0.000 C 
ATOM     22  O   UNL     1      44.983   7.652  11.816  0.00  0.00    +0.000 OA
ATOM     23  H   UNL     1      47.545   5.802  11.960  0.00  0.00    +0.000 HD
BRANCH  21  24
ATOM     24  C   UNL     1      45.035   5.311  11.576  0.00  0.00    +0.000 A 
ATOM     25  C   UNL     1      44.365   4.723  12.640  0.00  0.00    +0.000 A 
ATOM     26  S   UNL     1      43.648   3.224  12.254  0.00  0.00    +0.000 S 
ATOM     27  C   UNL     1      44.254   3.283  10.665  0.00  0.00    +0.000 A 
ATOM     28  N   UNL     1      44.021   2.270   9.789  0.00  0.00    +0.000 NA
ATOM     29  C   UNL     1      44.564   2.428   8.632  0.00  0.00    +0.000 A 
ATOM     30  N   UNL     1      45.326   3.510   8.268  0.00  0.00    +0.000 N 
ATOM     31  C   UNL     1      45.568   4.569   9.109  0.00  0.00    +0.000 A 
ATOM     32  O   UNL     1      46.221   5.539   8.739  0.00  0.00    +0.000 OA
ATOM     33  C   UNL     1      44.981   4.437  10.429  0.00  0.00    +0.000 A 
ATOM     34  H   UNL     1      45.725   3.575   7.343  0.00  0.00    +0.000 HD
ENDBRANCH  21  24
ENDBRANCH  19  20
ENDBRANCH   4  19
TORSDOF 8
ENDMDL
MODEL 9
REMARK VINA RESULT:    -7.285      2.331      4.097
REMARK INTER + INTRA:         -11.858
REMARK INTER:                 -11.052
REMARK INTRA:                  -0.806
REMARK UNBOUND:                -1.165
REMARK  Name = 
REMARK  9 active torsions:
REMARK  status: ('A' for Active; 'I' for Inactive)
REMARK    1  A    between atoms: C_1  and  O_2
REMARK    2  A    between atoms: O_2  and  C_3
REMARK    3  A    between atoms: C_7  and  C_8
REMARK    4  A    between atoms: C_8  and  C_9
REMARK    5  A    between atoms: C_9  and  N_10
REMARK    6  A    between atoms: N_10  and  C_11
REMARK    7  A    between atoms: C_14  and  C_15
REMARK    8  A    between atoms: C_15  and  N_16
REMARK    9  A    between atoms: C_17  and  C_19
REMARK                            x       y       z     vdW  Elec       q    Type
REMARK                         _______ _______ _______ _____ _____    ______ ____
ROOT
ATOM      1  C   UNL     1      45.845   2.647   8.048  0.00  0.00    +0.000 A 
ATOM      2  C   UNL     1      45.910   4.035   8.218  0.00  0.00    +0.000 A 
ATOM      3  C   UNL     1      45.268   4.663   9.293  0.00  0.00    +0.000 A 
ATOM      4  C   UNL     1      44.541   3.916  10.224  0.00  0.00    +0.000 A 
ATOM      5  C   UNL     1      44.383   2.544   9.998  0.00  0.00    +0.000 A 
ATOM      6  C   UNL     1      45.018   1.924   8.915  0.00  0.00    +0.000 A 
ENDROOT
BRANCH   1   7
ATOM      7  N   UNL     1      46.496   1.944   7.020  0.00  0.00    +0.000 N 
ATOM      8  H   UNL     1      46.064   1.027   6.908  0.00  0.00    +0.000 HD
BRANCH   7   9
ATOM      9  C   UNL     1      46.681   2.640   5.741  0.00  0.00    +0.000 C 
BRANCH   9  10
ATOM     10  C   UNL     1      47.677   1.890   4.855  0.00  0.00    +0.000 C 
BRANCH  10  15
ATOM     11  C   UNL     1      46.661  -1.249   3.236  0.00  0.00    +0.000 A 
ATOM     12  C   UNL     1      45.625  -0.898   2.388  0.00  0.00    +0.000 A 
ATOM     13  C   UNL     1      45.248   0.439   2.330  0.00  0.00    +0.000 A 
ATOM     14  C   UNL     1      45.917   1.372   3.118  0.00  0.00    +0.000 A 
ATOM     15  C   UNL     1      46.951   0.936   3.942  0.00  0.00    +0.000 A 
ATOM     16  N   UNL     1      47.325  -0.363   4.011  0.00  0.00    +0.000 NA
BRANCH  11  18
ATOM     17  C   UNL     1      46.543  -3.221   4.475  0.00  0.00    +0.000 C 
ATOM     18  O   UNL     1      46.999  -2.585   3.284  0.00  0.00    +0.000 OA
ENDBRANCH  11  18
ENDBRANCH  10  15
ENDBRANCH   9  10
ENDBRANCH   7   9
ENDBRANCH   1   7
BRANCH   4  19
ATOM     19  C   UNL     1      43.931   4.567  11.438  0.00  0.00    +0.000 C 
BRANCH  19  20
ATOM     20  N   UNL     1      44.936   5.099  12.319  0.00  0.00    +0.000 N 
ATOM     21  C   UNL     1      45.744   4.267  13.052  0.00  0.00    +0.000 C 
ATOM     22  O   UNL     1      45.687   3.044  12.946  0.00  0.00    +0.000 OA
ATOM     23  H   UNL     1      44.836   6.070  12.595  0.00  0.00    +0.000 HD
BRANCH  21  24
ATOM     24  C   UNL     1      46.728   4.914  13.926  0.00  0.00    +0.000 A 
ATOM     25  C   UNL     1      46.911   4.443  15.219  0.00  0.00    +0.000 A 
ATOM     26  S   UNL     1      48.132   5.265  16.081  0.00  0.00    +0.000 S 
ATOM     27  C   UNL     1      48.422   6.316  14.774  0.00  0.00    +0.000 A 
ATOM     28  N   UNL     1      49.351   7.303  14.862  0.00  0.00    +0.000 NA
ATOM     29  C   UNL     1      49.445   8.045  13.813  0.00  0.00    +0.000 A 
ATOM     30  N   UNL     1      48.689   7.892  12.678  0.00  0.00    +0.000 N 
ATOM     31  C   UNL     1      47.755   6.895  12.533  0.00  0.00    +0.000 A 
ATOM     32  O   UNL     1      47.123   6.762  11.490  0.00  0.00    +0.000 OA
ATOM     33  C   UNL     1      47.607   6.034  13.690  0.00  0.00    +0.000 A 
ATOM     34  H   UNL     1      48.810   8.508  11.888  0.00  0.00    +0.000 HD
ENDBRANCH  21  24
ENDBRANCH  19  20
ENDBRANCH   4  19
TORSDOF 8
ENDMDL
