MODEL 1
REMARK VINA RESULT:    -7.348      0.000      0.000
REMARK INTER + INTRA:         -10.307
REMARK INTER:                  -9.496
REMARK INTRA:                  -0.811
REMARK UNBOUND:                -0.811
REMARK  Name = 
REMARK  5 active torsions:
REMARK  status: ('A' for Active; 'I' for Inactive)
REMARK    1  A    between atoms: C_2  and  C_4
REMARK    2  A    between atoms: C_8  and  N_9
REMARK    3  A    between atoms: N_9  and  C_10
REMARK    4  A    between atoms: C_10  and  C_11
REMARK    5  A    between atoms: C_15  and  N_16
REMARK                            x       y       z     vdW  Elec       q    Type
REMARK                         _______ _______ _______ _____ _____    ______ ____
ROOT
ATOM      1  N   UNL     1      44.180   6.587  12.429  0.00  0.00    +0.000 N 
ATOM      2  H   UNL     1      43.674   7.183  13.074  0.00  0.00    +0.000 HD
ENDROOT
BRANCH   1   7
ATOM      3  C   UNL     1      46.969   5.093  14.022  0.00  0.00    +0.000 A 
ATOM      4  N   UNL     1      48.062   5.691  13.513  0.00  0.00    +0.000 NA
ATOM      5  C   UNL     1      47.822   6.629  12.594  0.00  0.00    +0.000 A 
ATOM      6  C   UNL     1      46.556   6.972  12.178  0.00  0.00    +0.000 A 
ATOM      7  C   UNL     1      45.487   6.317  12.765  0.00  0.00    +0.000 A 
ATOM      8  N   UNL     1      45.678   5.367  13.694  0.00  0.00    +0.000 NA
BRANCH   3  10
ATOM      9  N   UNL     1      46.839   4.277  16.333  0.00  0.00    +0.000 N 
ATOM     10  C   UNL     1      47.209   3.998  15.039  0.00  0.00    +0.000 C 
ATOM     11  O   UNL     1      47.695   2.906  14.763  0.00  0.00    +0.000 OA
ATOM     12  H   UNL     1      46.949   3.559  17.033  0.00  0.00    +0.000 HD
ATOM     13  H   UNL     1      46.400   5.162  16.562  0.00  0.00    +0.000 HD
ENDBRANCH   3  10
ENDBRANCH   1   7
BRANCH   1  14
ATOM     14  C   UNL     1      43.580   6.195  11.177  0.00  0.00    +0.000 C 
BRANCH  14  15
ATOM     15  C   UNL     1      43.798   4.744  10.865  0.00  0.00    +0.000 A 
ATOM     16  C   UNL     1      43.195   3.750  11.622  0.00  0.00    +0.000 A 
ATOM     17  N   UNL     1      43.277   2.437  11.337  0.00  0.00    +0.000 NA
ATOM     18  C   UNL     1      43.999   2.102  10.237  0.00  0.00    +0.000 A 
ATOM     19  C   UNL     1      44.672   2.991   9.392  0.00  0.00    +0.000 A 
ATOM     20  C   UNL     1      44.559   4.339   9.758  0.00  0.00    +0.000 A 
BRANCH  19  21
ATOM     21  N   UNL     1      45.391   2.586   8.292  0.00  0.00    +0.000 N 
ATOM     22  C   UNL     1      45.766   1.182   8.052  0.00  0.00    +0.000 C 
ATOM     23  C   UNL     1      47.266   1.097   7.734  0.00  0.00    +0.000 C 
ATOM     24  O   UNL     1      47.622   1.955   6.637  0.00  0.00    +0.000 OA
ATOM     25  C   UNL     1      47.296   3.323   6.943  0.00  0.00    +0.000 C 
ATOM     26  C   UNL     1      45.792   3.501   7.214  0.00  0.00    +0.000 C 
ENDBRANCH  19  21
ENDBRANCH  14  15
ENDBRANCH   1  14
TORSDOF 5
ENDMDL
MODEL 2
REMARK VINA RESULT:    -7.121      2.228      6.652
REMARK INTER + INTRA:         -10.014
REMARK INTER:                  -9.372
REMARK INTRA:                  -0.642
REMARK UNBOUND:                -0.811
REMARK  Name = 
REMARK  5 active torsions:
REMARK  status: ('A' for Active; 'I' for Inactive)
REMARK    1  A    between atoms: C_2  and  C_4
REMARK    2  A    between atoms: C_8  and  N_9
REMARK    3  A    between atoms: N_9  and  C_10
REMARK    4  A    between atoms: C_10  and  C_11
REMARK    5  A    between atoms: C_15  and  N_16
REMARK                            x       y       z     vdW  Elec       q    Type
REMARK                         _______ _______ _______ _____ _____    ______ ____
ROOT
ATOM      1  N   UNL     1      44.214   4.721   9.205  0.00  0.00    +0.000 N 
ATOM      2  H   UNL     1      44.120   5.475   8.535  0.00  0.00    +0.000 HD
ENDROOT
BRANCH   1   7
ATOM      3  C   UNL     1      46.344   2.652   7.275  0.00  0.00    +0.000 A 
ATOM      4  N   UNL     1      46.197   1.403   7.754  0.00  0.00    +0.000 NA
ATOM      5  C   UNL     1      45.342   1.281   8.772  0.00  0.00    +0.000 A 
ATOM      6  C   UNL     1      44.654   2.343   9.312  0.00  0.00    +0.000 A 
ATOM      7  C   UNL     1      44.855   3.592   8.748  0.00  0.00    +0.000 A 
ATOM      8  N   UNL     1      45.705   3.764   7.723  0.00  0.00    +0.000 NA
BRANCH   3  10
ATOM      9  N   UNL     1      48.664   2.708   6.475  0.00  0.00    +0.000 N 
ATOM     10  C   UNL     1      47.336   2.829   6.145  0.00  0.00    +0.000 C 
ATOM     11  O   UNL     1      47.012   3.060   4.983  0.00  0.00    +0.000 OA
ATOM     12  H   UNL     1      49.353   2.782   5.741  0.00  0.00    +0.000 HD
ATOM     13  H   UNL     1      48.938   2.477   7.423  0.00  0.00    +0.000 HD
ENDBRANCH   3  10
ENDBRANCH   1   7
BRANCH   1  14
ATOM     14  C   UNL     1      43.571   4.808  10.494  0.00  0.00    +0.000 C 
BRANCH  14  15
ATOM     15  C   UNL     1      44.554   4.921  11.621  0.00  0.00    +0.000 A 
ATOM     16  C   UNL     1      44.674   3.917  12.570  0.00  0.00    +0.000 A 
ATOM     17  N   UNL     1      45.599   3.918  13.549  0.00  0.00    +0.000 NA
ATOM     18  C   UNL     1      46.447   4.977  13.577  0.00  0.00    +0.000 A 
ATOM     19  C   UNL     1      46.434   6.066  12.698  0.00  0.00    +0.000 A 
ATOM     20  C   UNL     1      45.436   6.009  11.716  0.00  0.00    +0.000 A 
BRANCH  19  21
ATOM     21  N   UNL     1      47.322   7.113  12.784  0.00  0.00    +0.000 N 
ATOM     22  C   UNL     1      46.919   8.476  13.168  0.00  0.00    +0.000 C 
ATOM     23  C   UNL     1      47.478   9.483  12.151  0.00  0.00    +0.000 C 
ATOM     24  O   UNL     1      48.902   9.351  12.007  0.00  0.00    +0.000 OA
ATOM     25  C   UNL     1      49.242   8.024  11.569  0.00  0.00    +0.000 C 
ATOM     26  C   UNL     1      48.768   6.957  12.573  0.00  0.00    +0.000 C 
ENDBRANCH  19  21
ENDBRANCH  14  15
ENDBRANCH   1  14
TORSDOF 5
ENDMDL
MODEL 3
REMARK VINA RESULT:    -6.999      2.387      3.600
REMARK INTER + INTRA:          -9.855
REMARK INTER:                  -9.400
REMARK INTRA:                  -0.455
REMARK UNBOUND:                -0.811
REMARK  Name = 
REMARK  5 active torsions:
REMARK  status: ('A' for Active; 'I' for Inactive)
REMARK    1  A    between atoms: C_2  and  C_4
REMARK    2  A    between atoms: C_8  and  N_9
REMARK    3  A    between atoms: N_9  and  C_10
REMARK    4  A    between atoms: C_10  and  C_11
REMARK    5  A    between atoms: C_15  and  N_16
REMARK                            x       y       z     vdW  Elec       q    Type
REMARK                         _______ _______ _______ _____ _____    ______ ____
ROOT
ATOM      1  N   UNL     1      46.732   3.719  14.792  0.00  0.00    +0.000 N 
ATOM      2  H   UNL     1      46.370   2.805  14.546  0.00  0.00    +0.000 HD
ENDROOT
BRANCH   1   7
ATOM      3  C   UNL     1      49.228   3.108  17.229  0.00  0.00    +0.000 A 
ATOM      4  N   UNL     1      48.899   3.848  18.304  0.00  0.00    +0.000 NA
ATOM      5  C   UNL     1      47.789   4.577  18.174  0.00  0.00    +0.000 A 
ATOM      6  C   UNL     1      47.023   4.590  17.031  0.00  0.00    +0.000 A 
ATOM      7  C   UNL     1      47.427   3.787  15.978  0.00  0.00    +0.000 A 
ATOM      8  N   UNL     1      48.537   3.036  16.062  0.00  0.00    +0.000 NA
BRANCH   3  10
ATOM      9  N   UNL     1      51.512   2.842  18.090  0.00  0.00    +0.000 N 
ATOM     10  C   UNL     1      50.504   2.298  17.331  0.00  0.00    +0.000 C 
ATOM     11  O   UNL     1      50.665   1.209  16.789  0.00  0.00    +0.000 OA
ATOM     12  H   UNL     1      52.363   2.315  18.212  0.00  0.00    +0.000 HD
ATOM     13  H   UNL     1      51.372   3.722  18.574  0.00  0.00    +0.000 HD
ENDBRANCH   3  10
ENDBRANCH   1   7
BRANCH   1  14
ATOM     14  C   UNL     1      46.389   4.875  14.000  0.00  0.00    +0.000 C 
BRANCH  14  15
ATOM     15  C   UNL     1      45.284   4.596  13.024  0.00  0.00    +0.000 A 
ATOM     16  C   UNL     1      43.967   4.908  13.325  0.00  0.00    +0.000 A 
ATOM     17  N   UNL     1      42.947   4.767  12.458  0.00  0.00    +0.000 NA
ATOM     18  C   UNL     1      43.262   4.292  11.226  0.00  0.00    +0.000 A 
ATOM     19  C   UNL     1      44.539   3.922  10.789  0.00  0.00    +0.000 A 
ATOM     20  C   UNL     1      45.549   4.078  11.747  0.00  0.00    +0.000 A 
BRANCH  19  21
ATOM     21  N   UNL     1      44.791   3.443   9.525  0.00  0.00    +0.000 N 
ATOM     22  C   UNL     1      44.718   2.013   9.181  0.00  0.00    +0.000 C 
ATOM     23  C   UNL     1      45.996   1.596   8.437  0.00  0.00    +0.000 C 
ATOM     24  O   UNL     1      46.230   2.427   7.287  0.00  0.00    +0.000 OA
ATOM     25  C   UNL     1      46.358   3.804   7.679  0.00  0.00    +0.000 C 
ATOM     26  C   UNL     1      45.087   4.315   8.380  0.00  0.00    +0.000 C 
ENDBRANCH  19  21
ENDBRANCH  14  15
ENDBRANCH   1  14
TORSDOF 5
ENDMDL
MODEL 4
REMARK VINA RESULT:    -6.982      1.634      1.990
REMARK INTER + INTRA:          -9.833
REMARK INTER:                  -9.231
REMARK INTRA:                  -0.602
REMARK UNBOUND:                -0.811
REMARK  Name = 
REMARK  5 active torsions:
REMARK  status: ('A' for Active; 'I' for Inactive)
REMARK    1  A    between atoms: C_2  and  C_4
REMARK    2  A    between atoms: C_8  and  N_9
REMARK    3  A    between atoms: N_9  and  C_10
REMARK    4  A    between atoms: C_10  and  C_11
REMARK    5  A    between atoms: C_15  and  N_16
REMARK                            x       y       z     vdW  Elec       q    Type
REMARK                         _______ _______ _______ _____ _____    ______ ____
ROOT
ATOM      1  N   UNL     1      46.908   6.298  12.845  0.00  0.00    +0.000 N 
ATOM      2  H   UNL     1      47.453   6.320  11.991  0.00  0.00    +0.000 HD
ENDROOT
BRANCH   1   7
ATOM      3  C   UNL     1      48.030   4.848  15.876  0.00  0.00    +0.000 A 
ATOM      4  N   UNL     1      48.997   5.655  16.348  0.00  0.00    +0.000 NA
ATOM      5  C   UNL     1      49.267   6.722  15.593  0.00  0.00    +0.000 A 
ATOM      6  C   UNL     1      48.618   6.994  14.410  0.00  0.00    +0.000 A 
ATOM      7  C   UNL     1      47.625   6.118  14.006  0.00  0.00    +0.000 A 
ATOM      8  N   UNL     1      47.318   5.031  14.733  0.00  0.00    +0.000 NA
BRANCH   3  10
ATOM      9  N   UNL     1      48.808   2.852  17.074  0.00  0.00    +0.000 N 
ATOM     10  C   UNL     1      47.727   3.608  16.690  0.00  0.00    +0.000 C 
ATOM     11  O   UNL     1      46.594   3.268  17.019  0.00  0.00    +0.000 OA
ATOM     12  H   UNL     1      48.649   2.039  17.649  0.00  0.00    +0.000 HD
ATOM     13  H   UNL     1      49.749   3.148  16.841  0.00  0.00    +0.000 HD
ENDBRANCH   3  10
ENDBRANCH   1   7
BRANCH   1  14
ATOM     14  C   UNL     1      45.466   6.304  12.789  0.00  0.00    +0.000 C 
BRANCH  14  15
ATOM     15  C   UNL     1      44.908   5.039  12.208  0.00  0.00    +0.000 A 
ATOM     16  C   UNL     1      43.939   4.309  12.880  0.00  0.00    +0.000 A 
ATOM     17  N   UNL     1      43.334   3.220  12.371  0.00  0.00    +0.000 NA
ATOM     18  C   UNL     1      43.717   2.843  11.125  0.00  0.00    +0.000 A 
ATOM     19  C   UNL     1      44.689   3.471  10.338  0.00  0.00    +0.000 A 
ATOM     20  C   UNL     1      45.290   4.586  10.936  0.00  0.00    +0.000 A 
BRANCH  19  21
ATOM     21  N   UNL     1      45.036   3.035   9.081  0.00  0.00    +0.000 N 
ATOM     22  C   UNL     1      45.136   1.609   8.725  0.00  0.00    +0.000 C 
ATOM     23  C   UNL     1      46.476   1.348   8.022  0.00  0.00    +0.000 C 
ATOM     24  O   UNL     1      46.652   2.211   6.885  0.00  0.00    +0.000 OA
ATOM     25  C   UNL     1      46.610   3.590   7.290  0.00  0.00    +0.000 C 
ATOM     26  C   UNL     1      45.267   3.947   7.951  0.00  0.00    +0.000 C 
ENDBRANCH  19  21
ENDBRANCH  14  15
ENDBRANCH   1  14
TORSDOF 5
ENDMDL
MODEL 5
REMARK VINA RESULT:    -6.914      3.010      5.542
REMARK INTER + INTRA:          -9.746
REMARK INTER:                  -9.069
REMARK INTRA:                  -0.677
REMARK UNBOUND:                -0.811
REMARK  Name = 
REMARK  5 active torsions:
REMARK  status: ('A' for Active; 'I' for Inactive)
REMARK    1  A    between atoms: C_2  and  C_4
REMARK    2  A    between atoms: C_8  and  N_9
REMARK    3  A    between atoms: N_9  and  C_10
REMARK    4  A    between atoms: C_10  and  C_11
REMARK    5  A    between atoms: C_15  and  N_16
REMARK                            x       y       z     vdW  Elec       q    Type
REMARK                         _______ _______ _______ _____ _____    ______ ____
ROOT
ATOM      1  N   UNL     1      48.171   6.514  16.221  0.00  0.00    +0.000 N 
ATOM      2  H   UNL     1      47.448   7.168  16.497  0.00  0.00    +0.000 HD
ENDROOT
BRANCH   1   7
ATOM      3  C   UNL     1      49.324   3.438  17.545  0.00  0.00    +0.000 A 
ATOM      4  N   UNL     1      49.105   3.490  18.872  0.00  0.00    +0.000 NA
ATOM      5  C   UNL     1      48.550   4.621  19.313  0.00  0.00    +0.000 A 
ATOM      6  C   UNL     1      48.222   5.673  18.489  0.00  0.00    +0.000 A 
ATOM      7  C   UNL     1      48.467   5.529  17.135  0.00  0.00    +0.000 A 
ATOM      8  N   UNL     1      49.024   4.409  16.643  0.00  0.00    +0.000 NA
BRANCH   3  10
ATOM      9  N   UNL     1      50.995   1.657  17.789  0.00  0.00    +0.000 N 
ATOM     10  C   UNL     1      49.987   2.184  17.018  0.00  0.00    +0.000 C 
ATOM     11  O   UNL     1      49.665   1.631  15.970  0.00  0.00    +0.000 OA
ATOM     12  H   UNL     1      51.436   0.801  17.490  0.00  0.00    +0.000 HD
ATOM     13  H   UNL     1      51.239   2.085  18.676  0.00  0.00    +0.000 HD
ENDBRANCH   3  10
ENDBRANCH   1   7
BRANCH   1  14
ATOM     14  C   UNL     1      48.922   6.730  15.007  0.00  0.00    +0.000 C 
BRANCH  14  15
ATOM     15  C   UNL     1      48.061   6.672  13.780  0.00  0.00    +0.000 A 
ATOM     16  C   UNL     1      48.390   7.389  12.640  0.00  0.00    +0.000 A 
ATOM     17  N   UNL     1      47.711   7.306  11.481  0.00  0.00    +0.000 NA
ATOM     18  C   UNL     1      46.647   6.462  11.462  0.00  0.00    +0.000 A 
ATOM     19  C   UNL     1      46.191   5.691  12.537  0.00  0.00    +0.000 A 
ATOM     20  C   UNL     1      46.933   5.839  13.716  0.00  0.00    +0.000 A 
BRANCH  19  21
ATOM     21  N   UNL     1      45.102   4.856  12.454  0.00  0.00    +0.000 N 
ATOM     22  C   UNL     1      45.203   3.443  12.051  0.00  0.00    +0.000 C 
ATOM     23  C   UNL     1      44.173   3.145  10.952  0.00  0.00    +0.000 C 
ATOM     24  O   UNL     1      42.843   3.504  11.366  0.00  0.00    +0.000 OA
ATOM     25  C   UNL     1      42.777   4.904  11.687  0.00  0.00    +0.000 C 
ATOM     26  C   UNL     1      43.742   5.270  12.829  0.00  0.00    +0.000 C 
ENDBRANCH  19  21
ENDBRANCH  14  15
ENDBRANCH   1  14
TORSDOF 5
ENDMDL
MODEL 6
REMARK VINA RESULT:    -6.737      2.478      4.582
REMARK INTER + INTRA:          -9.517
REMARK INTER:                  -8.786
REMARK INTRA:                  -0.731
REMARK UNBOUND:                -0.811
REMARK  Name = 
REMARK  5 active torsions:
REMARK  status: ('A' for Active; 'I' for Inactive)
REMARK    1  A    between atoms: C_2  and  C_4
REMARK    2  A    between atoms: C_8  and  N_9
REMARK    3  A    between atoms: N_9  and  C_10
REMARK    4  A    between atoms: C_10  and  C_11
REMARK    5  A    between atoms: C_15  and  N_16
REMARK                            x       y       z     vdW  Elec       q    Type
REMARK                         _______ _______ _______ _____ _____    ______ ____
ROOT
ATOM      1  N   UNL     1      49.092   7.372  14.398  0.00  0.00    +0.000 N 
ATOM      2  H   UNL     1      49.637   8.222  14.479  0.00  0.00    +0.000 HD
ENDROOT
BRANCH   1   7
ATOM      3  C   UNL     1      48.190   4.807  16.668  0.00  0.00    +0.000 A 
ATOM      4  N   UNL     1      48.179   5.368  17.891  0.00  0.00    +0.000 NA
ATOM      5  C   UNL     1      48.497   6.664  17.925  0.00  0.00    +0.000 A 
ATOM      6  C   UNL     1      48.820   7.392  16.803  0.00  0.00    +0.000 A 
ATOM      7  C   UNL     1      48.792   6.739  15.583  0.00  0.00    +0.000 A 
ATOM      8  N   UNL     1      48.479   5.435  15.498  0.00  0.00    +0.000 NA
BRANCH   3  10
ATOM      9  N   UNL     1      46.961   2.859  17.516  0.00  0.00    +0.000 N 
ATOM     10  C   UNL     1      47.872   3.328  16.600  0.00  0.00    +0.000 C 
ATOM     11  O   UNL     1      48.369   2.560  15.783  0.00  0.00    +0.000 OA
ATOM     12  H   UNL     1      46.695   1.886  17.479  0.00  0.00    +0.000 HD
ATOM     13  H   UNL     1      46.515   3.494  18.169  0.00  0.00    +0.000 HD
ENDBRANCH   3  10
ENDBRANCH   1   7
BRANCH   1  14
ATOM     14  C   UNL     1      48.799   6.815  13.099  0.00  0.00    +0.000 C 
BRANCH  14  15
ATOM     15  C   UNL     1      47.371   7.030  12.691  0.00  0.00    +0.000 A 
ATOM     16  C   UNL     1      46.786   8.285  12.766  0.00  0.00    +0.000 A 
ATOM     17  N   UNL     1      45.542   8.559  12.329  0.00  0.00    +0.000 NA
ATOM     18  C   UNL     1      44.850   7.523  11.788  0.00  0.00    +0.000 A 
ATOM     19  C   UNL     1      45.305   6.206  11.662  0.00  0.00    +0.000 A 
ATOM     20  C   UNL     1      46.600   5.989  12.152  0.00  0.00    +0.000 A 
BRANCH  19  21
ATOM     21  N   UNL     1      44.551   5.200  11.105  0.00  0.00    +0.000 N 
ATOM     22  C   UNL     1      43.285   4.729  11.692  0.00  0.00    +0.000 C 
ATOM     23  C   UNL     1      43.307   3.198  11.803  0.00  0.00    +0.000 C 
ATOM     24  O   UNL     1      43.588   2.581  10.535  0.00  0.00    +0.000 OA
ATOM     25  C   UNL     1      44.862   3.021  10.033  0.00  0.00    +0.000 C 
ATOM     26  C   UNL     1      44.897   4.548   9.834  0.00  0.00    +0.000 C 
ENDBRANCH  19  21
ENDBRANCH  14  15
ENDBRANCH   1  14
TORSDOF 5
ENDMDL
MODEL 7
REMARK VINA RESULT:    -6.470      2.391      3.613
REMARK INTER + INTRA:          -9.172
REMARK INTER:                  -8.709
REMARK INTRA:                  -0.464
REMARK UNBOUND:                -0.811
REMARK  Name = 
REMARK  5 active torsions:
REMARK  status: ('A' for Active; 'I' for Inactive)
REMARK    1  A    between atoms: C_2  and  C_4
REMARK    2  A    between atoms: C_8  and  N_9
REMARK    3  A    between atoms: N_9  and  C_10
REMARK    4  A    between atoms: C_10  and  C_11
REMARK    5  A    between atoms: C_15  and  N_16
REMARK                            x       y       z     vdW  Elec       q    Type
REMARK                         _______ _______ _______ _____ _____    ______ ____
ROOT
ATOM      1  N   UNL     1      46.722   3.908  14.766  0.00  0.00    +0.000 N 
ATOM      2  H   UNL     1      46.344   2.981  14.609  0.00  0.00    +0.000 HD
ENDROOT
BRANCH   1   7
ATOM      3  C   UNL     1      49.150   5.177  17.011  0.00  0.00    +0.000 A 
ATOM      4  N   UNL     1      49.030   4.462  18.144  0.00  0.00    +0.000 NA
ATOM      5  C   UNL     1      48.081   3.523  18.127  0.00  0.00    +0.000 A 
ATOM      6  C   UNL     1      47.269   3.289  17.041  0.00  0.00    +0.000 A 
ATOM      7  C   UNL     1      47.471   4.062  15.910  0.00  0.00    +0.000 A 
ATOM      8  N   UNL     1      48.413   5.019  15.880  0.00  0.00    +0.000 NA
BRANCH   3  10
ATOM      9  N   UNL     1      50.434   6.886  15.805  0.00  0.00    +0.000 N 
ATOM     10  C   UNL     1      50.191   6.275  17.012  0.00  0.00    +0.000 C 
ATOM     11  O   UNL     1      50.800   6.637  18.014  0.00  0.00    +0.000 OA
ATOM     12  H   UNL     1      51.095   7.647  15.772  0.00  0.00    +0.000 HD
ATOM     13  H   UNL     1      49.907   6.621  14.980  0.00  0.00    +0.000 HD
ENDBRANCH   3  10
ENDBRANCH   1   7
BRANCH   1  14
ATOM     14  C   UNL     1      46.348   5.002  13.903  0.00  0.00    +0.000 C 
BRANCH  14  15
ATOM     15  C   UNL     1      45.238   4.638  12.961  0.00  0.00    +0.000 A 
ATOM     16  C   UNL     1      43.913   4.883  13.289  0.00  0.00    +0.000 A 
ATOM     17  N   UNL     1      42.881   4.665  12.451  0.00  0.00    +0.000 NA
ATOM     18  C   UNL     1      43.193   4.179  11.223  0.00  0.00    +0.000 A 
ATOM     19  C   UNL     1      44.478   3.871  10.762  0.00  0.00    +0.000 A 
ATOM     20  C   UNL     1      45.501   4.106  11.690  0.00  0.00    +0.000 A 
BRANCH  19  21
ATOM     21  N   UNL     1      44.727   3.376   9.503  0.00  0.00    +0.000 N 
ATOM     22  C   UNL     1      44.682   1.940   9.183  0.00  0.00    +0.000 C 
ATOM     23  C   UNL     1      45.960   1.540   8.431  0.00  0.00    +0.000 C 
ATOM     24  O   UNL     1      46.162   2.356   7.264  0.00  0.00    +0.000 OA
ATOM     25  C   UNL     1      46.264   3.743   7.633  0.00  0.00    +0.000 C 
ATOM     26  C   UNL     1      44.989   4.237   8.340  0.00  0.00    +0.000 C 
ENDBRANCH  19  21
ENDBRANCH  14  15
ENDBRANCH   1  14
TORSDOF 5
ENDMDL
MODEL 8
REMARK VINA RESULT:    -6.406      4.012      6.430
REMARK INTER + INTRA:          -9.089
REMARK INTER:                  -8.336
REMARK INTRA:                  -0.752
REMARK UNBOUND:                -0.811
REMARK  Name = 
REMARK  5 active torsions:
REMARK  status: ('A' for Active; 'I' for Inactive)
REMARK    1  A    between atoms: C_2  and  C_4
REMARK    2  A    between atoms: C_8  and  N_9
REMARK    3  A    between atoms: N_9  and  C_10
REMARK    4  A    between atoms: C_10  and  C_11
REMARK    5  A    between atoms: C_15  and  N_16
REMARK                            x       y       z     vdW  Elec       q    Type
REMARK                         _______ _______ _______ _____ _____    ______ ____
ROOT
ATOM      1  N   UNL     1      46.223   9.799  12.890  0.00  0.00    +0.000 N 
ATOM      2  H   UNL     1      45.747   9.803  13.785  0.00  0.00    +0.000 HD
ENDROOT
BRANCH   1   7
ATOM      3  C   UNL     1      43.615  10.694  10.667  0.00  0.00    +0.000 A 
ATOM      4  N   UNL     1      44.132  11.605   9.822  0.00  0.00    +0.000 NA
ATOM      5  C   UNL     1      45.412  11.917  10.035  0.00  0.00    +0.000 A 
ATOM      6  C   UNL     1      46.167  11.362  11.043  0.00  0.00    +0.000 A 
ATOM      7  C   UNL     1      45.559  10.421  11.857  0.00  0.00    +0.000 A 
ATOM      8  N   UNL     1      44.274  10.075  11.682  0.00  0.00    +0.000 NA
BRANCH   3  10
ATOM      9  N   UNL     1      41.712   9.206  11.100  0.00  0.00    +0.000 N 
ATOM     10  C   UNL     1      42.154  10.347  10.476  0.00  0.00    +0.000 C 
ATOM     11  O   UNL     1      41.372  11.026   9.816  0.00  0.00    +0.000 OA
ATOM     12  H   UNL     1      40.736   8.962  11.027  0.00  0.00    +0.000 HD
ATOM     13  H   UNL     1      42.341   8.662  11.680  0.00  0.00    +0.000 HD
ENDBRANCH   3  10
ENDBRANCH   1   7
BRANCH   1  14
ATOM     14  C   UNL     1      47.444   9.049  12.719  0.00  0.00    +0.000 C 
BRANCH  14  15
ATOM     15  C   UNL     1      47.303   7.617  13.144  0.00  0.00    +0.000 A 
ATOM     16  C   UNL     1      48.209   7.039  14.020  0.00  0.00    +0.000 A 
ATOM     17  N   UNL     1      48.086   5.791  14.510  0.00  0.00    +0.000 NA
ATOM     18  C   UNL     1      46.999   5.087  14.102  0.00  0.00    +0.000 A 
ATOM     19  C   UNL     1      46.015   5.534  13.214  0.00  0.00    +0.000 A 
ATOM     20  C   UNL     1      46.215   6.834  12.730  0.00  0.00    +0.000 A 
BRANCH  19  21
ATOM     21  N   UNL     1      44.937   4.768  12.837  0.00  0.00    +0.000 N 
ATOM     22  C   UNL     1      45.069   3.390  12.335  0.00  0.00    +0.000 C 
ATOM     23  C   UNL     1      44.275   3.240  11.029  0.00  0.00    +0.000 C 
ATOM     24  O   UNL     1      42.902   3.633  11.199  0.00  0.00    +0.000 OA
ATOM     25  C   UNL     1      42.822   5.004  11.628  0.00  0.00    +0.000 C 
ATOM     26  C   UNL     1      43.545   5.222  12.969  0.00  0.00    +0.000 C 
ENDBRANCH  19  21
ENDBRANCH  14  15
ENDBRANCH   1  14
TORSDOF 5
ENDMDL
MODEL 9
REMARK VINA RESULT:    -6.144      2.585      7.155
REMARK INTER + INTRA:          -8.750
REMARK INTER:                  -8.021
REMARK INTRA:                  -0.729
REMARK UNBOUND:                -0.811
REMARK  Name = 
REMARK  5 active torsions:
REMARK  status: ('A' for Active; 'I' for Inactive)
REMARK    1  A    between atoms: C_2  and  C_4
REMARK    2  A    between atoms: C_8  and  N_9
REMARK    3  A    between atoms: N_9  and  C_10
REMARK    4  A    between atoms: C_10  and  C_11
REMARK    5  A    between atoms: C_15  and  N_16
REMARK                            x       y       z     vdW  Elec       q    Type
REMARK                         _______ _______ _______ _____ _____    ______ ____
ROOT
ATOM      1  N   UNL     1      46.302   6.888  11.731  0.00  0.00    +0.000 N 
ATOM      2  H   UNL     1      45.710   7.351  12.411  0.00  0.00    +0.000 HD
ENDROOT
BRANCH   1   7
ATOM      3  C   UNL     1      44.409   3.958  11.120  0.00  0.00    +0.000 A 
ATOM      4  N   UNL     1      44.523   3.699   9.804  0.00  0.00    +0.000 NA
ATOM      5  C   UNL     1      45.270   4.565   9.117  0.00  0.00    +0.000 A 
ATOM      6  C   UNL     1      45.885   5.654   9.691  0.00  0.00    +0.000 A 
ATOM      7  C   UNL     1      45.726   5.837  11.054  0.00  0.00    +0.000 A 
ATOM      8  N   UNL     1      44.984   4.992  11.788  0.00  0.00    +0.000 NA
BRANCH   3  10
ATOM      9  N   UNL     1      43.533   3.196  13.283  0.00  0.00    +0.000 N 
ATOM     10  C   UNL     1      43.537   3.015  11.921  0.00  0.00    +0.000 C 
ATOM     11  O   UNL     1      42.848   2.130  11.420  0.00  0.00    +0.000 OA
ATOM     12  H   UNL     1      42.936   2.611  13.847  0.00  0.00    +0.000 HD
ATOM     13  H   UNL     1      44.067   3.950  13.701  0.00  0.00    +0.000 HD
ENDBRANCH   3  10
ENDBRANCH   1   7
BRANCH   1  14
ATOM     14  C   UNL     1      47.696   7.242  11.619  0.00  0.00    +0.000 C 
BRANCH  14  15
ATOM     15  C   UNL     1      48.426   7.120  12.924  0.00  0.00    +0.000 A 
ATOM     16  C   UNL     1      49.539   7.901  13.198  0.00  0.00    +0.000 A 
ATOM     17  N   UNL     1      50.180   7.904  14.382  0.00  0.00    +0.000 NA
ATOM     18  C   UNL     1      49.680   7.084  15.341  0.00  0.00    +0.000 A 
ATOM     19  C   UNL     1      48.579   6.231  15.203  0.00  0.00    +0.000 A 
ATOM     20  C   UNL     1      47.972   6.266  13.940  0.00  0.00    +0.000 A 
BRANCH  19  21
ATOM     21  N   UNL     1      48.124   5.420  16.215  0.00  0.00    +0.000 N 
ATOM     22  C   UNL     1      48.351   5.712  17.641  0.00  0.00    +0.000 C 
ATOM     23  C   UNL     1      48.914   4.465  18.338  0.00  0.00    +0.000 C 
ATOM     24  O   UNL     1      48.065   3.322  18.141  0.00  0.00    +0.000 OA
ATOM     25  C   UNL     1      47.924   3.036  16.739  0.00  0.00    +0.000 C 
ATOM     26  C   UNL     1      47.305   4.222  15.977  0.00  0.00    +0.000 C 
ENDBRANCH  19  21
ENDBRANCH  14  15
ENDBRANCH   1  14
TORSDOF 5
ENDMDL
