MODEL 1
REMARK VINA RESULT:    -7.440      0.000      0.000
REMARK INTER + INTRA:         -12.819
REMARK INTER:                 -11.354
REMARK INTRA:                  -1.465
REMARK UNBOUND:                -1.465
REMARK  Name = 
REMARK  10 active torsions:
REMARK  status: ('A' for Active; 'I' for Inactive)
REMARK    1  A    between atoms: C_1  and  C_2
REMARK    2  A    between atoms: C_2  and  C_3
REMARK    3  A    between atoms: C_3  and  C_4
REMARK    4  A    between atoms: C_3  and  N_11
REMARK    5  A    between atoms: C_4  and  C_5
REMARK    6  A    between atoms: N_11  and  C_12
REMARK    7  A    between atoms: C_12  and  C_13
REMARK    8  A    between atoms: C_16  and  C_17
REMARK    9  A    between atoms: C_17  and  N_18
REMARK   10  A    between atoms: C_19  and  C_21
REMARK                            x       y       z     vdW  Elec       q    Type
REMARK                         _______ _______ _______ _____ _____    ______ ____
ROOT
ATOM      1  C   UNL     1      44.869   6.544  11.565  0.00  0.00    +0.000 A 
ATOM      2  C   UNL     1      46.102   5.931  11.833  0.00  0.00    +0.000 A 
ATOM      3  C   UNL     1      47.081   6.592  12.582  0.00  0.00    +0.000 A 
ATOM      4  C   UNL     1      46.850   7.880  13.075  0.00  0.00    +0.000 A 
ATOM      5  C   UNL     1      45.636   8.511  12.778  0.00  0.00    +0.000 A 
ATOM      6  C   UNL     1      44.651   7.845  12.042  0.00  0.00    +0.000 A 
ENDROOT
BRANCH   1   7
ATOM      7  C   UNL     1      43.798   5.839  10.760  0.00  0.00    +0.000 C 
BRANCH   7   8
ATOM      8  N   UNL     1      44.374   4.881   9.815  0.00  0.00    +0.000 NA
ATOM      9  H   UNL     1      43.845   4.916   8.947  0.00  0.00    +0.000 HD
BRANCH   8  10
ATOM     10  C   UNL     1      44.431   3.494  10.311  0.00  0.00    +0.000 C 
BRANCH  10  12
ATOM     11  C   UNL     1      43.729   2.896  12.730  0.00  0.00    +0.000 C 
ATOM     12  C   UNL     1      43.287   3.348  11.344  0.00  0.00    +0.000 C 
ENDBRANCH  10  12
BRANCH  10  13
ATOM     13  C   UNL     1      44.427   2.393   9.216  0.00  0.00    +0.000 C 
BRANCH  13  14
ATOM     14  C   UNL     1      45.605   2.374   8.271  0.00  0.00    +0.000 A 
ATOM     15  C   UNL     1      46.315   1.197   8.041  0.00  0.00    +0.000 A 
ATOM     16  C   UNL     1      47.403   1.217   7.174  0.00  0.00    +0.000 A 
ATOM     17  C   UNL     1      47.757   2.409   6.556  0.00  0.00    +0.000 A 
ATOM     18  C   UNL     1      47.008   3.536   6.841  0.00  0.00    +0.000 A 
ATOM     19  N   UNL     1      45.961   3.549   7.694  0.00  0.00    +0.000 NA
ENDBRANCH  13  14
ENDBRANCH  10  13
ENDBRANCH   8  10
ENDBRANCH   7   8
ENDBRANCH   1   7
BRANCH   4  20
ATOM     20  C   UNL     1      47.907   8.599  13.869  0.00  0.00    +0.000 C 
BRANCH  20  21
ATOM     21  N   UNL     1      48.178   7.913  15.107  0.00  0.00    +0.000 N 
ATOM     22  C   UNL     1      49.414   7.380  15.364  0.00  0.00    +0.000 C 
ATOM     23  O   UNL     1      50.351   7.508  14.581  0.00  0.00    +0.000 OA
ATOM     24  H   UNL     1      47.376   7.617  15.654  0.00  0.00    +0.000 HD
BRANCH  22  25
ATOM     25  C   UNL     1      49.583   6.697  16.652  0.00  0.00    +0.000 A 
ATOM     26  C   UNL     1      50.420   7.248  17.614  0.00  0.00    +0.000 A 
ATOM     27  S   UNL     1      50.474   6.358  19.067  0.00  0.00    +0.000 S 
ATOM     28  C   UNL     1      49.420   5.177  18.445  0.00  0.00    +0.000 A 
ATOM     29  N   UNL     1      49.067   4.096  19.192  0.00  0.00    +0.000 NA
ATOM     30  C   UNL     1      48.287   3.262  18.589  0.00  0.00    +0.000 A 
ATOM     31  N   UNL     1      47.819   3.417  17.310  0.00  0.00    +0.000 N 
ATOM     32  C   UNL     1      48.131   4.505  16.526  0.00  0.00    +0.000 A 
ATOM     33  O   UNL     1      47.671   4.624  15.394  0.00  0.00    +0.000 OA
ATOM     34  C   UNL     1      49.017   5.467  17.154  0.00  0.00    +0.000 A 
ATOM     35  H   UNL     1      47.206   2.732  16.894  0.00  0.00    +0.000 HD
ENDBRANCH  22  25
ENDBRANCH  20  21
ENDBRANCH   4  20
TORSDOF 9
ENDMDL
MODEL 2
REMARK VINA RESULT:    -7.329      3.757     10.093
REMARK INTER + INTRA:         -12.650
REMARK INTER:                 -10.027
REMARK INTRA:                  -2.623
REMARK UNBOUND:                -1.465
REMARK  Name = 
REMARK  10 active torsions:
REMARK  status: ('A' for Active; 'I' for Inactive)
REMARK    1  A    between atoms: C_1  and  C_2
REMARK    2  A    between atoms: C_2  and  C_3
REMARK    3  A    between atoms: C_3  and  C_4
REMARK    4  A    between atoms: C_3  and  N_11
REMARK    5  A    between atoms: C_4  and  C_5
REMARK    6  A    between atoms: N_11  and  C_12
REMARK    7  A    between atoms: C_12  and  C_13
REMARK    8  A    between atoms: C_16  and  C_17
REMARK    9  A    between atoms: C_17  and  N_18
REMARK   10  A    between atoms: C_19  and  C_21
REMARK                            x       y       z     vdW  Elec       q    Type
REMARK                         _______ _______ _______ _____ _____    ______ ____
ROOT
ATOM      1  C   UNL     1      51.405   4.524  17.766  0.00  0.00    +0.000 A 
ATOM      2  C   UNL     1      50.500   5.521  17.376  0.00  0.00    +0.000 A 
ATOM      3  C   UNL     1      49.185   5.195  17.027  0.00  0.00    +0.000 A 
ATOM      4  C   UNL     1      48.750   3.866  17.057  0.00  0.00    +0.000 A 
ATOM      5  C   UNL     1      49.661   2.864  17.410  0.00  0.00    +0.000 A 
ATOM      6  C   UNL     1      50.971   3.190  17.773  0.00  0.00    +0.000 A 
ENDROOT
BRANCH   1   7
ATOM      7  C   UNL     1      52.830   4.862  18.152  0.00  0.00    +0.000 C 
BRANCH   7   8
ATOM      8  N   UNL     1      52.907   5.421  19.502  0.00  0.00    +0.000 NA
ATOM      9  H   UNL     1      53.802   5.891  19.613  0.00  0.00    +0.000 HD
BRANCH   8  10
ATOM     10  C   UNL     1      52.724   4.434  20.582  0.00  0.00    +0.000 C 
BRANCH  10  12
ATOM     11  C   UNL     1      54.593   2.716  21.085  0.00  0.00    +0.000 C 
ATOM     12  C   UNL     1      54.127   4.163  21.175  0.00  0.00    +0.000 C 
ENDBRANCH  10  12
BRANCH  10  13
ATOM     13  C   UNL     1      51.656   4.802  21.648  0.00  0.00    +0.000 C 
BRANCH  13  14
ATOM     14  C   UNL     1      50.401   5.475  21.145  0.00  0.00    +0.000 A 
ATOM     15  C   UNL     1      49.227   4.746  20.963  0.00  0.00    +0.000 A 
ATOM     16  C   UNL     1      48.091   5.394  20.488  0.00  0.00    +0.000 A 
ATOM     17  C   UNL     1      48.152   6.752  20.204  0.00  0.00    +0.000 A 
ATOM     18  C   UNL     1      49.356   7.403  20.403  0.00  0.00    +0.000 A 
ATOM     19  N   UNL     1      50.478   6.795  20.844  0.00  0.00    +0.000 NA
ENDBRANCH  13  14
ENDBRANCH  10  13
ENDBRANCH   8  10
ENDBRANCH   7   8
ENDBRANCH   1   7
BRANCH   4  20
ATOM     20  C   UNL     1      47.339   3.511  16.669  0.00  0.00    +0.000 C 
BRANCH  20  21
ATOM     21  N   UNL     1      46.803   4.470  15.738  0.00  0.00    +0.000 N 
ATOM     22  C   UNL     1      46.814   4.229  14.389  0.00  0.00    +0.000 C 
ATOM     23  O   UNL     1      47.229   3.172  13.922  0.00  0.00    +0.000 OA
ATOM     24  H   UNL     1      46.662   5.415  16.081  0.00  0.00    +0.000 HD
BRANCH  22  25
ATOM     25  C   UNL     1      46.248   5.274  13.527  0.00  0.00    +0.000 A 
ATOM     26  C   UNL     1      46.971   6.438  13.299  0.00  0.00    +0.000 A 
ATOM     27  S   UNL     1      46.196   7.530  12.245  0.00  0.00    +0.000 S 
ATOM     28  C   UNL     1      44.844   6.510  12.094  0.00  0.00    +0.000 A 
ATOM     29  N   UNL     1      43.778   6.875  11.332  0.00  0.00    +0.000 NA
ATOM     30  C   UNL     1      42.807   6.023  11.329  0.00  0.00    +0.000 A 
ATOM     31  N   UNL     1      42.811   4.834  12.012  0.00  0.00    +0.000 N 
ATOM     32  C   UNL     1      43.875   4.414  12.777  0.00  0.00    +0.000 A 
ATOM     33  O   UNL     1      43.856   3.331  13.353  0.00  0.00    +0.000 OA
ATOM     34  C   UNL     1      44.989   5.343  12.823  0.00  0.00    +0.000 A 
ATOM     35  H   UNL     1      42.022   4.206  11.967  0.00  0.00    +0.000 HD
ENDBRANCH  22  25
ENDBRANCH  20  21
ENDBRANCH   4  20
TORSDOF 9
ENDMDL
MODEL 3
REMARK VINA RESULT:    -7.296      2.050      2.488
REMARK INTER + INTRA:         -12.600
REMARK INTER:                 -11.084
REMARK INTRA:                  -1.516
REMARK UNBOUND:                -1.465
REMARK  Name = 
REMARK  10 active torsions:
REMARK  status: ('A' for Active; 'I' for Inactive)
REMARK    1  A    between atoms: C_1  and  C_2
REMARK    2  A    between atoms: C_2  and  C_3
REMARK    3  A    between atoms: C_3  and  C_4
REMARK    4  A    between atoms: C_3  and  N_11
REMARK    5  A    between atoms: C_4  and  C_5
REMARK    6  A    between atoms: N_11  and  C_12
REMARK    7  A    between atoms: C_12  and  C_13
REMARK    8  A    between atoms: C_16  and  C_17
REMARK    9  A    between atoms: C_17  and  N_18
REMARK   10  A    between atoms: C_19  and  C_21
REMARK                            x       y       z     vdW  Elec       q    Type
REMARK                         _______ _______ _______ _____ _____    ______ ____
ROOT
ATOM      1  C   UNL     1      46.816   6.545  12.244  0.00  0.00    +0.000 A 
ATOM      2  C   UNL     1      47.228   7.882  12.326  0.00  0.00    +0.000 A 
ATOM      3  C   UNL     1      47.988   8.331  13.411  0.00  0.00    +0.000 A 
ATOM      4  C   UNL     1      48.347   7.453  14.439  0.00  0.00    +0.000 A 
ATOM      5  C   UNL     1      47.906   6.125  14.380  0.00  0.00    +0.000 A 
ATOM      6  C   UNL     1      47.159   5.673  13.288  0.00  0.00    +0.000 A 
ENDROOT
BRANCH   1   7
ATOM      7  C   UNL     1      45.998   6.043  11.072  0.00  0.00    +0.000 C 
BRANCH   7   8
ATOM      8  N   UNL     1      45.762   4.602  11.154  0.00  0.00    +0.000 NA
ATOM      9  H   UNL     1      46.349   4.133  10.469  0.00  0.00    +0.000 HD
BRANCH   8  10
ATOM     10  C   UNL     1      44.356   4.202  10.965  0.00  0.00    +0.000 C 
BRANCH  10  12
ATOM     11  C   UNL     1      42.865   5.193  12.834  0.00  0.00    +0.000 C 
ATOM     12  C   UNL     1      43.490   5.386  11.459  0.00  0.00    +0.000 C 
ENDBRANCH  10  12
BRANCH  10  13
ATOM     13  C   UNL     1      43.987   3.712   9.538  0.00  0.00    +0.000 C 
BRANCH  13  14
ATOM     14  C   UNL     1      45.130   3.254   8.663  0.00  0.00    +0.000 A 
ATOM     15  C   UNL     1      45.517   1.915   8.641  0.00  0.00    +0.000 A 
ATOM     16  C   UNL     1      46.581   1.528   7.832  0.00  0.00    +0.000 A 
ATOM     17  C   UNL     1      47.235   2.484   7.067  0.00  0.00    +0.000 A 
ATOM     18  C   UNL     1      46.797   3.793   7.150  0.00  0.00    +0.000 A 
ATOM     19  N   UNL     1      45.780   4.199   7.941  0.00  0.00    +0.000 NA
ENDBRANCH  13  14
ENDBRANCH  10  13
ENDBRANCH   8  10
ENDBRANCH   7   8
ENDBRANCH   1   7
BRANCH   4  20
ATOM     20  C   UNL     1      49.152   7.936  15.616  0.00  0.00    +0.000 C 
BRANCH  20  21
ATOM     21  N   UNL     1      50.117   6.946  16.021  0.00  0.00    +0.000 N 
ATOM     22  C   UNL     1      49.939   6.212  17.164  0.00  0.00    +0.000 C 
ATOM     23  O   UNL     1      48.933   6.326  17.859  0.00  0.00    +0.000 OA
ATOM     24  H   UNL     1      51.034   6.993  15.588  0.00  0.00    +0.000 HD
BRANCH  22  25
ATOM     25  C   UNL     1      50.984   5.233  17.489  0.00  0.00    +0.000 A 
ATOM     26  C   UNL     1      52.229   5.679  17.914  0.00  0.00    +0.000 A 
ATOM     27  S   UNL     1      53.315   4.421  18.292  0.00  0.00    +0.000 S 
ATOM     28  C   UNL     1      52.177   3.235  17.854  0.00  0.00    +0.000 A 
ATOM     29  N   UNL     1      52.489   1.912  17.921  0.00  0.00    +0.000 NA
ATOM     30  C   UNL     1      51.546   1.121  17.530  0.00  0.00    +0.000 A 
ATOM     31  N   UNL     1      50.315   1.533  17.090  0.00  0.00    +0.000 N 
ATOM     32  C   UNL     1      49.948   2.858  17.026  0.00  0.00    +0.000 A 
ATOM     33  O   UNL     1      48.827   3.190  16.653  0.00  0.00    +0.000 OA
ATOM     34  C   UNL     1      50.979   3.790  17.443  0.00  0.00    +0.000 A 
ATOM     35  H   UNL     1      49.616   0.865  16.802  0.00  0.00    +0.000 HD
ENDBRANCH  22  25
ENDBRANCH  20  21
ENDBRANCH   4  20
TORSDOF 9
ENDMDL
MODEL 4
REMARK VINA RESULT:    -7.142      3.016      8.453
REMARK INTER + INTRA:         -12.365
REMARK INTER:                 -10.364
REMARK INTRA:                  -2.002
REMARK UNBOUND:                -1.465
REMARK  Name = 
REMARK  10 active torsions:
REMARK  status: ('A' for Active; 'I' for Inactive)
REMARK    1  A    between atoms: C_1  and  C_2
REMARK    2  A    between atoms: C_2  and  C_3
REMARK    3  A    between atoms: C_3  and  C_4
REMARK    4  A    between atoms: C_3  and  N_11
REMARK    5  A    between atoms: C_4  and  C_5
REMARK    6  A    between atoms: N_11  and  C_12
REMARK    7  A    between atoms: C_12  and  C_13
REMARK    8  A    between atoms: C_16  and  C_17
REMARK    9  A    between atoms: C_17  and  N_18
REMARK   10  A    between atoms: C_19  and  C_21
REMARK                            x       y       z     vdW  Elec       q    Type
REMARK                         _______ _______ _______ _____ _____    ______ ____
ROOT
ATOM      1  C   UNL     1      48.841   8.205  16.231  0.00  0.00    +0.000 A 
ATOM      2  C   UNL     1      49.064   6.995  15.557  0.00  0.00    +0.000 A 
ATOM      3  C   UNL     1      48.734   6.858  14.205  0.00  0.00    +0.000 A 
ATOM      4  C   UNL     1      48.170   7.926  13.500  0.00  0.00    +0.000 A 
ATOM      5  C   UNL     1      47.911   9.124  14.178  0.00  0.00    +0.000 A 
ATOM      6  C   UNL     1      48.254   9.265  15.525  0.00  0.00    +0.000 A 
ENDROOT
BRANCH   1   7
ATOM      7  C   UNL     1      49.198   8.368  17.694  0.00  0.00    +0.000 C 
BRANCH   7   8
ATOM      8  N   UNL     1      48.025   8.222  18.556  0.00  0.00    +0.000 NA
ATOM      9  H   UNL     1      47.956   9.038  19.159  0.00  0.00    +0.000 HD
BRANCH   8  10
ATOM     10  C   UNL     1      48.018   6.995  19.374  0.00  0.00    +0.000 C 
BRANCH  10  12
ATOM     11  C   UNL     1      47.366   6.289  21.777  0.00  0.00    +0.000 C 
ATOM     12  C   UNL     1      47.684   7.431  20.821  0.00  0.00    +0.000 C 
ENDBRANCH  10  12
BRANCH  10  13
ATOM     13  C   UNL     1      47.117   5.846  18.845  0.00  0.00    +0.000 C 
BRANCH  13  14
ATOM     14  C   UNL     1      47.821   4.681  18.189  0.00  0.00    +0.000 A 
ATOM     15  C   UNL     1      49.198   4.514  18.325  0.00  0.00    +0.000 A 
ATOM     16  C   UNL     1      49.817   3.436  17.698  0.00  0.00    +0.000 A 
ATOM     17  C   UNL     1      49.050   2.553  16.952  0.00  0.00    +0.000 A 
ATOM     18  C   UNL     1      47.690   2.791  16.858  0.00  0.00    +0.000 A 
ATOM     19  N   UNL     1      47.067   3.839  17.439  0.00  0.00    +0.000 NA
ENDBRANCH  13  14
ENDBRANCH  10  13
ENDBRANCH   8  10
ENDBRANCH   7   8
ENDBRANCH   1   7
BRANCH   4  20
ATOM     20  C   UNL     1      47.801   7.778  12.048  0.00  0.00    +0.000 C 
BRANCH  20  21
ATOM     21  N   UNL     1      47.071   6.557  11.823  0.00  0.00    +0.000 N 
ATOM     22  C   UNL     1      45.702   6.532  11.868  0.00  0.00    +0.000 C 
ATOM     23  O   UNL     1      45.040   7.551  12.049  0.00  0.00    +0.000 OA
ATOM     24  H   UNL     1      47.595   5.689  11.889  0.00  0.00    +0.000 HD
BRANCH  22  25
ATOM     25  C   UNL     1      45.057   5.235  11.630  0.00  0.00    +0.000 A 
ATOM     26  C   UNL     1      44.375   4.609  12.666  0.00  0.00    +0.000 A 
ATOM     27  S   UNL     1      43.648   3.135  12.218  0.00  0.00    +0.000 S 
ATOM     28  C   UNL     1      44.261   3.253  10.635  0.00  0.00    +0.000 A 
ATOM     29  N   UNL     1      44.020   2.275   9.721  0.00  0.00    +0.000 NA
ATOM     30  C   UNL     1      44.568   2.475   8.568  0.00  0.00    +0.000 A 
ATOM     31  N   UNL     1      45.328   3.570   8.246  0.00  0.00    +0.000 N 
ATOM     32  C   UNL     1      45.579   4.594   9.131  0.00  0.00    +0.000 A 
ATOM     33  O   UNL     1      46.240   5.572   8.799  0.00  0.00    +0.000 OA
ATOM     34  C   UNL     1      44.994   4.411  10.446  0.00  0.00    +0.000 A 
ATOM     35  H   UNL     1      45.727   3.672   7.324  0.00  0.00    +0.000 HD
ENDBRANCH  22  25
ENDBRANCH  20  21
ENDBRANCH   4  20
TORSDOF 9
ENDMDL
MODEL 5
REMARK VINA RESULT:    -7.064      2.819      3.952
REMARK INTER + INTRA:         -12.245
REMARK INTER:                 -11.009
REMARK INTRA:                  -1.236
REMARK UNBOUND:                -1.465
REMARK  Name = 
REMARK  10 active torsions:
REMARK  status: ('A' for Active; 'I' for Inactive)
REMARK    1  A    between atoms: C_1  and  C_2
REMARK    2  A    between atoms: C_2  and  C_3
REMARK    3  A    between atoms: C_3  and  C_4
REMARK    4  A    between atoms: C_3  and  N_11
REMARK    5  A    between atoms: C_4  and  C_5
REMARK    6  A    between atoms: N_11  and  C_12
REMARK    7  A    between atoms: C_12  and  C_13
REMARK    8  A    between atoms: C_16  and  C_17
REMARK    9  A    between atoms: C_17  and  N_18
REMARK   10  A    between atoms: C_19  and  C_21
REMARK                            x       y       z     vdW  Elec       q    Type
REMARK                         _______ _______ _______ _____ _____    ______ ____
ROOT
ATOM      1  C   UNL     1      46.783   5.661  12.731  0.00  0.00    +0.000 A 
ATOM      2  C   UNL     1      46.419   4.498  13.423  0.00  0.00    +0.000 A 
ATOM      3  C   UNL     1      46.856   4.279  14.734  0.00  0.00    +0.000 A 
ATOM      4  C   UNL     1      47.669   5.218  15.377  0.00  0.00    +0.000 A 
ATOM      5  C   UNL     1      48.066   6.363  14.677  0.00  0.00    +0.000 A 
ATOM      6  C   UNL     1      47.618   6.589  13.372  0.00  0.00    +0.000 A 
ENDROOT
BRANCH   1   7
ATOM      7  C   UNL     1      46.314   5.913  11.313  0.00  0.00    +0.000 C 
BRANCH   7   8
ATOM      8  N   UNL     1      44.860   5.792  11.195  0.00  0.00    +0.000 NA
ATOM      9  H   UNL     1      44.440   5.973  12.103  0.00  0.00    +0.000 HD
BRANCH   8  10
ATOM     10  C   UNL     1      44.397   4.490  10.681  0.00  0.00    +0.000 C 
BRANCH  10  12
ATOM     11  C   UNL     1      42.421   5.356  12.112  0.00  0.00    +0.000 C 
ATOM     12  C   UNL     1      43.080   4.166  11.426  0.00  0.00    +0.000 C 
ENDBRANCH  10  12
BRANCH  10  13
ATOM     13  C   UNL     1      44.280   4.386   9.135  0.00  0.00    +0.000 C 
BRANCH  13  14
ATOM     14  C   UNL     1      45.299   3.516   8.437  0.00  0.00    +0.000 A 
ATOM     15  C   UNL     1      45.406   2.161   8.742  0.00  0.00    +0.000 A 
ATOM     16  C   UNL     1      46.362   1.390   8.089  0.00  0.00    +0.000 A 
ATOM     17  C   UNL     1      47.190   1.988   7.149  0.00  0.00    +0.000 A 
ATOM     18  C   UNL     1      47.027   3.340   6.907  0.00  0.00    +0.000 A 
ATOM     19  N   UNL     1      46.121   4.115   7.541  0.00  0.00    +0.000 NA
ENDBRANCH  13  14
ENDBRANCH  10  13
ENDBRANCH   8  10
ENDBRANCH   7   8
ENDBRANCH   1   7
BRANCH   4  20
ATOM     20  C   UNL     1      48.152   4.979  16.783  0.00  0.00    +0.000 C 
BRANCH  20  21
ATOM     21  N   UNL     1      47.719   6.034  17.663  0.00  0.00    +0.000 N 
ATOM     22  C   UNL     1      48.619   6.907  18.217  0.00  0.00    +0.000 C 
ATOM     23  O   UNL     1      49.817   6.862  17.948  0.00  0.00    +0.000 OA
ATOM     24  H   UNL     1      46.787   5.952  18.057  0.00  0.00    +0.000 HD
BRANCH  22  25
ATOM     25  C   UNL     1      48.074   7.942  19.104  0.00  0.00    +0.000 A 
ATOM     26  C   UNL     1      47.761   7.621  20.418  0.00  0.00    +0.000 A 
ATOM     27  S   UNL     1      47.180   8.941  21.327  0.00  0.00    +0.000 S 
ATOM     28  C   UNL     1      47.278   9.979  19.982  0.00  0.00    +0.000 A 
ATOM     29  N   UNL     1      46.895  11.280  20.079  0.00  0.00    +0.000 NA
ATOM     30  C   UNL     1      46.992  11.948  18.977  0.00  0.00    +0.000 A 
ATOM     31  N   UNL     1      47.448  11.433  17.791  0.00  0.00    +0.000 N 
ATOM     32  C   UNL     1      47.866  10.129  17.652  0.00  0.00    +0.000 A 
ATOM     33  O   UNL     1      48.294   9.710  16.582  0.00  0.00    +0.000 OA
ATOM     34  C   UNL     1      47.765   9.332  18.861  0.00  0.00    +0.000 A 
ATOM     35  H   UNL     1      47.505  12.008  16.963  0.00  0.00    +0.000 HD
ENDBRANCH  22  25
ENDBRANCH  20  21
ENDBRANCH   4  20
TORSDOF 9
ENDMDL
MODEL 6
REMARK VINA RESULT:    -7.034      1.679      2.090
REMARK INTER + INTRA:         -12.199
REMARK INTER:                 -10.700
REMARK INTRA:                  -1.499
REMARK UNBOUND:                -1.465
REMARK  Name = 
REMARK  10 active torsions:
REMARK  status: ('A' for Active; 'I' for Inactive)
REMARK    1  A    between atoms: C_1  and  C_2
REMARK    2  A    between atoms: C_2  and  C_3
REMARK    3  A    between atoms: C_3  and  C_4
REMARK    4  A    between atoms: C_3  and  N_11
REMARK    5  A    between atoms: C_4  and  C_5
REMARK    6  A    between atoms: N_11  and  C_12
REMARK    7  A    between atoms: C_12  and  C_13
REMARK    8  A    between atoms: C_16  and  C_17
REMARK    9  A    between atoms: C_17  and  N_18
REMARK   10  A    between atoms: C_19  and  C_21
REMARK                            x       y       z     vdW  Elec       q    Type
REMARK                         _______ _______ _______ _____ _____    ______ ____
ROOT
ATOM      1  C   UNL     1      46.111   6.469  11.986  0.00  0.00    +0.000 A 
ATOM      2  C   UNL     1      47.056   7.483  11.774  0.00  0.00    +0.000 A 
ATOM      3  C   UNL     1      48.147   7.636  12.637  0.00  0.00    +0.000 A 
ATOM      4  C   UNL     1      48.312   6.781  13.731  0.00  0.00    +0.000 A 
ATOM      5  C   UNL     1      47.351   5.791  13.968  0.00  0.00    +0.000 A 
ATOM      6  C   UNL     1      46.269   5.629  13.098  0.00  0.00    +0.000 A 
ENDROOT
BRANCH   1   7
ATOM      7  C   UNL     1      44.928   6.289  11.057  0.00  0.00    +0.000 C 
BRANCH   7   8
ATOM      8  N   UNL     1      45.234   5.364   9.965  0.00  0.00    +0.000 NA
ATOM      9  H   UNL     1      44.834   5.728   9.104  0.00  0.00    +0.000 HD
BRANCH   8  10
ATOM     10  C   UNL     1      44.770   3.983  10.187  0.00  0.00    +0.000 C 
BRANCH  10  12
ATOM     11  C   UNL     1      43.499   2.993  12.214  0.00  0.00    +0.000 C 
ATOM     12  C   UNL     1      43.555   4.074  11.142  0.00  0.00    +0.000 C 
ENDBRANCH  10  12
BRANCH  10  13
ATOM     13  C   UNL     1      44.493   3.157   8.902  0.00  0.00    +0.000 C 
BRANCH  13  14
ATOM     14  C   UNL     1      45.689   2.823   8.041  0.00  0.00    +0.000 A 
ATOM     15  C   UNL     1      46.252   1.549   8.068  0.00  0.00    +0.000 A 
ATOM     16  C   UNL     1      47.360   1.278   7.272  0.00  0.00    +0.000 A 
ATOM     17  C   UNL     1      47.880   2.282   6.468  0.00  0.00    +0.000 A 
ATOM     18  C   UNL     1      47.270   3.523   6.502  0.00  0.00    +0.000 A 
ATOM     19  N   UNL     1      46.207   3.819   7.280  0.00  0.00    +0.000 NA
ENDBRANCH  13  14
ENDBRANCH  10  13
ENDBRANCH   8  10
ENDBRANCH   7   8
ENDBRANCH   1   7
BRANCH   4  20
ATOM     20  C   UNL     1      49.477   6.951  14.670  0.00  0.00    +0.000 C 
BRANCH  20  21
ATOM     21  N   UNL     1      49.055   6.835  16.042  0.00  0.00    +0.000 N 
ATOM     22  C   UNL     1      49.322   7.825  16.950  0.00  0.00    +0.000 C 
ATOM     23  O   UNL     1      49.882   8.869  16.626  0.00  0.00    +0.000 OA
ATOM     24  H   UNL     1      48.793   5.909  16.366  0.00  0.00    +0.000 HD
BRANCH  22  25
ATOM     25  C   UNL     1      48.853   7.605  18.324  0.00  0.00    +0.000 A 
ATOM     26  C   UNL     1      48.249   8.647  19.015  0.00  0.00    +0.000 A 
ATOM     27  S   UNL     1      47.723   8.219  20.579  0.00  0.00    +0.000 S 
ATOM     28  C   UNL     1      48.329   6.639  20.407  0.00  0.00    +0.000 A 
ATOM     29  N   UNL     1      48.224   5.739  21.423  0.00  0.00    +0.000 NA
ATOM     30  C   UNL     1      48.752   4.587  21.172  0.00  0.00    +0.000 A 
ATOM     31  N   UNL     1      49.365   4.251  19.993  0.00  0.00    +0.000 N 
ATOM     32  C   UNL     1      49.475   5.121  18.931  0.00  0.00    +0.000 A 
ATOM     33  O   UNL     1      50.006   4.776  17.881  0.00  0.00    +0.000 OA
ATOM     34  C   UNL     1      48.907   6.435  19.168  0.00  0.00    +0.000 A 
ATOM     35  H   UNL     1      49.756   3.331  19.855  0.00  0.00    +0.000 HD
ENDBRANCH  22  25
ENDBRANCH  20  21
ENDBRANCH   4  20
TORSDOF 9
ENDMDL
MODEL 7
REMARK VINA RESULT:    -6.910      1.970      2.250
REMARK INTER + INTRA:         -12.010
REMARK INTER:                 -10.437
REMARK INTRA:                  -1.573
REMARK UNBOUND:                -1.465
REMARK  Name = 
REMARK  10 active torsions:
REMARK  status: ('A' for Active; 'I' for Inactive)
REMARK    1  A    between atoms: C_1  and  C_2
REMARK    2  A    between atoms: C_2  and  C_3
REMARK    3  A    between atoms: C_3  and  C_4
REMARK    4  A    between atoms: C_3  and  N_11
REMARK    5  A    between atoms: C_4  and  C_5
REMARK    6  A    between atoms: N_11  and  C_12
REMARK    7  A    between atoms: C_12  and  C_13
REMARK    8  A    between atoms: C_16  and  C_17
REMARK    9  A    between atoms: C_17  and  N_18
REMARK   10  A    between atoms: C_19  and  C_21
REMARK                            x       y       z     vdW  Elec       q    Type
REMARK                         _______ _______ _______ _____ _____    ______ ____
ROOT
ATOM      1  C   UNL     1      46.213   7.173  12.230  0.00  0.00    +0.000 A 
ATOM      2  C   UNL     1      47.211   6.246  12.563  0.00  0.00    +0.000 A 
ATOM      3  C   UNL     1      48.530   6.662  12.774  0.00  0.00    +0.000 A 
ATOM      4  C   UNL     1      48.878   8.011  12.654  0.00  0.00    +0.000 A 
ATOM      5  C   UNL     1      47.892   8.934  12.286  0.00  0.00    +0.000 A 
ATOM      6  C   UNL     1      46.571   8.521  12.088  0.00  0.00    +0.000 A 
ENDROOT
BRANCH   1   7
ATOM      7  C   UNL     1      44.780   6.738  12.003  0.00  0.00    +0.000 C 
BRANCH   7   8
ATOM      8  N   UNL     1      44.567   6.272  10.633  0.00  0.00    +0.000 NA
ATOM      9  H   UNL     1      43.606   6.469  10.363  0.00  0.00    +0.000 HD
BRANCH   8  10
ATOM     10  C   UNL     1      44.863   4.843  10.421  0.00  0.00    +0.000 C 
BRANCH  10  12
ATOM     11  C   UNL     1      45.247   3.107  12.302  0.00  0.00    +0.000 C 
ATOM     12  C   UNL     1      44.286   4.088  11.642  0.00  0.00    +0.000 C 
ENDBRANCH  10  12
BRANCH  10  13
ATOM     13  C   UNL     1      44.406   4.262   9.055  0.00  0.00    +0.000 C 
BRANCH  13  14
ATOM     14  C   UNL     1      45.396   3.382   8.329  0.00  0.00    +0.000 A 
ATOM     15  C   UNL     1      45.545   2.041   8.677  0.00  0.00    +0.000 A 
ATOM     16  C   UNL     1      46.474   1.261   7.995  0.00  0.00    +0.000 A 
ATOM     17  C   UNL     1      47.232   1.836   6.984  0.00  0.00    +0.000 A 
ATOM     18  C   UNL     1      47.031   3.175   6.703  0.00  0.00    +0.000 A 
ATOM     19  N   UNL     1      46.151   3.960   7.362  0.00  0.00    +0.000 NA
ENDBRANCH  13  14
ENDBRANCH  10  13
ENDBRANCH   8  10
ENDBRANCH   7   8
ENDBRANCH   1   7
BRANCH   4  20
ATOM     20  C   UNL     1      50.299   8.460  12.868  0.00  0.00    +0.000 C 
BRANCH  20  21
ATOM     21  N   UNL     1      50.966   7.620  13.829  0.00  0.00    +0.000 N 
ATOM     22  C   UNL     1      51.490   8.143  14.983  0.00  0.00    +0.000 C 
ATOM     23  O   UNL     1      51.369   9.331  15.269  0.00  0.00    +0.000 OA
ATOM     24  H   UNL     1      51.259   6.700  13.513  0.00  0.00    +0.000 HD
BRANCH  22  25
ATOM     25  C   UNL     1      52.154   7.201  15.892  0.00  0.00    +0.000 A 
ATOM     26  C   UNL     1      53.523   7.300  16.099  0.00  0.00    +0.000 A 
ATOM     27  S   UNL     1      54.133   6.164  17.214  0.00  0.00    +0.000 S 
ATOM     28  C   UNL     1      52.596   5.465  17.422  0.00  0.00    +0.000 A 
ATOM     29  N   UNL     1      52.423   4.399  18.250  0.00  0.00    +0.000 NA
ATOM     30  C   UNL     1      51.214   3.948  18.293  0.00  0.00    +0.000 A 
ATOM     31  N   UNL     1      50.159   4.474  17.590  0.00  0.00    +0.000 N 
ATOM     32  C   UNL     1      50.284   5.564  16.759  0.00  0.00    +0.000 A 
ATOM     33  O   UNL     1      49.312   6.025  16.168  0.00  0.00    +0.000 OA
ATOM     34  C   UNL     1      51.628   6.101  16.667  0.00  0.00    +0.000 A 
ATOM     35  H   UNL     1      49.234   4.078  17.669  0.00  0.00    +0.000 HD
ENDBRANCH  22  25
ENDBRANCH  20  21
ENDBRANCH   4  20
TORSDOF 9
ENDMDL
MODEL 8
REMARK VINA RESULT:    -6.841      2.218      3.004
REMARK INTER + INTRA:         -11.905
REMARK INTER:                 -10.528
REMARK INTRA:                  -1.377
REMARK UNBOUND:                -1.465
REMARK  Name = 
REMARK  10 active torsions:
REMARK  status: ('A' for Active; 'I' for Inactive)
REMARK    1  A    between atoms: C_1  and  C_2
REMARK    2  A    between atoms: C_2  and  C_3
REMARK    3  A    between atoms: C_3  and  C_4
REMARK    4  A    between atoms: C_3  and  N_11
REMARK    5  A    between atoms: C_4  and  C_5
REMARK    6  A    between atoms: N_11  and  C_12
REMARK    7  A    between atoms: C_12  and  C_13
REMARK    8  A    between atoms: C_16  and  C_17
REMARK    9  A    between atoms: C_17  and  N_18
REMARK   10  A    between atoms: C_19  and  C_21
REMARK                            x       y       z     vdW  Elec       q    Type
REMARK                         _______ _______ _______ _____ _____    ______ ____
ROOT
ATOM      1  C   UNL     1      46.316   7.778  12.167  0.00  0.00    +0.000 A 
ATOM      2  C   UNL     1      47.411   7.014  11.742  0.00  0.00    +0.000 A 
ATOM      3  C   UNL     1      48.552   6.890  12.543  0.00  0.00    +0.000 A 
ATOM      4  C   UNL     1      48.621   7.533  13.783  0.00  0.00    +0.000 A 
ATOM      5  C   UNL     1      47.545   8.328  14.195  0.00  0.00    +0.000 A 
ATOM      6  C   UNL     1      46.400   8.439  13.402  0.00  0.00    +0.000 A 
ENDROOT
BRANCH   1   7
ATOM      7  C   UNL     1      45.073   7.916  11.312  0.00  0.00    +0.000 C 
BRANCH   7   8
ATOM      8  N   UNL     1      44.072   6.902  11.646  0.00  0.00    +0.000 NA
ATOM      9  H   UNL     1      43.763   7.047  12.604  0.00  0.00    +0.000 HD
BRANCH   8  10
ATOM     10  C   UNL     1      44.531   5.512  11.473  0.00  0.00    +0.000 C 
BRANCH  10  12
ATOM     11  C   UNL     1      45.793   4.207  13.318  0.00  0.00    +0.000 C 
ATOM     12  C   UNL     1      44.489   4.856  12.874  0.00  0.00    +0.000 C 
ENDBRANCH  10  12
BRANCH  10  13
ATOM     13  C   UNL     1      43.790   4.695  10.379  0.00  0.00    +0.000 C 
BRANCH  13  14
ATOM     14  C   UNL     1      44.651   3.884   9.440  0.00  0.00    +0.000 A 
ATOM     15  C   UNL     1      44.723   2.498   9.559  0.00  0.00    +0.000 A 
ATOM     16  C   UNL     1      45.535   1.781   8.685  0.00  0.00    +0.000 A 
ATOM     17  C   UNL     1      46.255   2.463   7.714  0.00  0.00    +0.000 A 
ATOM     18  C   UNL     1      46.137   3.840   7.665  0.00  0.00    +0.000 A 
ATOM     19  N   UNL     1      45.373   4.562   8.513  0.00  0.00    +0.000 NA
ENDBRANCH  13  14
ENDBRANCH  10  13
ENDBRANCH   8  10
ENDBRANCH   7   8
ENDBRANCH   1   7
BRANCH   4  20
ATOM     20  C   UNL     1      49.852   7.414  14.642  0.00  0.00    +0.000 C 
BRANCH  20  21
ATOM     21  N   UNL     1      49.504   7.361  16.039  0.00  0.00    +0.000 N 
ATOM     22  C   UNL     1      48.965   6.228  16.591  0.00  0.00    +0.000 C 
ATOM     23  O   UNL     1      48.806   5.201  15.938  0.00  0.00    +0.000 OA
ATOM     24  H   UNL     1      49.427   8.248  16.527  0.00  0.00    +0.000 HD
BRANCH  22  25
ATOM     25  C   UNL     1      48.641   6.282  18.022  0.00  0.00    +0.000 A 
ATOM     26  C   UNL     1      48.821   5.151  18.807  0.00  0.00    +0.000 A 
ATOM     27  S   UNL     1      48.440   5.389  20.451  0.00  0.00    +0.000 S 
ATOM     28  C   UNL     1      47.973   7.000  20.164  0.00  0.00    +0.000 A 
ATOM     29  N   UNL     1      47.509   7.780  21.177  0.00  0.00    +0.000 NA
ATOM     30  C   UNL     1      47.161   8.971  20.817  0.00  0.00    +0.000 A 
ATOM     31  N   UNL     1      47.247   9.454  19.536  0.00  0.00    +0.000 N 
ATOM     32  C   UNL     1      47.730   8.708  18.486  0.00  0.00    +0.000 A 
ATOM     33  O   UNL     1      47.819   9.183  17.358  0.00  0.00    +0.000 OA
ATOM     34  C   UNL     1      48.124   7.357  18.837  0.00  0.00    +0.000 A 
ATOM     35  H   UNL     1      46.963  10.398  19.318  0.00  0.00    +0.000 HD
ENDBRANCH  22  25
ENDBRANCH  20  21
ENDBRANCH   4  20
TORSDOF 9
ENDMDL
MODEL 9
REMARK VINA RESULT:    -6.748      2.959      8.658
REMARK INTER + INTRA:         -11.763
REMARK INTER:                  -9.506
REMARK INTRA:                  -2.257
REMARK UNBOUND:                -1.465
REMARK  Name = 
REMARK  10 active torsions:
REMARK  status: ('A' for Active; 'I' for Inactive)
REMARK    1  A    between atoms: C_1  and  C_2
REMARK    2  A    between atoms: C_2  and  C_3
REMARK    3  A    between atoms: C_3  and  C_4
REMARK    4  A    between atoms: C_3  and  N_11
REMARK    5  A    between atoms: C_4  and  C_5
REMARK    6  A    between atoms: N_11  and  C_12
REMARK    7  A    between atoms: C_12  and  C_13
REMARK    8  A    between atoms: C_16  and  C_17
REMARK    9  A    between atoms: C_17  and  N_18
REMARK   10  A    between atoms: C_19  and  C_21
REMARK                            x       y       z     vdW  Elec       q    Type
REMARK                         _______ _______ _______ _____ _____    ______ ____
ROOT
ATOM      1  C   UNL     1      50.456   7.486  15.032  0.00  0.00    +0.000 A 
ATOM      2  C   UNL     1      49.152   7.006  15.220  0.00  0.00    +0.000 A 
ATOM      3  C   UNL     1      48.195   7.122  14.206  0.00  0.00    +0.000 A 
ATOM      4  C   UNL     1      48.521   7.724  12.987  0.00  0.00    +0.000 A 
ATOM      5  C   UNL     1      49.811   8.238  12.809  0.00  0.00    +0.000 A 
ATOM      6  C   UNL     1      50.772   8.109  13.816  0.00  0.00    +0.000 A 
ENDROOT
BRANCH   1   7
ATOM      7  C   UNL     1      51.505   7.363  16.119  0.00  0.00    +0.000 C 
BRANCH   7   8
ATOM      8  N   UNL     1      51.489   6.036  16.736  0.00  0.00    +0.000 NA
ATOM      9  H   UNL     1      50.654   5.542  16.434  0.00  0.00    +0.000 HD
BRANCH   8  10
ATOM     10  C   UNL     1      51.557   6.048  18.209  0.00  0.00    +0.000 C 
BRANCH  10  12
ATOM     11  C   UNL     1      50.177   7.869  19.426  0.00  0.00    +0.000 C 
ATOM     12  C   UNL     1      51.439   7.529  18.644  0.00  0.00    +0.000 C 
ENDBRANCH  10  12
BRANCH  10  13
ATOM     13  C   UNL     1      50.556   5.105  18.931  0.00  0.00    +0.000 C 
BRANCH  13  14
ATOM     14  C   UNL     1      49.605   4.327  18.052  0.00  0.00    +0.000 A 
ATOM     15  C   UNL     1      48.268   4.706  17.941  0.00  0.00    +0.000 A 
ATOM     16  C   UNL     1      47.416   3.961  17.132  0.00  0.00    +0.000 A 
ATOM     17  C   UNL     1      47.915   2.858  16.453  0.00  0.00    +0.000 A 
ATOM     18  C   UNL     1      49.251   2.542  16.621  0.00  0.00    +0.000 A 
ATOM     19  N   UNL     1      50.095   3.235  17.416  0.00  0.00    +0.000 NA
ENDBRANCH  13  14
ENDBRANCH  10  13
ENDBRANCH   8  10
ENDBRANCH   7   8
ENDBRANCH   1   7
BRANCH   4  20
ATOM     20  C   UNL     1      47.489   7.863  11.899  0.00  0.00    +0.000 C 
BRANCH  20  21
ATOM     21  N   UNL     1      46.826   6.608  11.654  0.00  0.00    +0.000 N 
ATOM     22  C   UNL     1      45.463   6.500  11.739  0.00  0.00    +0.000 C 
ATOM     23  O   UNL     1      44.749   7.471  11.974  0.00  0.00    +0.000 OA
ATOM     24  H   UNL     1      47.402   5.772  11.673  0.00  0.00    +0.000 HD
BRANCH  22  25
ATOM     25  C   UNL     1      44.889   5.175  11.475  0.00  0.00    +0.000 A 
ATOM     26  C   UNL     1      44.186   4.522  12.479  0.00  0.00    +0.000 A 
ATOM     27  S   UNL     1      43.547   3.016  12.002  0.00  0.00    +0.000 S 
ATOM     28  C   UNL     1      44.230   3.159  10.450  0.00  0.00    +0.000 A 
ATOM     29  N   UNL     1      44.076   2.169   9.529  0.00  0.00    +0.000 NA
ATOM     30  C   UNL     1      44.670   2.391   8.403  0.00  0.00    +0.000 A 
ATOM     31  N   UNL     1      45.395   3.519   8.113  0.00  0.00    +0.000 N 
ATOM     32  C   UNL     1      45.558   4.554   9.006  0.00  0.00    +0.000 A 
ATOM     33  O   UNL     1      46.190   5.560   8.702  0.00  0.00    +0.000 OA
ATOM     34  C   UNL     1      44.919   4.347  10.292  0.00  0.00    +0.000 A 
ATOM     35  H   UNL     1      45.833   3.637   7.212  0.00  0.00    +0.000 HD
ENDBRANCH  22  25
ENDBRANCH  20  21
ENDBRANCH   4  20
TORSDOF 9
ENDMDL
