MODEL 1
REMARK VINA RESULT:    -8.314      0.000      0.000
REMARK INTER + INTRA:         -12.475
REMARK INTER:                 -11.230
REMARK INTRA:                  -1.245
REMARK UNBOUND:                -1.245
REMARK  Name = 
REMARK  6 active torsions:
REMARK  status: ('A' for Active; 'I' for Inactive)
REMARK    1  A    between atoms: C_2  and  C_19
REMARK    2  A    between atoms: N_3  and  C_4
REMARK    3  A    between atoms: C_4  and  C_5
REMARK    4  A    between atoms: C_8  and  C_9
REMARK    5  A    between atoms: C_9  and  N_10
REMARK    6  A    between atoms: N_10  and  C_11
REMARK                            x       y       z     vdW  Elec       q    Type
REMARK                         _______ _______ _______ _____ _____    ______ ____
ROOT
ATOM      1  C   UNL     1      46.822   7.928  13.308  0.00  0.00    +0.000 C 
ENDROOT
BRANCH   1   2
ATOM      2  C   UNL     1      46.134   6.946  12.400  0.00  0.00    +0.000 A 
ATOM      3  C   UNL     1      46.583   6.731  11.088  0.00  0.00    +0.000 A 
ATOM      4  C   UNL     1      45.934   5.814  10.252  0.00  0.00    +0.000 A 
ATOM      5  C   UNL     1      44.850   5.066  10.728  0.00  0.00    +0.000 A 
ATOM      6  C   UNL     1      44.423   5.267  12.048  0.00  0.00    +0.000 A 
ATOM      7  C   UNL     1      45.047   6.203  12.870  0.00  0.00    +0.000 A 
BRANCH   5   8
ATOM      8  C   UNL     1      44.092   4.087   9.860  0.00  0.00    +0.000 C 
BRANCH   8   9
ATOM      9  N   UNL     1      44.335   4.280   8.435  0.00  0.00    +0.000 NA
ATOM     10  H   UNL     1      44.851   5.146   8.301  0.00  0.00    +0.000 HD
BRANCH   9  11
ATOM     11  C   UNL     1      45.026   3.159   7.777  0.00  0.00    +0.000 C 
ATOM     12  C   UNL     1      45.523   2.045   8.721  0.00  0.00    +0.000 C 
ATOM     13  C   UNL     1      46.333   0.978   7.982  0.00  0.00    +0.000 C 
ATOM     14  C   UNL     1      47.509   1.604   7.246  0.00  0.00    +0.000 C 
ATOM     15  C   UNL     1      47.031   2.670   6.267  0.00  0.00    +0.000 C 
ATOM     16  C   UNL     1      46.202   3.746   6.968  0.00  0.00    +0.000 C 
ENDBRANCH   9  11
ENDBRANCH   8   9
ENDBRANCH   5   8
ENDBRANCH   1   2
BRANCH   1  19
ATOM     17  O   UNL     1      49.198   6.475  13.504  0.00  0.00    +0.000 OA
ATOM     18  C   UNL     1      48.525   6.684  14.532  0.00  0.00    +0.000 C 
ATOM     19  N   UNL     1      47.337   7.357  14.516  0.00  0.00    +0.000 N 
ATOM     20  H   UNL     1      46.922   7.660  15.390  0.00  0.00    +0.000 HD
BRANCH  18  21
ATOM     21  C   UNL     1      48.952   6.187  15.832  0.00  0.00    +0.000 A 
ATOM     22  C   UNL     1      49.942   6.795  16.588  0.00  0.00    +0.000 A 
ATOM     23  S   UNL     1      50.177   6.030  18.105  0.00  0.00    +0.000 S 
ATOM     24  C   UNL     1      48.967   4.876  17.777  0.00  0.00    +0.000 A 
ATOM     25  N   UNL     1      48.633   3.913  18.675  0.00  0.00    +0.000 NA
ATOM     26  C   UNL     1      47.692   3.121  18.279  0.00  0.00    +0.000 A 
ATOM     27  N   UNL     1      47.059   3.197  17.067  0.00  0.00    +0.000 N 
ATOM     28  C   UNL     1      47.403   4.095  16.099  0.00  0.00    +0.000 A 
ATOM     29  O   UNL     1      46.929   4.000  14.970  0.00  0.00    +0.000 OA
ATOM     30  C   UNL     1      48.419   5.046  16.520  0.00  0.00    +0.000 A 
ATOM     31  H   UNL     1      46.369   2.508  16.803  0.00  0.00    +0.000 HD
ENDBRANCH  18  21
ENDBRANCH   1  19
TORSDOF 6
ENDMDL
MODEL 2
REMARK VINA RESULT:    -7.865      1.625      1.845
REMARK INTER + INTRA:         -11.868
REMARK INTER:                 -10.924
REMARK INTRA:                  -0.944
REMARK UNBOUND:                -1.245
REMARK  Name = 
REMARK  6 active torsions:
REMARK  status: ('A' for Active; 'I' for Inactive)
REMARK    1  A    between atoms: C_2  and  C_19
REMARK    2  A    between atoms: N_3  and  C_4
REMARK    3  A    between atoms: C_4  and  C_5
REMARK    4  A    between atoms: C_8  and  C_9
REMARK    5  A    between atoms: C_9  and  N_10
REMARK    6  A    between atoms: N_10  and  C_11
REMARK                            x       y       z     vdW  Elec       q    Type
REMARK                         _______ _______ _______ _____ _____    ______ ____
ROOT
ATOM      1  C   UNL     1      48.320   6.648  13.538  0.00  0.00    +0.000 C 
ENDROOT
BRANCH   1   2
ATOM      2  C   UNL     1      47.180   6.042  12.766  0.00  0.00    +0.000 A 
ATOM      3  C   UNL     1      46.757   6.588  11.545  0.00  0.00    +0.000 A 
ATOM      4  C   UNL     1      45.694   6.015  10.837  0.00  0.00    +0.000 A 
ATOM      5  C   UNL     1      45.063   4.860  11.317  0.00  0.00    +0.000 A 
ATOM      6  C   UNL     1      45.508   4.305  12.524  0.00  0.00    +0.000 A 
ATOM      7  C   UNL     1      46.544   4.893  13.247  0.00  0.00    +0.000 A 
BRANCH   5   8
ATOM      8  C   UNL     1      43.890   4.219  10.610  0.00  0.00    +0.000 C 
BRANCH   8   9
ATOM      9  N   UNL     1      43.885   4.466   9.172  0.00  0.00    +0.000 NA
ATOM     10  H   UNL     1      44.312   5.371   8.990  0.00  0.00    +0.000 HD
BRANCH   9  11
ATOM     11  C   UNL     1      44.536   3.416   8.371  0.00  0.00    +0.000 C 
ATOM     12  C   UNL     1      44.995   2.174   9.160  0.00  0.00    +0.000 C 
ATOM     13  C   UNL     1      45.766   1.183   8.286  0.00  0.00    +0.000 C 
ATOM     14  C   UNL     1      46.962   1.858   7.628  0.00  0.00    +0.000 C 
ATOM     15  C   UNL     1      46.519   3.057   6.798  0.00  0.00    +0.000 C 
ATOM     16  C   UNL     1      45.729   4.061   7.637  0.00  0.00    +0.000 C 
ENDBRANCH   9  11
ENDBRANCH   8   9
ENDBRANCH   5   8
ENDBRANCH   1   2
BRANCH   1  19
ATOM     17  O   UNL     1      50.344   6.636  15.462  0.00  0.00    +0.000 OA
ATOM     18  C   UNL     1      49.156   6.733  15.827  0.00  0.00    +0.000 C 
ATOM     19  N   UNL     1      48.108   6.715  14.953  0.00  0.00    +0.000 N 
ATOM     20  H   UNL     1      47.184   6.979  15.274  0.00  0.00    +0.000 HD
BRANCH  18  21
ATOM     21  C   UNL     1      48.803   6.841  17.235  0.00  0.00    +0.000 A 
ATOM     22  C   UNL     1      48.336   8.013  17.812  0.00  0.00    +0.000 A 
ATOM     23  S   UNL     1      47.932   7.818  19.467  0.00  0.00    +0.000 S 
ATOM     24  C   UNL     1      48.373   6.172  19.441  0.00  0.00    +0.000 A 
ATOM     25  N   UNL     1      48.259   5.383  20.541  0.00  0.00    +0.000 NA
ATOM     26  C   UNL     1      48.627   4.158  20.357  0.00  0.00    +0.000 A 
ATOM     27  N   UNL     1      49.105   3.650  19.178  0.00  0.00    +0.000 N 
ATOM     28  C   UNL     1      49.309   4.412  18.064  0.00  0.00    +0.000 A 
ATOM     29  O   UNL     1      49.907   3.948  17.098  0.00  0.00    +0.000 OA
ATOM     30  C   UNL     1      48.855   5.786  18.206  0.00  0.00    +0.000 A 
ATOM     31  H   UNL     1      49.427   2.694  19.123  0.00  0.00    +0.000 HD
ENDBRANCH  18  21
ENDBRANCH   1  19
TORSDOF 6
ENDMDL
MODEL 3
REMARK VINA RESULT:    -7.843      2.037      2.630
REMARK INTER + INTRA:         -11.838
REMARK INTER:                 -10.712
REMARK INTRA:                  -1.126
REMARK UNBOUND:                -1.245
REMARK  Name = 
REMARK  6 active torsions:
REMARK  status: ('A' for Active; 'I' for Inactive)
REMARK    1  A    between atoms: C_2  and  C_19
REMARK    2  A    between atoms: N_3  and  C_4
REMARK    3  A    between atoms: C_4  and  C_5
REMARK    4  A    between atoms: C_8  and  C_9
REMARK    5  A    between atoms: C_9  and  N_10
REMARK    6  A    between atoms: N_10  and  C_11
REMARK                            x       y       z     vdW  Elec       q    Type
REMARK                         _______ _______ _______ _____ _____    ______ ____
ROOT
ATOM      1  C   UNL     1      47.719   6.995  13.626  0.00  0.00    +0.000 C 
ENDROOT
BRANCH   1   2
ATOM      2  C   UNL     1      46.778   6.198  12.764  0.00  0.00    +0.000 A 
ATOM      3  C   UNL     1      46.045   5.123  13.290  0.00  0.00    +0.000 A 
ATOM      4  C   UNL     1      45.174   4.388  12.477  0.00  0.00    +0.000 A 
ATOM      5  C   UNL     1      44.989   4.742  11.134  0.00  0.00    +0.000 A 
ATOM      6  C   UNL     1      45.706   5.832  10.623  0.00  0.00    +0.000 A 
ATOM      7  C   UNL     1      46.598   6.545  11.422  0.00  0.00    +0.000 A 
BRANCH   5   8
ATOM      8  C   UNL     1      44.087   3.964  10.204  0.00  0.00    +0.000 C 
BRANCH   8   9
ATOM      9  N   UNL     1      44.294   4.293   8.798  0.00  0.00    +0.000 NA
ATOM     10  H   UNL     1      44.812   5.167   8.735  0.00  0.00    +0.000 HD
BRANCH   9  11
ATOM     11  C   UNL     1      44.963   3.239   8.016  0.00  0.00    +0.000 C 
ATOM     12  C   UNL     1      45.460   2.029   8.833  0.00  0.00    +0.000 C 
ATOM     13  C   UNL     1      46.246   1.035   7.976  0.00  0.00    +0.000 C 
ATOM     14  C   UNL     1      47.419   1.722   7.289  0.00  0.00    +0.000 C 
ATOM     15  C   UNL     1      46.939   2.888   6.434  0.00  0.00    +0.000 C 
ATOM     16  C   UNL     1      46.134   3.894   7.255  0.00  0.00    +0.000 C 
ENDBRANCH   9  11
ENDBRANCH   8   9
ENDBRANCH   5   8
ENDBRANCH   1   2
BRANCH   1  19
ATOM     17  O   UNL     1      50.039   6.656  15.141  0.00  0.00    +0.000 OA
ATOM     18  C   UNL     1      48.928   6.476  15.678  0.00  0.00    +0.000 C 
ATOM     19  N   UNL     1      47.750   6.590  15.000  0.00  0.00    +0.000 N 
ATOM     20  H   UNL     1      46.877   6.616  15.514  0.00  0.00    +0.000 HD
BRANCH  18  21
ATOM     21  C   UNL     1      48.817   6.093  17.078  0.00  0.00    +0.000 A 
ATOM     22  C   UNL     1      49.049   4.804  17.533  0.00  0.00    +0.000 A 
ATOM     23  S   UNL     1      48.917   4.671  19.237  0.00  0.00    +0.000 S 
ATOM     24  C   UNL     1      48.546   6.326  19.396  0.00  0.00    +0.000 A 
ATOM     25  N   UNL     1      48.326   6.897  20.609  0.00  0.00    +0.000 NA
ATOM     26  C   UNL     1      48.065   8.162  20.562  0.00  0.00    +0.000 A 
ATOM     27  N   UNL     1      47.995   8.907  19.414  0.00  0.00    +0.000 N 
ATOM     28  C   UNL     1      48.134   8.372  18.166  0.00  0.00    +0.000 A 
ATOM     29  O   UNL     1      47.882   9.048  17.173  0.00  0.00    +0.000 OA
ATOM     30  C   UNL     1      48.487   6.962  18.172  0.00  0.00    +0.000 A 
ATOM     31  H   UNL     1      47.731   9.881  19.449  0.00  0.00    +0.000 HD
ENDBRANCH  18  21
ENDBRANCH   1  19
TORSDOF 6
ENDMDL
MODEL 4
REMARK VINA RESULT:    -7.666      2.063      2.676
REMARK INTER + INTRA:         -11.600
REMARK INTER:                 -10.710
REMARK INTRA:                  -0.889
REMARK UNBOUND:                -1.245
REMARK  Name = 
REMARK  6 active torsions:
REMARK  status: ('A' for Active; 'I' for Inactive)
REMARK    1  A    between atoms: C_2  and  C_19
REMARK    2  A    between atoms: N_3  and  C_4
REMARK    3  A    between atoms: C_4  and  C_5
REMARK    4  A    between atoms: C_8  and  C_9
REMARK    5  A    between atoms: C_9  and  N_10
REMARK    6  A    between atoms: N_10  and  C_11
REMARK                            x       y       z     vdW  Elec       q    Type
REMARK                         _______ _______ _______ _____ _____    ______ ____
ROOT
ATOM      1  C   UNL     1      46.233   4.481  15.204  0.00  0.00    +0.000 C 
ENDROOT
BRANCH   1   2
ATOM      2  C   UNL     1      46.106   4.723  13.724  0.00  0.00    +0.000 A 
ATOM      3  C   UNL     1      46.622   5.885  13.130  0.00  0.00    +0.000 A 
ATOM      4  C   UNL     1      46.497   6.098  11.752  0.00  0.00    +0.000 A 
ATOM      5  C   UNL     1      45.890   5.133  10.938  0.00  0.00    +0.000 A 
ATOM      6  C   UNL     1      45.400   3.963  11.534  0.00  0.00    +0.000 A 
ATOM      7  C   UNL     1      45.495   3.764  12.910  0.00  0.00    +0.000 A 
BRANCH   5   8
ATOM      8  C   UNL     1      45.699   5.326   9.451  0.00  0.00    +0.000 C 
BRANCH   8   9
ATOM      9  N   UNL     1      44.682   4.447   8.885  0.00  0.00    +0.000 NA
ATOM     10  H   UNL     1      44.021   5.006   8.351  0.00  0.00    +0.000 HD
BRANCH   9  11
ATOM     11  C   UNL     1      45.214   3.348   8.062  0.00  0.00    +0.000 C 
ATOM     12  C   UNL     1      45.575   2.062   8.832  0.00  0.00    +0.000 C 
ATOM     13  C   UNL     1      46.230   1.012   7.933  0.00  0.00    +0.000 C 
ATOM     14  C   UNL     1      47.467   1.579   7.251  0.00  0.00    +0.000 C 
ATOM     15  C   UNL     1      47.119   2.821   6.440  0.00  0.00    +0.000 C 
ATOM     16  C   UNL     1      46.445   3.887   7.304  0.00  0.00    +0.000 C 
ENDBRANCH   9  11
ENDBRANCH   8   9
ENDBRANCH   5   8
ENDBRANCH   1   2
BRANCH   1  19
ATOM     17  O   UNL     1      46.943   4.465  17.904  0.00  0.00    +0.000 OA
ATOM     18  C   UNL     1      47.839   4.495  17.037  0.00  0.00    +0.000 C 
ATOM     19  N   UNL     1      47.576   4.538  15.699  0.00  0.00    +0.000 N 
ATOM     20  H   UNL     1      48.325   4.377  15.036  0.00  0.00    +0.000 HD
BRANCH  18  21
ATOM     21  C   UNL     1      49.247   4.522  17.405  0.00  0.00    +0.000 A 
ATOM     22  C   UNL     1      49.878   5.650  17.908  0.00  0.00    +0.000 A 
ATOM     23  S   UNL     1      51.517   5.361  18.321  0.00  0.00    +0.000 S 
ATOM     24  C   UNL     1      51.413   3.731  17.837  0.00  0.00    +0.000 A 
ATOM     25  N   UNL     1      52.470   2.884  17.939  0.00  0.00    +0.000 NA
ATOM     26  C   UNL     1      52.228   1.680  17.537  0.00  0.00    +0.000 A 
ATOM     27  N   UNL     1      51.029   1.245  17.035  0.00  0.00    +0.000 N 
ATOM     28  C   UNL     1      49.957   2.068  16.842  0.00  0.00    +0.000 A 
ATOM     29  O   UNL     1      48.975   1.669  16.223  0.00  0.00    +0.000 OA
ATOM     30  C   UNL     1      50.164   3.421  17.333  0.00  0.00    +0.000 A 
ATOM     31  H   UNL     1      50.929   0.302  16.688  0.00  0.00    +0.000 HD
ENDBRANCH  18  21
ENDBRANCH   1  19
TORSDOF 6
ENDMDL
MODEL 5
REMARK VINA RESULT:    -7.364      2.664      4.597
REMARK INTER + INTRA:         -11.192
REMARK INTER:                 -10.060
REMARK INTRA:                  -1.133
REMARK UNBOUND:                -1.245
REMARK  Name = 
REMARK  6 active torsions:
REMARK  status: ('A' for Active; 'I' for Inactive)
REMARK    1  A    between atoms: C_2  and  C_19
REMARK    2  A    between atoms: N_3  and  C_4
REMARK    3  A    between atoms: C_4  and  C_5
REMARK    4  A    between atoms: C_8  and  C_9
REMARK    5  A    between atoms: C_9  and  N_10
REMARK    6  A    between atoms: N_10  and  C_11
REMARK                            x       y       z     vdW  Elec       q    Type
REMARK                         _______ _______ _______ _____ _____    ______ ____
ROOT
ATOM      1  C   UNL     1      47.474   5.652  14.290  0.00  0.00    +0.000 C 
ENDROOT
BRANCH   1   2
ATOM      2  C   UNL     1      46.602   5.219  13.143  0.00  0.00    +0.000 A 
ATOM      3  C   UNL     1      45.976   3.964  13.139  0.00  0.00    +0.000 A 
ATOM      4  C   UNL     1      45.167   3.572  12.065  0.00  0.00    +0.000 A 
ATOM      5  C   UNL     1      44.937   4.447  10.995  0.00  0.00    +0.000 A 
ATOM      6  C   UNL     1      45.545   5.710  11.018  0.00  0.00    +0.000 A 
ATOM      7  C   UNL     1      46.377   6.089  12.071  0.00  0.00    +0.000 A 
BRANCH   5   8
ATOM      8  C   UNL     1      44.101   4.065   9.796  0.00  0.00    +0.000 C 
BRANCH   8   9
ATOM      9  N   UNL     1      44.718   4.434   8.526  0.00  0.00    +0.000 NA
ATOM     10  H   UNL     1      45.414   5.157   8.694  0.00  0.00    +0.000 HD
BRANCH   9  11
ATOM     11  C   UNL     1      45.313   3.308   7.787  0.00  0.00    +0.000 C 
ATOM     12  C   UNL     1      45.686   2.081   8.644  0.00  0.00    +0.000 C 
ATOM     13  C   UNL     1      46.405   1.003   7.831  0.00  0.00    +0.000 C 
ATOM     14  C   UNL     1      47.647   1.570   7.158  0.00  0.00    +0.000 C 
ATOM     15  C   UNL     1      47.288   2.750   6.263  0.00  0.00    +0.000 C 
ATOM     16  C   UNL     1      46.552   3.842   7.040  0.00  0.00    +0.000 C 
ENDBRANCH   9  11
ENDBRANCH   8   9
ENDBRANCH   5   8
ENDBRANCH   1   2
BRANCH   1  19
ATOM     17  O   UNL     1      49.945   6.841  14.814  0.00  0.00    +0.000 OA
ATOM     18  C   UNL     1      48.955   7.565  14.589  0.00  0.00    +0.000 C 
ATOM     19  N   UNL     1      47.707   7.064  14.356  0.00  0.00    +0.000 N 
ATOM     20  H   UNL     1      46.981   7.674  14.000  0.00  0.00    +0.000 HD
BRANCH  18  21
ATOM     21  C   UNL     1      49.062   9.017  14.593  0.00  0.00    +0.000 A 
ATOM     22  C   UNL     1      49.124   9.769  15.756  0.00  0.00    +0.000 A 
ATOM     23  S   UNL     1      49.322  11.445  15.449  0.00  0.00    +0.000 S 
ATOM     24  C   UNL     1      49.326  11.195  13.764  0.00  0.00    +0.000 A 
ATOM     25  N   UNL     1      49.478  12.222  12.888  0.00  0.00    +0.000 NA
ATOM     26  C   UNL     1      49.467  11.868  11.646  0.00  0.00    +0.000 A 
ATOM     27  N   UNL     1      49.310  10.583  11.196  0.00  0.00    +0.000 N 
ATOM     28  C   UNL     1      49.080   9.524  12.027  0.00  0.00    +0.000 A 
ATOM     29  O   UNL     1      48.767   8.432  11.563  0.00  0.00    +0.000 OA
ATOM     30  C   UNL     1      49.142   9.866  13.438  0.00  0.00    +0.000 A 
ATOM     31  H   UNL     1      49.256  10.387  10.207  0.00  0.00    +0.000 HD
ENDBRANCH  18  21
ENDBRANCH   1  19
TORSDOF 6
ENDMDL
MODEL 6
REMARK VINA RESULT:    -7.296      3.548      5.712
REMARK INTER + INTRA:         -11.100
REMARK INTER:                 -10.378
REMARK INTRA:                  -0.722
REMARK UNBOUND:                -1.245
REMARK  Name = 
REMARK  6 active torsions:
REMARK  status: ('A' for Active; 'I' for Inactive)
REMARK    1  A    between atoms: C_2  and  C_19
REMARK    2  A    between atoms: N_3  and  C_4
REMARK    3  A    between atoms: C_4  and  C_5
REMARK    4  A    between atoms: C_8  and  C_9
REMARK    5  A    between atoms: C_9  and  N_10
REMARK    6  A    between atoms: N_10  and  C_11
REMARK                            x       y       z     vdW  Elec       q    Type
REMARK                         _______ _______ _______ _____ _____    ______ ____
ROOT
ATOM      1  C   UNL     1      47.164   6.665  13.441  0.00  0.00    +0.000 C 
ENDROOT
BRANCH   1   2
ATOM      2  C   UNL     1      46.381   5.722  12.569  0.00  0.00    +0.000 A 
ATOM      3  C   UNL     1      45.980   4.461  13.037  0.00  0.00    +0.000 A 
ATOM      4  C   UNL     1      45.252   3.592  12.215  0.00  0.00    +0.000 A 
ATOM      5  C   UNL     1      44.876   3.986  10.925  0.00  0.00    +0.000 A 
ATOM      6  C   UNL     1      45.258   5.257  10.473  0.00  0.00    +0.000 A 
ATOM      7  C   UNL     1      46.011   6.110  11.277  0.00  0.00    +0.000 A 
BRANCH   5   8
ATOM      8  C   UNL     1      44.119   3.077   9.984  0.00  0.00    +0.000 C 
BRANCH   8   9
ATOM      9  N   UNL     1      44.910   1.939   9.528  0.00  0.00    +0.000 NA
ATOM     10  H   UNL     1      44.285   1.232   9.148  0.00  0.00    +0.000 HD
BRANCH   9  11
ATOM     11  C   UNL     1      45.960   2.277   8.553  0.00  0.00    +0.000 C 
ATOM     12  C   UNL     1      45.541   3.273   7.452  0.00  0.00    +0.000 C 
ATOM     13  C   UNL     1      46.642   3.484   6.411  0.00  0.00    +0.000 C 
ATOM     14  C   UNL     1      47.059   2.159   5.788  0.00  0.00    +0.000 C 
ATOM     15  C   UNL     1      47.529   1.180   6.859  0.00  0.00    +0.000 C 
ATOM     16  C   UNL     1      46.458   0.959   7.927  0.00  0.00    +0.000 C 
ENDBRANCH   9  11
ENDBRANCH   8   9
ENDBRANCH   5   8
ENDBRANCH   1   2
BRANCH   1  19
ATOM     17  O   UNL     1      48.553   8.378  11.729  0.00  0.00    +0.000 OA
ATOM     18  C   UNL     1      47.569   8.812  12.360  0.00  0.00    +0.000 C 
ATOM     19  N   UNL     1      46.858   8.050  13.240  0.00  0.00    +0.000 N 
ATOM     20  H   UNL     1      45.967   8.385  13.586  0.00  0.00    +0.000 HD
BRANCH  18  21
ATOM     21  C   UNL     1      47.131  10.193  12.222  0.00  0.00    +0.000 A 
ATOM     22  C   UNL     1      47.942  11.279  12.515  0.00  0.00    +0.000 A 
ATOM     23  S   UNL     1      47.180  12.780  12.185  0.00  0.00    +0.000 S 
ATOM     24  C   UNL     1      45.759  12.008  11.650  0.00  0.00    +0.000 A 
ATOM     25  N   UNL     1      44.687  12.711  11.200  0.00  0.00    +0.000 NA
ATOM     26  C   UNL     1      43.691  11.979  10.824  0.00  0.00    +0.000 A 
ATOM     27  N   UNL     1      43.663  10.610  10.863  0.00  0.00    +0.000 N 
ATOM     28  C   UNL     1      44.679   9.856  11.373  0.00  0.00    +0.000 A 
ATOM     29  O   UNL     1      44.526   8.651  11.550  0.00  0.00    +0.000 OA
ATOM     30  C   UNL     1      45.847  10.633  11.756  0.00  0.00    +0.000 A 
ATOM     31  H   UNL     1      42.827  10.106  10.604  0.00  0.00    +0.000 HD
ENDBRANCH  18  21
ENDBRANCH   1  19
TORSDOF 6
ENDMDL
MODEL 7
REMARK VINA RESULT:    -7.267      2.732      3.703
REMARK INTER + INTRA:         -11.061
REMARK INTER:                 -10.271
REMARK INTRA:                  -0.790
REMARK UNBOUND:                -1.245
REMARK  Name = 
REMARK  6 active torsions:
REMARK  status: ('A' for Active; 'I' for Inactive)
REMARK    1  A    between atoms: C_2  and  C_19
REMARK    2  A    between atoms: N_3  and  C_4
REMARK    3  A    between atoms: C_4  and  C_5
REMARK    4  A    between atoms: C_8  and  C_9
REMARK    5  A    between atoms: C_9  and  N_10
REMARK    6  A    between atoms: N_10  and  C_11
REMARK                            x       y       z     vdW  Elec       q    Type
REMARK                         _______ _______ _______ _____ _____    ______ ____
ROOT
ATOM      1  C   UNL     1      47.379   5.249  14.408  0.00  0.00    +0.000 C 
ENDROOT
BRANCH   1   2
ATOM      2  C   UNL     1      46.532   4.963  13.198  0.00  0.00    +0.000 A 
ATOM      3  C   UNL     1      45.857   3.742  13.055  0.00  0.00    +0.000 A 
ATOM      4  C   UNL     1      45.072   3.488  11.924  0.00  0.00    +0.000 A 
ATOM      5  C   UNL     1      44.916   4.467  10.935  0.00  0.00    +0.000 A 
ATOM      6  C   UNL     1      45.574   5.695  11.096  0.00  0.00    +0.000 A 
ATOM      7  C   UNL     1      46.381   5.937  12.206  0.00  0.00    +0.000 A 
BRANCH   5   8
ATOM      8  C   UNL     1      44.109   4.235   9.678  0.00  0.00    +0.000 C 
BRANCH   8   9
ATOM      9  N   UNL     1      44.853   4.527   8.458  0.00  0.00    +0.000 NA
ATOM     10  H   UNL     1      45.617   5.160   8.679  0.00  0.00    +0.000 HD
BRANCH   9  11
ATOM     11  C   UNL     1      45.355   3.337   7.751  0.00  0.00    +0.000 C 
ATOM     12  C   UNL     1      45.731   2.144   8.653  0.00  0.00    +0.000 C 
ATOM     13  C   UNL     1      46.354   0.993   7.862  0.00  0.00    +0.000 C 
ATOM     14  C   UNL     1      47.575   1.468   7.086  0.00  0.00    +0.000 C 
ATOM     15  C   UNL     1      47.210   2.612   6.148  0.00  0.00    +0.000 C 
ATOM     16  C   UNL     1      46.567   3.775   6.903  0.00  0.00    +0.000 C 
ENDBRANCH   9  11
ENDBRANCH   8   9
ENDBRANCH   5   8
ENDBRANCH   1   2
BRANCH   1  19
ATOM     17  O   UNL     1      49.624   6.241  15.740  0.00  0.00    +0.000 OA
ATOM     18  C   UNL     1      48.800   7.041  15.254  0.00  0.00    +0.000 C 
ATOM     19  N   UNL     1      47.662   6.638  14.617  0.00  0.00    +0.000 N 
ATOM     20  H   UNL     1      47.123   7.310  14.084  0.00  0.00    +0.000 HD
BRANCH  18  21
ATOM     21  C   UNL     1      48.985   8.480  15.368  0.00  0.00    +0.000 A 
ATOM     22  C   UNL     1      49.524   9.258  14.355  0.00  0.00    +0.000 A 
ATOM     23  S   UNL     1      49.549  10.927  14.745  0.00  0.00    +0.000 S 
ATOM     24  C   UNL     1      48.843  10.641  16.269  0.00  0.00    +0.000 A 
ATOM     25  N   UNL     1      48.564  11.653  17.131  0.00  0.00    +0.000 NA
ATOM     26  C   UNL     1      48.024  11.273  18.241  0.00  0.00    +0.000 A 
ATOM     27  N   UNL     1      47.744   9.974  18.574  0.00  0.00    +0.000 N 
ATOM     28  C   UNL     1      48.070   8.912  17.781  0.00  0.00    +0.000 A 
ATOM     29  O   UNL     1      47.962   7.766  18.206  0.00  0.00    +0.000 OA
ATOM     30  C   UNL     1      48.627   9.295  16.494  0.00  0.00    +0.000 A 
ATOM     31  H   UNL     1      47.372   9.745  19.485  0.00  0.00    +0.000 HD
ENDBRANCH  18  21
ENDBRANCH   1  19
TORSDOF 6
ENDMDL
MODEL 8
REMARK VINA RESULT:    -7.155      2.519      2.994
REMARK INTER + INTRA:         -10.909
REMARK INTER:                 -10.012
REMARK INTRA:                  -0.897
REMARK UNBOUND:                -1.245
REMARK  Name = 
REMARK  6 active torsions:
REMARK  status: ('A' for Active; 'I' for Inactive)
REMARK    1  A    between atoms: C_2  and  C_19
REMARK    2  A    between atoms: N_3  and  C_4
REMARK    3  A    between atoms: C_4  and  C_5
REMARK    4  A    between atoms: C_8  and  C_9
REMARK    5  A    between atoms: C_9  and  N_10
REMARK    6  A    between atoms: N_10  and  C_11
REMARK                            x       y       z     vdW  Elec       q    Type
REMARK                         _______ _______ _______ _____ _____    ______ ____
ROOT
ATOM      1  C   UNL     1      47.324   4.174  15.021  0.00  0.00    +0.000 C 
ENDROOT
BRANCH   1   2
ATOM      2  C   UNL     1      46.572   4.325  13.726  0.00  0.00    +0.000 A 
ATOM      3  C   UNL     1      46.497   5.563  13.070  0.00  0.00    +0.000 A 
ATOM      4  C   UNL     1      45.793   5.691  11.866  0.00  0.00    +0.000 A 
ATOM      5  C   UNL     1      45.187   4.573  11.277  0.00  0.00    +0.000 A 
ATOM      6  C   UNL     1      45.288   3.335  11.926  0.00  0.00    +0.000 A 
ATOM      7  C   UNL     1      45.961   3.212  13.140  0.00  0.00    +0.000 A 
BRANCH   5   8
ATOM      8  C   UNL     1      44.388   4.660   9.997  0.00  0.00    +0.000 C 
BRANCH   8   9
ATOM      9  N   UNL     1      43.960   3.357   9.500  0.00  0.00    +0.000 NA
ATOM     10  H   UNL     1      42.983   3.413   9.222  0.00  0.00    +0.000 HD
BRANCH   9  11
ATOM     11  C   UNL     1      44.780   2.825   8.399  0.00  0.00    +0.000 C 
ATOM     12  C   UNL     1      45.665   1.615   8.761  0.00  0.00    +0.000 C 
ATOM     13  C   UNL     1      46.573   1.194   7.605  0.00  0.00    +0.000 C 
ATOM     14  C   UNL     1      47.439   2.358   7.144  0.00  0.00    +0.000 C 
ATOM     15  C   UNL     1      46.577   3.544   6.730  0.00  0.00    +0.000 C 
ATOM     16  C   UNL     1      45.643   3.982   7.857  0.00  0.00    +0.000 C 
ENDBRANCH   9  11
ENDBRANCH   8   9
ENDBRANCH   5   8
ENDBRANCH   1   2
BRANCH   1  19
ATOM     17  O   UNL     1      49.486   4.790  16.676  0.00  0.00    +0.000 OA
ATOM     18  C   UNL     1      48.571   5.624  16.533  0.00  0.00    +0.000 C 
ATOM     19  N   UNL     1      47.466   5.388  15.768  0.00  0.00    +0.000 N 
ATOM     20  H   UNL     1      46.845   6.154  15.535  0.00  0.00    +0.000 HD
BRANCH  18  21
ATOM     21  C   UNL     1      48.607   6.912  17.211  0.00  0.00    +0.000 A 
ATOM     22  C   UNL     1      48.962   8.093  16.577  0.00  0.00    +0.000 A 
ATOM     23  S   UNL     1      48.840   9.458  17.607  0.00  0.00    +0.000 S 
ATOM     24  C   UNL     1      48.315   8.498  18.913  0.00  0.00    +0.000 A 
ATOM     25  N   UNL     1      48.008   9.039  20.121  0.00  0.00    +0.000 NA
ATOM     26  C   UNL     1      47.619   8.180  21.004  0.00  0.00    +0.000 A 
ATOM     27  N   UNL     1      47.515   6.830  20.795  0.00  0.00    +0.000 N 
ATOM     28  C   UNL     1      47.879   6.224  19.628  0.00  0.00    +0.000 A 
ATOM     29  O   UNL     1      47.937   5.000  19.558  0.00  0.00    +0.000 OA
ATOM     30  C   UNL     1      48.269   7.158  18.584  0.00  0.00    +0.000 A 
ATOM     31  H   UNL     1      47.256   6.211  21.551  0.00  0.00    +0.000 HD
ENDBRANCH  18  21
ENDBRANCH   1  19
TORSDOF 6
ENDMDL
MODEL 9
REMARK VINA RESULT:    -7.054      2.968      4.119
REMARK INTER + INTRA:         -10.773
REMARK INTER:                  -9.587
REMARK INTRA:                  -1.186
REMARK UNBOUND:                -1.245
REMARK  Name = 
REMARK  6 active torsions:
REMARK  status: ('A' for Active; 'I' for Inactive)
REMARK    1  A    between atoms: C_2  and  C_19
REMARK    2  A    between atoms: N_3  and  C_4
REMARK    3  A    between atoms: C_4  and  C_5
REMARK    4  A    between atoms: C_8  and  C_9
REMARK    5  A    between atoms: C_9  and  N_10
REMARK    6  A    between atoms: N_10  and  C_11
REMARK                            x       y       z     vdW  Elec       q    Type
REMARK                         _______ _______ _______ _____ _____    ______ ____
ROOT
ATOM      1  C   UNL     1      48.016   4.863  16.007  0.00  0.00    +0.000 C 
ENDROOT
BRANCH   1   2
ATOM      2  C   UNL     1      47.401   5.135  14.661  0.00  0.00    +0.000 A 
ATOM      3  C   UNL     1      46.405   4.298  14.134  0.00  0.00    +0.000 A 
ATOM      4  C   UNL     1      45.842   4.562  12.879  0.00  0.00    +0.000 A 
ATOM      5  C   UNL     1      46.234   5.691  12.149  0.00  0.00    +0.000 A 
ATOM      6  C   UNL     1      47.211   6.536  12.693  0.00  0.00    +0.000 A 
ATOM      7  C   UNL     1      47.797   6.258  13.926  0.00  0.00    +0.000 A 
BRANCH   5   8
ATOM      8  C   UNL     1      45.683   6.005  10.777  0.00  0.00    +0.000 C 
BRANCH   8   9
ATOM      9  N   UNL     1      44.423   5.325  10.497  0.00  0.00    +0.000 NA
ATOM     10  H   UNL     1      43.725   6.017  10.232  0.00  0.00    +0.000 HD
BRANCH   9  11
ATOM     11  C   UNL     1      44.514   4.267   9.478  0.00  0.00    +0.000 C 
ATOM     12  C   UNL     1      44.591   2.828  10.028  0.00  0.00    +0.000 C 
ATOM     13  C   UNL     1      44.803   1.795   8.919  0.00  0.00    +0.000 C 
ATOM     14  C   UNL     1      46.054   2.116   8.112  0.00  0.00    +0.000 C 
ATOM     15  C   UNL     1      45.969   3.515   7.516  0.00  0.00    +0.000 C 
ATOM     16  C   UNL     1      45.740   4.574   8.594  0.00  0.00    +0.000 C 
ENDBRANCH   9  11
ENDBRANCH   8   9
ENDBRANCH   5   8
ENDBRANCH   1   2
BRANCH   1  19
ATOM     17  O   UNL     1      49.860   6.061  17.727  0.00  0.00    +0.000 OA
ATOM     18  C   UNL     1      48.660   6.392  17.794  0.00  0.00    +0.000 C 
ATOM     19  N   UNL     1      47.692   5.832  17.011  0.00  0.00    +0.000 N 
ATOM     20  H   UNL     1      46.773   6.257  16.971  0.00  0.00    +0.000 HD
BRANCH  18  21
ATOM     21  C   UNL     1      48.201   7.389  18.749  0.00  0.00    +0.000 A 
ATOM     22  C   UNL     1      47.999   7.115  20.093  0.00  0.00    +0.000 A 
ATOM     23  S   UNL     1      47.531   8.502  20.987  0.00  0.00    +0.000 S 
ATOM     24  C   UNL     1      47.588   9.488  19.599  0.00  0.00    +0.000 A 
ATOM     25  N   UNL     1      47.313  10.817  19.652  0.00  0.00    +0.000 NA
ATOM     26  C   UNL     1      47.408  11.426  18.516  0.00  0.00    +0.000 A 
ATOM     27  N   UNL     1      47.745  10.829  17.331  0.00  0.00    +0.000 N 
ATOM     28  C   UNL     1      47.960   9.487  17.204  0.00  0.00    +0.000 A 
ATOM     29  O   UNL     1      48.079   8.982  16.092  0.00  0.00    +0.000 OA
ATOM     30  C   UNL     1      47.921   8.768  18.468  0.00  0.00    +0.000 A 
ATOM     31  H   UNL     1      47.746  11.358  16.470  0.00  0.00    +0.000 HD
ENDBRANCH  18  21
ENDBRANCH   1  19
TORSDOF 6
ENDMDL
