MODEL 1
REMARK VINA RESULT:    -8.432      0.000      0.000
REMARK INTER + INTRA:         -12.385
REMARK INTER:                 -11.390
REMARK INTRA:                  -0.995
REMARK UNBOUND:                -0.995
REMARK  Name = 
REMARK  7 active torsions:
REMARK  status: ('A' for Active; 'I' for Inactive)
REMARK    1  A    between atoms: C_1  and  N_2
REMARK    2  A    between atoms: N_2  and  C_3
REMARK    3  A    between atoms: C_3  and  C_4
REMARK    4  A    between atoms: C_7  and  C_8
REMARK    5  A    between atoms: C_8  and  N_9
REMARK    6  A    between atoms: C_10  and  C_12
REMARK    7  A    between atoms: C_24  and  C_26
REMARK                            x       y       z     vdW  Elec       q    Type
REMARK                         _______ _______ _______ _____ _____    ______ ____
ROOT
ATOM      1  C   UNL     1      46.443   4.578  13.387  0.00  0.00    +0.000 A 
ATOM      2  C   UNL     1      47.006   5.741  12.853  0.00  0.00    +0.000 A 
ATOM      3  C   UNL     1      47.909   6.495  13.597  0.00  0.00    +0.000 A 
ATOM      4  C   UNL     1      48.238   6.130  14.911  0.00  0.00    +0.000 A 
ATOM      5  C   UNL     1      47.605   5.007  15.466  0.00  0.00    +0.000 A 
ATOM      6  C   UNL     1      46.732   4.225  14.705  0.00  0.00    +0.000 A 
ENDROOT
BRANCH   1   7
ATOM      7  C   UNL     1      45.517   3.752  12.547  0.00  0.00    +0.000 C 
BRANCH   7   9
ATOM      8  C   UNL     1      43.390   5.114  12.904  0.00  0.00    +0.000 C 
ATOM      9  N   UNL     1      44.283   4.360  12.032  0.00  0.00    +0.000 N 
ATOM     10  C   UNL     1      43.983   4.455  10.659  0.00  0.00    +0.000 C 
ATOM     11  O   UNL     1      43.049   5.144  10.245  0.00  0.00    +0.000 OA
BRANCH  10  12
ATOM     12  C   UNL     1      44.803   3.748   9.632  0.00  0.00    +0.000 A 
ATOM     13  C   UNL     1      44.777   2.365   9.453  0.00  0.00    +0.000 A 
ATOM     14  C   UNL     1      45.573   1.745   8.497  0.00  0.00    +0.000 A 
ATOM     15  C   UNL     1      46.325   2.530   7.632  0.00  0.00    +0.000 A 
ATOM     16  C   UNL     1      46.310   3.912   7.737  0.00  0.00    +0.000 A 
ATOM     17  C   UNL     1      45.563   4.524   8.747  0.00  0.00    +0.000 A 
ENDBRANCH  10  12
ENDBRANCH   7   9
ENDBRANCH   1   7
BRANCH   4  18
ATOM     18  C   UNL     1      49.245   6.893  15.742  0.00  0.00    +0.000 C 
BRANCH  18  19
ATOM     19  N   UNL     1      50.256   6.046  16.321  0.00  0.00    +0.000 N 
ATOM     20  C   UNL     1      50.188   5.607  17.618  0.00  0.00    +0.000 C 
ATOM     21  O   UNL     1      49.268   5.890  18.377  0.00  0.00    +0.000 OA
ATOM     22  H   UNL     1      51.184   6.123  15.926  0.00  0.00    +0.000 HD
BRANCH  20  23
ATOM     23  C   UNL     1      51.286   4.722  18.025  0.00  0.00    +0.000 A 
ATOM     24  C   UNL     1      52.390   5.233  18.692  0.00  0.00    +0.000 A 
ATOM     25  S   UNL     1      53.555   4.049  19.083  0.00  0.00    +0.000 S 
ATOM     26  C   UNL     1      52.633   2.818  18.352  0.00  0.00    +0.000 A 
ATOM     27  N   UNL     1      53.083   1.534  18.310  0.00  0.00    +0.000 NA
ATOM     28  C   UNL     1      52.288   0.709  17.710  0.00  0.00    +0.000 A 
ATOM     29  N   UNL     1      51.082   1.043  17.155  0.00  0.00    +0.000 N 
ATOM     30  C   UNL     1      50.562   2.321  17.216  0.00  0.00    +0.000 A 
ATOM     31  O   UNL     1      49.448   2.571  16.796  0.00  0.00    +0.000 OA
ATOM     32  C   UNL     1      51.441   3.295  17.848  0.00  0.00    +0.000 A 
ATOM     33  H   UNL     1      50.494   0.347  16.729  0.00  0.00    +0.000 HD
ENDBRANCH  20  23
ENDBRANCH  18  19
ENDBRANCH   4  18
TORSDOF 6
ENDMDL
MODEL 2
REMARK VINA RESULT:    -7.757      2.529      3.104
REMARK INTER + INTRA:         -11.473
REMARK INTER:                 -10.876
REMARK INTRA:                  -0.597
REMARK UNBOUND:                -0.995
REMARK  Name = 
REMARK  7 active torsions:
REMARK  status: ('A' for Active; 'I' for Inactive)
REMARK    1  A    between atoms: C_1  and  N_2
REMARK    2  A    between atoms: N_2  and  C_3
REMARK    3  A    between atoms: C_3  and  C_4
REMARK    4  A    between atoms: C_7  and  C_8
REMARK    5  A    between atoms: C_8  and  N_9
REMARK    6  A    between atoms: C_10  and  C_12
REMARK    7  A    between atoms: C_24  and  C_26
REMARK                            x       y       z     vdW  Elec       q    Type
REMARK                         _______ _______ _______ _____ _____    ______ ____
ROOT
ATOM      1  C   UNL     1      45.402   6.767  11.637  0.00  0.00    +0.000 A 
ATOM      2  C   UNL     1      46.655   6.234  11.958  0.00  0.00    +0.000 A 
ATOM      3  C   UNL     1      47.515   6.916  12.813  0.00  0.00    +0.000 A 
ATOM      4  C   UNL     1      47.165   8.171  13.334  0.00  0.00    +0.000 A 
ATOM      5  C   UNL     1      45.941   8.734  12.941  0.00  0.00    +0.000 A 
ATOM      6  C   UNL     1      45.058   8.030  12.118  0.00  0.00    +0.000 A 
ENDROOT
BRANCH   1   7
ATOM      7  C   UNL     1      44.470   5.989  10.761  0.00  0.00    +0.000 C 
BRANCH   7   9
ATOM      8  C   UNL     1      42.903   4.822  12.401  0.00  0.00    +0.000 C 
ATOM      9  N   UNL     1      43.843   4.769  11.287  0.00  0.00    +0.000 N 
ATOM     10  C   UNL     1      43.917   3.521  10.639  0.00  0.00    +0.000 C 
ATOM     11  O   UNL     1      43.220   2.566  10.987  0.00  0.00    +0.000 OA
BRANCH  10  12
ATOM     12  C   UNL     1      44.825   3.299   9.476  0.00  0.00    +0.000 A 
ATOM     13  C   UNL     1      45.372   4.340   8.725  0.00  0.00    +0.000 A 
ATOM     14  C   UNL     1      46.199   4.088   7.636  0.00  0.00    +0.000 A 
ATOM     15  C   UNL     1      46.572   2.779   7.360  0.00  0.00    +0.000 A 
ATOM     16  C   UNL     1      46.104   1.731   8.137  0.00  0.00    +0.000 A 
ATOM     17  C   UNL     1      45.218   1.986   9.186  0.00  0.00    +0.000 A 
ENDBRANCH  10  12
ENDBRANCH   7   9
ENDBRANCH   1   7
BRANCH   4  18
ATOM     18  C   UNL     1      48.048   8.929  14.300  0.00  0.00    +0.000 C 
BRANCH  18  19
ATOM     19  N   UNL     1      48.313   8.200  15.513  0.00  0.00    +0.000 N 
ATOM     20  C   UNL     1      49.568   7.759  15.843  0.00  0.00    +0.000 C 
ATOM     21  O   UNL     1      50.556   7.955  15.144  0.00  0.00    +0.000 OA
ATOM     22  H   UNL     1      47.541   7.667  15.892  0.00  0.00    +0.000 HD
BRANCH  20  23
ATOM     23  C   UNL     1      49.657   7.067  17.135  0.00  0.00    +0.000 A 
ATOM     24  C   UNL     1      50.309   7.660  18.206  0.00  0.00    +0.000 A 
ATOM     25  S   UNL     1      50.303   6.702  19.618  0.00  0.00    +0.000 S 
ATOM     26  C   UNL     1      49.448   5.453  18.837  0.00  0.00    +0.000 A 
ATOM     27  N   UNL     1      49.135   4.301  19.491  0.00  0.00    +0.000 NA
ATOM     28  C   UNL     1      48.501   3.435  18.771  0.00  0.00    +0.000 A 
ATOM     29  N   UNL     1      48.141   3.613  17.461  0.00  0.00    +0.000 N 
ATOM     30  C   UNL     1      48.394   4.783  16.773  0.00  0.00    +0.000 A 
ATOM     31  O   UNL     1      47.983   4.950  15.639  0.00  0.00    +0.000 OA
ATOM     32  C   UNL     1      49.143   5.774  17.531  0.00  0.00    +0.000 A 
ATOM     33  H   UNL     1      47.620   2.912  16.964  0.00  0.00    +0.000 HD
ENDBRANCH  20  23
ENDBRANCH  18  19
ENDBRANCH   4  18
TORSDOF 6
ENDMDL
MODEL 3
REMARK VINA RESULT:    -7.659      3.482     10.071
REMARK INTER + INTRA:         -11.341
REMARK INTER:                  -9.690
REMARK INTRA:                  -1.651
REMARK UNBOUND:                -0.995
REMARK  Name = 
REMARK  7 active torsions:
REMARK  status: ('A' for Active; 'I' for Inactive)
REMARK    1  A    between atoms: C_1  and  N_2
REMARK    2  A    between atoms: N_2  and  C_3
REMARK    3  A    between atoms: C_3  and  C_4
REMARK    4  A    between atoms: C_7  and  C_8
REMARK    5  A    between atoms: C_8  and  N_9
REMARK    6  A    between atoms: C_10  and  C_12
REMARK    7  A    between atoms: C_24  and  C_26
REMARK                            x       y       z     vdW  Elec       q    Type
REMARK                         _______ _______ _______ _____ _____    ______ ____
ROOT
ATOM      1  C   UNL     1      51.473   3.964  17.761  0.00  0.00    +0.000 A 
ATOM      2  C   UNL     1      50.735   5.107  17.434  0.00  0.00    +0.000 A 
ATOM      3  C   UNL     1      49.385   5.006  17.107  0.00  0.00    +0.000 A 
ATOM      4  C   UNL     1      48.750   3.757  17.054  0.00  0.00    +0.000 A 
ATOM      5  C   UNL     1      49.520   2.610  17.304  0.00  0.00    +0.000 A 
ATOM      6  C   UNL     1      50.862   2.713  17.676  0.00  0.00    +0.000 A 
ENDROOT
BRANCH   1   7
ATOM      7  C   UNL     1      52.908   4.102  18.165  0.00  0.00    +0.000 C 
BRANCH   7   9
ATOM      8  C   UNL     1      54.412   2.576  19.550  0.00  0.00    +0.000 C 
ATOM      9  N   UNL     1      53.343   3.565  19.462  0.00  0.00    +0.000 N 
ATOM     10  C   UNL     1      52.938   4.104  20.697  0.00  0.00    +0.000 C 
ATOM     11  O   UNL     1      53.470   3.771  21.758  0.00  0.00    +0.000 OA
BRANCH  10  12
ATOM     12  C   UNL     1      51.860   5.133  20.782  0.00  0.00    +0.000 A 
ATOM     13  C   UNL     1      50.536   4.827  21.102  0.00  0.00    +0.000 A 
ATOM     14  C   UNL     1      49.559   5.815  21.151  0.00  0.00    +0.000 A 
ATOM     15  C   UNL     1      49.931   7.143  20.984  0.00  0.00    +0.000 A 
ATOM     16  C   UNL     1      51.253   7.482  20.741  0.00  0.00    +0.000 A 
ATOM     17  C   UNL     1      52.217   6.478  20.623  0.00  0.00    +0.000 A 
ENDBRANCH  10  12
ENDBRANCH   7   9
ENDBRANCH   1   7
BRANCH   4  18
ATOM     18  C   UNL     1      47.277   3.603  16.745  0.00  0.00    +0.000 C 
BRANCH  18  19
ATOM     19  N   UNL     1      46.811   4.530  15.746  0.00  0.00    +0.000 N 
ATOM     20  C   UNL     1      46.848   4.242  14.407  0.00  0.00    +0.000 C 
ATOM     21  O   UNL     1      47.268   3.181  13.957  0.00  0.00    +0.000 OA
ATOM     22  H   UNL     1      46.854   5.510  15.991  0.00  0.00    +0.000 HD
BRANCH  20  23
ATOM     23  C   UNL     1      46.297   5.289  13.538  0.00  0.00    +0.000 A 
ATOM     24  C   UNL     1      47.012   6.454  13.301  0.00  0.00    +0.000 A 
ATOM     25  S   UNL     1      46.207   7.545  12.265  0.00  0.00    +0.000 S 
ATOM     26  C   UNL     1      44.865   6.507  12.118  0.00  0.00    +0.000 A 
ATOM     27  N   UNL     1      43.781   6.860  11.376  0.00  0.00    +0.000 NA
ATOM     28  C   UNL     1      42.830   5.984  11.367  0.00  0.00    +0.000 A 
ATOM     29  N   UNL     1      42.863   4.782  12.024  0.00  0.00    +0.000 N 
ATOM     30  C   UNL     1      43.961   4.360  12.749  0.00  0.00    +0.000 A 
ATOM     31  O   UNL     1      43.999   3.250  13.246  0.00  0.00    +0.000 OA
ATOM     32  C   UNL     1      45.041   5.332  12.820  0.00  0.00    +0.000 A 
ATOM     33  H   UNL     1      42.103   4.129  11.953  0.00  0.00    +0.000 HD
ENDBRANCH  20  23
ENDBRANCH  18  19
ENDBRANCH   4  18
TORSDOF 6
ENDMDL
MODEL 4
REMARK VINA RESULT:    -7.613      3.620      8.708
REMARK INTER + INTRA:         -11.279
REMARK INTER:                  -9.454
REMARK INTRA:                  -1.825
REMARK UNBOUND:                -0.995
REMARK  Name = 
REMARK  7 active torsions:
REMARK  status: ('A' for Active; 'I' for Inactive)
REMARK    1  A    between atoms: C_1  and  N_2
REMARK    2  A    between atoms: N_2  and  C_3
REMARK    3  A    between atoms: C_3  and  C_4
REMARK    4  A    between atoms: C_7  and  C_8
REMARK    5  A    between atoms: C_8  and  N_9
REMARK    6  A    between atoms: C_10  and  C_12
REMARK    7  A    between atoms: C_24  and  C_26
REMARK                            x       y       z     vdW  Elec       q    Type
REMARK                         _______ _______ _______ _____ _____    ______ ____
ROOT
ATOM      1  C   UNL     1      49.135   7.794  16.120  0.00  0.00    +0.000 A 
ATOM      2  C   UNL     1      48.241   8.781  15.695  0.00  0.00    +0.000 A 
ATOM      3  C   UNL     1      47.747   8.773  14.393  0.00  0.00    +0.000 A 
ATOM      4  C   UNL     1      48.170   7.805  13.469  0.00  0.00    +0.000 A 
ATOM      5  C   UNL     1      49.130   6.869  13.884  0.00  0.00    +0.000 A 
ATOM      6  C   UNL     1      49.592   6.849  15.202  0.00  0.00    +0.000 A 
ENDROOT
BRANCH   1   7
ATOM      7  C   UNL     1      49.608   7.789  17.541  0.00  0.00    +0.000 C 
BRANCH   7   9
ATOM      8  C   UNL     1      48.136   8.754  19.387  0.00  0.00    +0.000 C 
ATOM      9  N   UNL     1      48.629   7.614  18.622  0.00  0.00    +0.000 N 
ATOM     10  C   UNL     1      47.938   6.410  18.852  0.00  0.00    +0.000 C 
ATOM     11  O   UNL     1      46.981   6.347  19.627  0.00  0.00    +0.000 OA
BRANCH  10  12
ATOM     12  C   UNL     1      48.311   5.150  18.144  0.00  0.00    +0.000 A 
ATOM     13  C   UNL     1      49.479   4.438  18.418  0.00  0.00    +0.000 A 
ATOM     14  C   UNL     1      49.799   3.279  17.719  0.00  0.00    +0.000 A 
ATOM     15  C   UNL     1      48.884   2.764  16.810  0.00  0.00    +0.000 A 
ATOM     16  C   UNL     1      47.680   3.410  16.574  0.00  0.00    +0.000 A 
ATOM     17  C   UNL     1      47.398   4.612  17.227  0.00  0.00    +0.000 A 
ENDBRANCH  10  12
ENDBRANCH   7   9
ENDBRANCH   1   7
BRANCH   4  18
ATOM     18  C   UNL     1      47.631   7.732  12.059  0.00  0.00    +0.000 C 
BRANCH  18  19
ATOM     19  N   UNL     1      46.863   6.539  11.810  0.00  0.00    +0.000 N 
ATOM     20  C   UNL     1      45.515   6.473  12.052  0.00  0.00    +0.000 C 
ATOM     21  O   UNL     1      44.862   7.415  12.486  0.00  0.00    +0.000 OA
ATOM     22  H   UNL     1      47.367   5.663  11.862  0.00  0.00    +0.000 HD
BRANCH  20  23
ATOM     23  C   UNL     1      44.891   5.190  11.705  0.00  0.00    +0.000 A 
ATOM     24  C   UNL     1      44.123   4.507  12.637  0.00  0.00    +0.000 A 
ATOM     25  S   UNL     1      43.482   3.041  12.044  0.00  0.00    +0.000 S 
ATOM     26  C   UNL     1      44.230   3.259  10.530  0.00  0.00    +0.000 A 
ATOM     27  N   UNL     1      44.106   2.328   9.545  0.00  0.00    +0.000 NA
ATOM     28  C   UNL     1      44.740   2.616   8.455  0.00  0.00    +0.000 A 
ATOM     29  N   UNL     1      45.480   3.750   8.253  0.00  0.00    +0.000 N 
ATOM     30  C   UNL     1      45.594   4.744   9.205  0.00  0.00    +0.000 A 
ATOM     31  O   UNL     1      46.182   5.783   8.966  0.00  0.00    +0.000 OA
ATOM     32  C   UNL     1      44.929   4.446  10.465  0.00  0.00    +0.000 A 
ATOM     33  H   UNL     1      45.925   3.931   7.370  0.00  0.00    +0.000 HD
ENDBRANCH  20  23
ENDBRANCH  18  19
ENDBRANCH   4  18
TORSDOF 6
ENDMDL
MODEL 5
REMARK VINA RESULT:    -7.571      1.859      3.042
REMARK INTER + INTRA:         -11.221
REMARK INTER:                  -9.945
REMARK INTRA:                  -1.276
REMARK UNBOUND:                -0.995
REMARK  Name = 
REMARK  7 active torsions:
REMARK  status: ('A' for Active; 'I' for Inactive)
REMARK    1  A    between atoms: C_1  and  N_2
REMARK    2  A    between atoms: N_2  and  C_3
REMARK    3  A    between atoms: C_3  and  C_4
REMARK    4  A    between atoms: C_7  and  C_8
REMARK    5  A    between atoms: C_8  and  N_9
REMARK    6  A    between atoms: C_10  and  C_12
REMARK    7  A    between atoms: C_24  and  C_26
REMARK                            x       y       z     vdW  Elec       q    Type
REMARK                         _______ _______ _______ _____ _____    ______ ____
ROOT
ATOM      1  C   UNL     1      47.376   5.750  13.727  0.00  0.00    +0.000 A 
ATOM      2  C   UNL     1      46.870   4.449  13.802  0.00  0.00    +0.000 A 
ATOM      3  C   UNL     1      47.019   3.699  14.966  0.00  0.00    +0.000 A 
ATOM      4  C   UNL     1      47.718   4.214  16.068  0.00  0.00    +0.000 A 
ATOM      5  C   UNL     1      48.292   5.490  15.951  0.00  0.00    +0.000 A 
ATOM      6  C   UNL     1      48.105   6.260  14.801  0.00  0.00    +0.000 A 
ENDROOT
BRANCH   1   7
ATOM      7  C   UNL     1      47.154   6.559  12.485  0.00  0.00    +0.000 C 
BRANCH   7   9
ATOM      8  C   UNL     1      45.746   8.650  12.875  0.00  0.00    +0.000 C 
ATOM      9  N   UNL     1      45.898   7.305  12.331  0.00  0.00    +0.000 N 
ATOM     10  C   UNL     1      44.854   6.893  11.482  0.00  0.00    +0.000 C 
ATOM     11  O   UNL     1      43.904   7.631  11.214  0.00  0.00    +0.000 OA
BRANCH  10  12
ATOM     12  C   UNL     1      44.859   5.547  10.837  0.00  0.00    +0.000 A 
ATOM     13  C   UNL     1      44.199   4.440  11.373  0.00  0.00    +0.000 A 
ATOM     14  C   UNL     1      44.246   3.199  10.750  0.00  0.00    +0.000 A 
ATOM     15  C   UNL     1      44.873   3.086   9.515  0.00  0.00    +0.000 A 
ATOM     16  C   UNL     1      45.471   4.188   8.922  0.00  0.00    +0.000 A 
ATOM     17  C   UNL     1      45.480   5.415   9.588  0.00  0.00    +0.000 A 
ENDBRANCH  10  12
ENDBRANCH   7   9
ENDBRANCH   1   7
BRANCH   4  18
ATOM     18  C   UNL     1      47.869   3.454  17.366  0.00  0.00    +0.000 C 
BRANCH  18  19
ATOM     19  N   UNL     1      49.241   3.167  17.695  0.00  0.00    +0.000 N 
ATOM     20  C   UNL     1      49.988   2.260  16.989  0.00  0.00    +0.000 C 
ATOM     21  O   UNL     1      49.555   1.634  16.028  0.00  0.00    +0.000 OA
ATOM     22  H   UNL     1      49.509   3.307  18.661  0.00  0.00    +0.000 HD
BRANCH  20  23
ATOM     23  C   UNL     1      51.378   2.123  17.442  0.00  0.00    +0.000 A 
ATOM     24  C   UNL     1      51.949   0.867  17.589  0.00  0.00    +0.000 A 
ATOM     25  S   UNL     1      53.569   0.917  18.121  0.00  0.00    +0.000 S 
ATOM     26  C   UNL     1      53.554   2.618  18.196  0.00  0.00    +0.000 A 
ATOM     27  N   UNL     1      54.646   3.313  18.616  0.00  0.00    +0.000 NA
ATOM     28  C   UNL     1      54.487   4.595  18.638  0.00  0.00    +0.000 A 
ATOM     29  N   UNL     1      53.342   5.252  18.274  0.00  0.00    +0.000 N 
ATOM     30  C   UNL     1      52.226   4.592  17.796  0.00  0.00    +0.000 A 
ATOM     31  O   UNL     1      51.255   5.206  17.393  0.00  0.00    +0.000 OA
ATOM     32  C   UNL     1      52.344   3.142  17.790  0.00  0.00    +0.000 A 
ATOM     33  H   UNL     1      53.290   6.256  18.284  0.00  0.00    +0.000 HD
ENDBRANCH  20  23
ENDBRANCH  18  19
ENDBRANCH   4  18
TORSDOF 6
ENDMDL
MODEL 6
REMARK VINA RESULT:    -7.369      3.819      8.365
REMARK INTER + INTRA:         -10.949
REMARK INTER:                  -8.707
REMARK INTRA:                  -2.241
REMARK UNBOUND:                -0.995
REMARK  Name = 
REMARK  7 active torsions:
REMARK  status: ('A' for Active; 'I' for Inactive)
REMARK    1  A    between atoms: C_1  and  N_2
REMARK    2  A    between atoms: N_2  and  C_3
REMARK    3  A    between atoms: C_3  and  C_4
REMARK    4  A    between atoms: C_7  and  C_8
REMARK    5  A    between atoms: C_8  and  N_9
REMARK    6  A    between atoms: C_10  and  C_12
REMARK    7  A    between atoms: C_24  and  C_26
REMARK                            x       y       z     vdW  Elec       q    Type
REMARK                         _______ _______ _______ _____ _____    ______ ____
ROOT
ATOM      1  C   UNL     1      50.288   6.935  17.646  0.00  0.00    +0.000 A 
ATOM      2  C   UNL     1      49.504   8.026  18.035  0.00  0.00    +0.000 A 
ATOM      3  C   UNL     1      48.747   8.722  17.096  0.00  0.00    +0.000 A 
ATOM      4  C   UNL     1      48.790   8.373  15.738  0.00  0.00    +0.000 A 
ATOM      5  C   UNL     1      49.643   7.329  15.348  0.00  0.00    +0.000 A 
ATOM      6  C   UNL     1      50.368   6.602  16.294  0.00  0.00    +0.000 A 
ENDROOT
BRANCH   1   7
ATOM      7  C   UNL     1      51.050   6.166  18.682  0.00  0.00    +0.000 C 
BRANCH   7   9
ATOM      8  C   UNL     1      50.612   6.293  21.192  0.00  0.00    +0.000 C 
ATOM      9  N   UNL     1      50.349   5.699  19.886  0.00  0.00    +0.000 N 
ATOM     10  C   UNL     1      49.244   4.828  19.848  0.00  0.00    +0.000 C 
ATOM     11  O   UNL     1      48.552   4.613  20.845  0.00  0.00    +0.000 OA
BRANCH  10  12
ATOM     12  C   UNL     1      48.835   4.142  18.587  0.00  0.00    +0.000 A 
ATOM     13  C   UNL     1      49.542   3.073  18.036  0.00  0.00    +0.000 A 
ATOM     14  C   UNL     1      49.137   2.476  16.847  0.00  0.00    +0.000 A 
ATOM     15  C   UNL     1      47.946   2.882  16.258  0.00  0.00    +0.000 A 
ATOM     16  C   UNL     1      47.184   3.891  16.827  0.00  0.00    +0.000 A 
ATOM     17  C   UNL     1      47.634   4.534  17.982  0.00  0.00    +0.000 A 
ENDBRANCH  10  12
ENDBRANCH   7   9
ENDBRANCH   1   7
BRANCH   4  18
ATOM     18  C   UNL     1      47.953   9.072  14.690  0.00  0.00    +0.000 C 
BRANCH  18  19
ATOM     19  N   UNL     1      46.953   8.216  14.103  0.00  0.00    +0.000 N 
ATOM     20  C   UNL     1      46.847   8.037  12.749  0.00  0.00    +0.000 C 
ATOM     21  O   UNL     1      47.591   8.577  11.938  0.00  0.00    +0.000 OA
ATOM     22  H   UNL     1      46.103   8.093  14.636  0.00  0.00    +0.000 HD
BRANCH  20  23
ATOM     23  C   UNL     1      45.795   7.101  12.334  0.00  0.00    +0.000 A 
ATOM     24  C   UNL     1      44.663   7.562  11.677  0.00  0.00    +0.000 A 
ATOM     25  S   UNL     1      43.560   6.323  11.276  0.00  0.00    +0.000 S 
ATOM     26  C   UNL     1      44.548   5.133  11.988  0.00  0.00    +0.000 A 
ATOM     27  N   UNL     1      44.166   3.827  12.015  0.00  0.00    +0.000 NA
ATOM     28  C   UNL     1      45.004   3.037  12.601  0.00  0.00    +0.000 A 
ATOM     29  N   UNL     1      46.194   3.426  13.156  0.00  0.00    +0.000 N 
ATOM     30  C   UNL     1      46.646   4.731  13.110  0.00  0.00    +0.000 A 
ATOM     31  O   UNL     1      47.748   5.033  13.529  0.00  0.00    +0.000 OA
ATOM     32  C   UNL     1      45.716   5.665  12.494  0.00  0.00    +0.000 A 
ATOM     33  H   UNL     1      46.819   2.757  13.572  0.00  0.00    +0.000 HD
ENDBRANCH  20  23
ENDBRANCH  18  19
ENDBRANCH   4  18
TORSDOF 6
ENDMDL
MODEL 7
REMARK VINA RESULT:    -7.181      3.199      9.226
REMARK INTER + INTRA:         -10.695
REMARK INTER:                  -9.584
REMARK INTRA:                  -1.110
REMARK UNBOUND:                -0.995
REMARK  Name = 
REMARK  7 active torsions:
REMARK  status: ('A' for Active; 'I' for Inactive)
REMARK    1  A    between atoms: C_1  and  N_2
REMARK    2  A    between atoms: N_2  and  C_3
REMARK    3  A    between atoms: C_3  and  C_4
REMARK    4  A    between atoms: C_7  and  C_8
REMARK    5  A    between atoms: C_8  and  N_9
REMARK    6  A    between atoms: C_10  and  C_12
REMARK    7  A    between atoms: C_24  and  C_26
REMARK                            x       y       z     vdW  Elec       q    Type
REMARK                         _______ _______ _______ _____ _____    ______ ____
ROOT
ATOM      1  C   UNL     1      50.447   7.079  15.645  0.00  0.00    +0.000 A 
ATOM      2  C   UNL     1      49.127   6.624  15.723  0.00  0.00    +0.000 A 
ATOM      3  C   UNL     1      48.268   6.757  14.635  0.00  0.00    +0.000 A 
ATOM      4  C   UNL     1      48.694   7.388  13.456  0.00  0.00    +0.000 A 
ATOM      5  C   UNL     1      49.995   7.912  13.418  0.00  0.00    +0.000 A 
ATOM      6  C   UNL     1      50.871   7.741  14.493  0.00  0.00    +0.000 A 
ENDROOT
BRANCH   1   7
ATOM      7  C   UNL     1      51.369   6.875  16.808  0.00  0.00    +0.000 C 
BRANCH   7   9
ATOM      8  C   UNL     1      50.444   8.152  18.812  0.00  0.00    +0.000 C 
ATOM      9  N   UNL     1      50.820   6.898  18.170  0.00  0.00    +0.000 N 
ATOM     10  C   UNL     1      50.412   5.740  18.859  0.00  0.00    +0.000 C 
ATOM     11  O   UNL     1      49.772   5.800  19.910  0.00  0.00    +0.000 OA
BRANCH  10  12
ATOM     12  C   UNL     1      50.712   4.375  18.333  0.00  0.00    +0.000 A 
ATOM     13  C   UNL     1      49.781   3.604  17.636  0.00  0.00    +0.000 A 
ATOM     14  C   UNL     1      50.095   2.328  17.182  0.00  0.00    +0.000 A 
ATOM     15  C   UNL     1      51.394   1.859  17.331  0.00  0.00    +0.000 A 
ATOM     16  C   UNL     1      52.360   2.636  17.952  0.00  0.00    +0.000 A 
ATOM     17  C   UNL     1      52.018   3.887  18.468  0.00  0.00    +0.000 A 
ENDBRANCH  10  12
ENDBRANCH   7   9
ENDBRANCH   1   7
BRANCH   4  18
ATOM     18  C   UNL     1      47.812   7.516  12.235  0.00  0.00    +0.000 C 
BRANCH  18  19
ATOM     19  N   UNL     1      46.981   6.360  12.016  0.00  0.00    +0.000 N 
ATOM     20  C   UNL     1      45.670   6.464  11.631  0.00  0.00    +0.000 C 
ATOM     21  O   UNL     1      45.107   7.536  11.437  0.00  0.00    +0.000 OA
ATOM     22  H   UNL     1      47.228   5.527  12.534  0.00  0.00    +0.000 HD
BRANCH  20  23
ATOM     23  C   UNL     1      44.989   5.181  11.418  0.00  0.00    +0.000 A 
ATOM     24  C   UNL     1      44.213   4.622  12.423  0.00  0.00    +0.000 A 
ATOM     25  S   UNL     1      43.503   3.133  11.984  0.00  0.00    +0.000 S 
ATOM     26  C   UNL     1      44.229   3.175  10.444  0.00  0.00    +0.000 A 
ATOM     27  N   UNL     1      44.048   2.162   9.554  0.00  0.00    +0.000 NA
ATOM     28  C   UNL     1      44.671   2.318   8.432  0.00  0.00    +0.000 A 
ATOM     29  N   UNL     1      45.451   3.397   8.110  0.00  0.00    +0.000 N 
ATOM     30  C   UNL     1      45.624   4.471   8.961  0.00  0.00    +0.000 A 
ATOM     31  O   UNL     1      46.247   5.458   8.615  0.00  0.00    +0.000 OA
ATOM     32  C   UNL     1      44.973   4.321  10.254  0.00  0.00    +0.000 A 
ATOM     33  H   UNL     1      45.886   3.475   7.207  0.00  0.00    +0.000 HD
ENDBRANCH  20  23
ENDBRANCH  18  19
ENDBRANCH   4  18
TORSDOF 6
ENDMDL
MODEL 8
REMARK VINA RESULT:    -7.153      1.567      2.434
REMARK INTER + INTRA:         -10.656
REMARK INTER:                  -9.370
REMARK INTRA:                  -1.287
REMARK UNBOUND:                -0.995
REMARK  Name = 
REMARK  7 active torsions:
REMARK  status: ('A' for Active; 'I' for Inactive)
REMARK    1  A    between atoms: C_1  and  N_2
REMARK    2  A    between atoms: N_2  and  C_3
REMARK    3  A    between atoms: C_3  and  C_4
REMARK    4  A    between atoms: C_7  and  C_8
REMARK    5  A    between atoms: C_8  and  N_9
REMARK    6  A    between atoms: C_10  and  C_12
REMARK    7  A    between atoms: C_24  and  C_26
REMARK                            x       y       z     vdW  Elec       q    Type
REMARK                         _______ _______ _______ _____ _____    ______ ____
ROOT
ATOM      1  C   UNL     1      47.191   6.039  13.356  0.00  0.00    +0.000 A 
ATOM      2  C   UNL     1      46.692   4.798  13.769  0.00  0.00    +0.000 A 
ATOM      3  C   UNL     1      47.037   4.277  15.013  0.00  0.00    +0.000 A 
ATOM      4  C   UNL     1      47.923   4.961  15.858  0.00  0.00    +0.000 A 
ATOM      5  C   UNL     1      48.480   6.165  15.400  0.00  0.00    +0.000 A 
ATOM      6  C   UNL     1      48.102   6.711  14.171  0.00  0.00    +0.000 A 
ENDROOT
BRANCH   1   7
ATOM      7  C   UNL     1      46.761   6.606  12.038  0.00  0.00    +0.000 C 
BRANCH   7   9
ATOM      8  C   UNL     1      45.438   8.778  12.230  0.00  0.00    +0.000 C 
ATOM      9  N   UNL     1      45.496   7.347  11.954  0.00  0.00    +0.000 N 
ATOM     10  C   UNL     1      44.319   6.807  11.402  0.00  0.00    +0.000 C 
ATOM     11  O   UNL     1      43.335   7.507  11.158  0.00  0.00    +0.000 OA
BRANCH  10  12
ATOM     12  C   UNL     1      44.214   5.359  11.055  0.00  0.00    +0.000 A 
ATOM     13  C   UNL     1      44.854   4.789   9.954  0.00  0.00    +0.000 A 
ATOM     14  C   UNL     1      44.713   3.438   9.656  0.00  0.00    +0.000 A 
ATOM     15  C   UNL     1      44.009   2.623  10.534  0.00  0.00    +0.000 A 
ATOM     16  C   UNL     1      43.428   3.149  11.676  0.00  0.00    +0.000 A 
ATOM     17  C   UNL     1      43.514   4.520  11.931  0.00  0.00    +0.000 A 
ENDBRANCH  10  12
ENDBRANCH   7   9
ENDBRANCH   1   7
BRANCH   4  18
ATOM     18  C   UNL     1      48.293   4.455  17.235  0.00  0.00    +0.000 C 
BRANCH  18  19
ATOM     19  N   UNL     1      49.685   4.103  17.351  0.00  0.00    +0.000 N 
ATOM     20  C   UNL     1      50.380   4.247  18.523  0.00  0.00    +0.000 C 
ATOM     21  O   UNL     1      49.878   4.675  19.556  0.00  0.00    +0.000 OA
ATOM     22  H   UNL     1      50.231   4.152  16.501  0.00  0.00    +0.000 HD
BRANCH  20  23
ATOM     23  C   UNL     1      51.778   3.802  18.466  0.00  0.00    +0.000 A 
ATOM     24  C   UNL     1      52.797   4.627  18.921  0.00  0.00    +0.000 A 
ATOM     25  S   UNL     1      54.348   3.932  18.775  0.00  0.00    +0.000 S 
ATOM     26  C   UNL     1      53.712   2.515  18.076  0.00  0.00    +0.000 A 
ATOM     27  N   UNL     1      54.527   1.500  17.679  0.00  0.00    +0.000 NA
ATOM     28  C   UNL     1      53.909   0.495  17.151  0.00  0.00    +0.000 A 
ATOM     29  N   UNL     1      52.552   0.403  16.989  0.00  0.00    +0.000 N 
ATOM     30  C   UNL     1      51.683   1.386  17.421  0.00  0.00    +0.000 A 
ATOM     31  O   UNL     1      50.477   1.238  17.348  0.00  0.00    +0.000 OA
ATOM     32  C   UNL     1      52.336   2.557  17.987  0.00  0.00    +0.000 A 
ATOM     33  H   UNL     1      52.129  -0.421  16.599  0.00  0.00    +0.000 HD
ENDBRANCH  20  23
ENDBRANCH  18  19
ENDBRANCH   4  18
TORSDOF 6
ENDMDL
MODEL 9
REMARK VINA RESULT:    -6.773      3.602      8.947
REMARK INTER + INTRA:         -10.143
REMARK INTER:                  -8.721
REMARK INTRA:                  -1.422
REMARK UNBOUND:                -0.995
REMARK  Name = 
REMARK  7 active torsions:
REMARK  status: ('A' for Active; 'I' for Inactive)
REMARK    1  A    between atoms: C_1  and  N_2
REMARK    2  A    between atoms: N_2  and  C_3
REMARK    3  A    between atoms: C_3  and  C_4
REMARK    4  A    between atoms: C_7  and  C_8
REMARK    5  A    between atoms: C_8  and  N_9
REMARK    6  A    between atoms: C_10  and  C_12
REMARK    7  A    between atoms: C_24  and  C_26
REMARK                            x       y       z     vdW  Elec       q    Type
REMARK                         _______ _______ _______ _____ _____    ______ ____
ROOT
ATOM      1  C   UNL     1      48.810   7.627  16.628  0.00  0.00    +0.000 A 
ATOM      2  C   UNL     1      48.542   6.461  15.903  0.00  0.00    +0.000 A 
ATOM      3  C   UNL     1      48.453   6.498  14.514  0.00  0.00    +0.000 A 
ATOM      4  C   UNL     1      48.584   7.709  13.817  0.00  0.00    +0.000 A 
ATOM      5  C   UNL     1      48.771   8.885  14.562  0.00  0.00    +0.000 A 
ATOM      6  C   UNL     1      48.905   8.842  15.951  0.00  0.00    +0.000 A 
ENDROOT
BRANCH   1   7
ATOM      7  C   UNL     1      48.958   7.552  18.117  0.00  0.00    +0.000 C 
BRANCH   7   9
ATOM      8  C   UNL     1      51.047   8.533  19.203  0.00  0.00    +0.000 C 
ATOM      9  N   UNL     1      50.298   7.389  18.697  0.00  0.00    +0.000 N 
ATOM     10  C   UNL     1      50.857   6.135  19.009  0.00  0.00    +0.000 C 
ATOM     11  O   UNL     1      51.888   6.031  19.676  0.00  0.00    +0.000 OA
BRANCH  10  12
ATOM     12  C   UNL     1      50.210   4.863  18.571  0.00  0.00    +0.000 A 
ATOM     13  C   UNL     1      48.955   4.450  19.020  0.00  0.00    +0.000 A 
ATOM     14  C   UNL     1      48.399   3.246  18.602  0.00  0.00    +0.000 A 
ATOM     15  C   UNL     1      49.059   2.496  17.636  0.00  0.00    +0.000 A 
ATOM     16  C   UNL     1      50.271   2.922  17.117  0.00  0.00    +0.000 A 
ATOM     17  C   UNL     1      50.858   4.096  17.594  0.00  0.00    +0.000 A 
ENDBRANCH  10  12
ENDBRANCH   7   9
ENDBRANCH   1   7
BRANCH   4  18
ATOM     18  C   UNL     1      48.537   7.792  12.308  0.00  0.00    +0.000 C 
BRANCH  18  19
ATOM     19  N   UNL     1      47.735   6.754  11.712  0.00  0.00    +0.000 N 
ATOM     20  C   UNL     1      46.385   6.894  11.518  0.00  0.00    +0.000 C 
ATOM     21  O   UNL     1      45.761   7.904  11.824  0.00  0.00    +0.000 OA
ATOM     22  H   UNL     1      48.073   5.807  11.825  0.00  0.00    +0.000 HD
BRANCH  20  23
ATOM     23  C   UNL     1      45.738   5.750  10.862  0.00  0.00    +0.000 A 
ATOM     24  C   UNL     1      45.858   5.565   9.492  0.00  0.00    +0.000 A 
ATOM     25  S   UNL     1      45.039   4.182   8.921  0.00  0.00    +0.000 S 
ATOM     26  C   UNL     1      44.477   3.798  10.482  0.00  0.00    +0.000 A 
ATOM     27  N   UNL     1      43.675   2.719  10.694  0.00  0.00    +0.000 NA
ATOM     28  C   UNL     1      43.311   2.558  11.924  0.00  0.00    +0.000 A 
ATOM     29  N   UNL     1      43.678   3.369  12.965  0.00  0.00    +0.000 N 
ATOM     30  C   UNL     1      44.528   4.446  12.806  0.00  0.00    +0.000 A 
ATOM     31  O   UNL     1      44.912   5.095  13.762  0.00  0.00    +0.000 OA
ATOM     32  C   UNL     1      44.933   4.691  11.430  0.00  0.00    +0.000 A 
ATOM     33  H   UNL     1      43.386   3.173  13.907  0.00  0.00    +0.000 HD
ENDBRANCH  20  23
ENDBRANCH  18  19
ENDBRANCH   4  18
TORSDOF 6
ENDMDL
