MODEL 1
REMARK VINA RESULT:    -7.561      0.000      0.000
REMARK INTER + INTRA:         -11.369
REMARK INTER:                 -10.213
REMARK INTRA:                  -1.157
REMARK UNBOUND:                -1.157
REMARK  Name = 
REMARK  6 active torsions:
REMARK  status: ('A' for Active; 'I' for Inactive)
REMARK    1  A    between atoms: C_2  and  C_4
REMARK    2  A    between atoms: C_8  and  C_9
REMARK    3  A    between atoms: C_9  and  C_10
REMARK    4  A    between atoms: C_10  and  O_11
REMARK    5  A    between atoms: O_11  and  C_12
REMARK    6  A    between atoms: C_16  and  C_17
REMARK                            x       y       z     vdW  Elec       q    Type
REMARK                         _______ _______ _______ _____ _____    ______ ____
ROOT
ATOM      1  C   UNL     1      44.614   7.337  11.032  0.00  0.00    +0.000 C 
ENDROOT
BRANCH   1   2
ATOM      2  C   UNL     1      45.025   8.032  12.325  0.00  0.00    +0.000 C 
BRANCH   2   7
ATOM      3  C   UNL     1      47.134   5.473  13.945  0.00  0.00    +0.000 A 
ATOM      4  C   UNL     1      48.281   6.156  14.321  0.00  0.00    +0.000 A 
ATOM      5  C   UNL     1      48.375   7.510  14.009  0.00  0.00    +0.000 A 
ATOM      6  C   UNL     1      47.314   8.121  13.345  0.00  0.00    +0.000 A 
ATOM      7  C   UNL     1      46.191   7.372  13.009  0.00  0.00    +0.000 A 
ATOM      8  N   UNL     1      46.079   6.047  13.293  0.00  0.00    +0.000 NA
BRANCH   3  10
ATOM      9  N   UNL     1      46.414   3.241  13.316  0.00  0.00    +0.000 N 
ATOM     10  C   UNL     1      47.003   4.017  14.274  0.00  0.00    +0.000 C 
ATOM     11  O   UNL     1      47.400   3.542  15.333  0.00  0.00    +0.000 OA
ATOM     12  H   UNL     1      46.312   2.253  13.475  0.00  0.00    +0.000 HD
ATOM     13  H   UNL     1      46.122   3.663  12.442  0.00  0.00    +0.000 HD
ENDBRANCH   3  10
ENDBRANCH   2   7
ENDBRANCH   1   2
BRANCH   1  14
ATOM     14  O   UNL     1      43.444   6.530  11.232  0.00  0.00    +0.000 OA
BRANCH  14  15
ATOM     15  C   UNL     1      43.642   5.177  11.096  0.00  0.00    +0.000 A 
ATOM     16  C   UNL     1      42.989   4.206  11.850  0.00  0.00    +0.000 A 
ATOM     17  C   UNL     1      43.243   2.856  11.626  0.00  0.00    +0.000 A 
ATOM     18  C   UNL     1      44.130   2.472  10.623  0.00  0.00    +0.000 A 
ATOM     19  C   UNL     1      44.756   3.420   9.793  0.00  0.00    +0.000 A 
ATOM     20  C   UNL     1      44.514   4.781  10.071  0.00  0.00    +0.000 A 
BRANCH  19  21
ATOM     21  C   UNL     1      45.560   2.987   8.624  0.00  0.00    +0.000 A 
ATOM     22  C   UNL     1      45.974   3.927   7.658  0.00  0.00    +0.000 A 
ATOM     23  C   UNL     1      46.787   3.569   6.580  0.00  0.00    +0.000 A 
ATOM     24  C   UNL     1      47.217   2.255   6.445  0.00  0.00    +0.000 A 
ATOM     25  C   UNL     1      46.816   1.300   7.376  0.00  0.00    +0.000 A 
ATOM     26  C   UNL     1      45.990   1.661   8.449  0.00  0.00    +0.000 A 
ENDBRANCH  19  21
ENDBRANCH  14  15
ENDBRANCH   1  14
TORSDOF 6
ENDMDL
MODEL 2
REMARK VINA RESULT:    -7.300      1.472      1.943
REMARK INTER + INTRA:         -11.018
REMARK INTER:                 -10.206
REMARK INTRA:                  -0.811
REMARK UNBOUND:                -1.157
REMARK  Name = 
REMARK  6 active torsions:
REMARK  status: ('A' for Active; 'I' for Inactive)
REMARK    1  A    between atoms: C_2  and  C_4
REMARK    2  A    between atoms: C_8  and  C_9
REMARK    3  A    between atoms: C_9  and  C_10
REMARK    4  A    between atoms: C_10  and  O_11
REMARK    5  A    between atoms: O_11  and  C_12
REMARK    6  A    between atoms: C_16  and  C_17
REMARK                            x       y       z     vdW  Elec       q    Type
REMARK                         _______ _______ _______ _____ _____    ______ ____
ROOT
ATOM      1  C   UNL     1      45.542   6.588  12.041  0.00  0.00    +0.000 C 
ENDROOT
BRANCH   1   2
ATOM      2  C   UNL     1      47.061   6.655  11.938  0.00  0.00    +0.000 C 
BRANCH   2   7
ATOM      3  C   UNL     1      47.929   5.494  15.332  0.00  0.00    +0.000 A 
ATOM      4  C   UNL     1      48.956   6.335  15.734  0.00  0.00    +0.000 A 
ATOM      5  C   UNL     1      49.397   7.311  14.844  0.00  0.00    +0.000 A 
ATOM      6  C   UNL     1      48.785   7.408  13.597  0.00  0.00    +0.000 A 
ATOM      7  C   UNL     1      47.753   6.534  13.268  0.00  0.00    +0.000 A 
ATOM      8  N   UNL     1      47.312   5.566  14.115  0.00  0.00    +0.000 NA
BRANCH   3  10
ATOM      9  N   UNL     1      47.030   4.881  17.502  0.00  0.00    +0.000 N 
ATOM     10  C   UNL     1      47.430   4.440  16.272  0.00  0.00    +0.000 C 
ATOM     11  O   UNL     1      47.377   3.253  15.964  0.00  0.00    +0.000 OA
ATOM     12  H   UNL     1      46.672   4.220  18.171  0.00  0.00    +0.000 HD
ATOM     13  H   UNL     1      47.064   5.872  17.712  0.00  0.00    +0.000 HD
ENDBRANCH   3  10
ENDBRANCH   2   7
ENDBRANCH   1   2
BRANCH   1  14
ATOM     14  O   UNL     1      44.951   6.322  10.761  0.00  0.00    +0.000 OA
BRANCH  14  15
ATOM     15  C   UNL     1      44.789   4.991  10.464  0.00  0.00    +0.000 A 
ATOM     16  C   UNL     1      43.865   4.152  11.083  0.00  0.00    +0.000 A 
ATOM     17  C   UNL     1      43.761   2.819  10.699  0.00  0.00    +0.000 A 
ATOM     18  C   UNL     1      44.561   2.326   9.670  0.00  0.00    +0.000 A 
ATOM     19  C   UNL     1      45.456   3.159   8.972  0.00  0.00    +0.000 A 
ATOM     20  C   UNL     1      45.572   4.494   9.410  0.00  0.00    +0.000 A 
BRANCH  19  21
ATOM     21  C   UNL     1      46.170   2.661   7.771  0.00  0.00    +0.000 A 
ATOM     22  C   UNL     1      46.661   1.339   7.733  0.00  0.00    +0.000 A 
ATOM     23  C   UNL     1      47.279   0.814   6.595  0.00  0.00    +0.000 A 
ATOM     24  C   UNL     1      47.414   1.599   5.457  0.00  0.00    +0.000 A 
ATOM     25  C   UNL     1      46.950   2.912   5.467  0.00  0.00    +0.000 A 
ATOM     26  C   UNL     1      46.342   3.440   6.614  0.00  0.00    +0.000 A 
ENDBRANCH  19  21
ENDBRANCH  14  15
ENDBRANCH   1  14
TORSDOF 6
ENDMDL
MODEL 3
REMARK VINA RESULT:    -7.025      2.122      2.613
REMARK INTER + INTRA:         -10.646
REMARK INTER:                  -9.865
REMARK INTRA:                  -0.781
REMARK UNBOUND:                -1.157
REMARK  Name = 
REMARK  6 active torsions:
REMARK  status: ('A' for Active; 'I' for Inactive)
REMARK    1  A    between atoms: C_2  and  C_4
REMARK    2  A    between atoms: C_8  and  C_9
REMARK    3  A    between atoms: C_9  and  C_10
REMARK    4  A    between atoms: C_10  and  O_11
REMARK    5  A    between atoms: O_11  and  C_12
REMARK    6  A    between atoms: C_16  and  C_17
REMARK                            x       y       z     vdW  Elec       q    Type
REMARK                         _______ _______ _______ _____ _____    ______ ____
ROOT
ATOM      1  C   UNL     1      47.254   6.119  13.095  0.00  0.00    +0.000 C 
ENDROOT
BRANCH   1   2
ATOM      2  C   UNL     1      48.111   6.997  13.999  0.00  0.00    +0.000 C 
BRANCH   2   7
ATOM      3  C   UNL     1      48.360   4.514  16.718  0.00  0.00    +0.000 A 
ATOM      4  C   UNL     1      48.794   5.243  17.815  0.00  0.00    +0.000 A 
ATOM      5  C   UNL     1      49.037   6.605  17.649  0.00  0.00    +0.000 A 
ATOM      6  C   UNL     1      48.824   7.177  16.397  0.00  0.00    +0.000 A 
ATOM      7  C   UNL     1      48.378   6.382  15.345  0.00  0.00    +0.000 A 
ATOM      8  N   UNL     1      48.145   5.049  15.479  0.00  0.00    +0.000 NA
BRANCH   3  10
ATOM      9  N   UNL     1      47.028   2.723  17.672  0.00  0.00    +0.000 N 
ATOM     10  C   UNL     1      48.085   3.049  16.870  0.00  0.00    +0.000 C 
ATOM     11  O   UNL     1      48.758   2.190  16.310  0.00  0.00    +0.000 OA
ATOM     12  H   UNL     1      46.786   1.755  17.800  0.00  0.00    +0.000 HD
ATOM     13  H   UNL     1      46.478   3.460  18.097  0.00  0.00    +0.000 HD
ENDBRANCH   3  10
ENDBRANCH   2   7
ENDBRANCH   1   2
BRANCH   1  14
ATOM     14  O   UNL     1      45.919   6.633  12.994  0.00  0.00    +0.000 OA
BRANCH  14  15
ATOM     15  C   UNL     1      45.052   5.855  12.265  0.00  0.00    +0.000 A 
ATOM     16  C   UNL     1      43.669   5.851  12.430  0.00  0.00    +0.000 A 
ATOM     17  C   UNL     1      42.869   5.040  11.630  0.00  0.00    +0.000 A 
ATOM     18  C   UNL     1      43.450   4.253  10.638  0.00  0.00    +0.000 A 
ATOM     19  C   UNL     1      44.836   4.282  10.393  0.00  0.00    +0.000 A 
ATOM     20  C   UNL     1      45.625   5.079  11.247  0.00  0.00    +0.000 A 
BRANCH  19  21
ATOM     21  C   UNL     1      45.411   3.572   9.225  0.00  0.00    +0.000 A 
ATOM     22  C   UNL     1      45.954   4.300   8.146  0.00  0.00    +0.000 A 
ATOM     23  C   UNL     1      46.565   3.667   7.061  0.00  0.00    +0.000 A 
ATOM     24  C   UNL     1      46.656   2.281   7.031  0.00  0.00    +0.000 A 
ATOM     25  C   UNL     1      46.119   1.533   8.076  0.00  0.00    +0.000 A 
ATOM     26  C   UNL     1      45.496   2.171   9.157  0.00  0.00    +0.000 A 
ENDBRANCH  19  21
ENDBRANCH  14  15
ENDBRANCH   1  14
TORSDOF 6
ENDMDL
MODEL 4
REMARK VINA RESULT:    -6.994      1.907      3.401
REMARK INTER + INTRA:         -10.604
REMARK INTER:                  -9.517
REMARK INTRA:                  -1.088
REMARK UNBOUND:                -1.157
REMARK  Name = 
REMARK  6 active torsions:
REMARK  status: ('A' for Active; 'I' for Inactive)
REMARK    1  A    between atoms: C_2  and  C_4
REMARK    2  A    between atoms: C_8  and  C_9
REMARK    3  A    between atoms: C_9  and  C_10
REMARK    4  A    between atoms: C_10  and  O_11
REMARK    5  A    between atoms: O_11  and  C_12
REMARK    6  A    between atoms: C_16  and  C_17
REMARK                            x       y       z     vdW  Elec       q    Type
REMARK                         _______ _______ _______ _____ _____    ______ ____
ROOT
ATOM      1  C   UNL     1      46.891   4.538  13.871  0.00  0.00    +0.000 C 
ENDROOT
BRANCH   1   2
ATOM      2  C   UNL     1      47.591   5.746  14.483  0.00  0.00    +0.000 C 
BRANCH   2   7
ATOM      3  C   UNL     1      47.144   8.742  12.376  0.00  0.00    +0.000 A 
ATOM      4  C   UNL     1      48.309   8.817  11.627  0.00  0.00    +0.000 A 
ATOM      5  C   UNL     1      49.294   7.855  11.841  0.00  0.00    +0.000 A 
ATOM      6  C   UNL     1      49.064   6.857  12.784  0.00  0.00    +0.000 A 
ATOM      7  C   UNL     1      47.864   6.841  13.489  0.00  0.00    +0.000 A 
ATOM      8  N   UNL     1      46.892   7.775  13.307  0.00  0.00    +0.000 NA
BRANCH   3  10
ATOM      9  N   UNL     1      46.436  10.885  11.481  0.00  0.00    +0.000 N 
ATOM     10  C   UNL     1      46.065   9.760  12.162  0.00  0.00    +0.000 C 
ATOM     11  O   UNL     1      44.918   9.599  12.566  0.00  0.00    +0.000 OA
ATOM     12  H   UNL     1      45.750  11.597  11.294  0.00  0.00    +0.000 HD
ATOM     13  H   UNL     1      47.386  10.971  11.139  0.00  0.00    +0.000 HD
ENDBRANCH   3  10
ENDBRANCH   2   7
ENDBRANCH   1   2
BRANCH   1  14
ATOM     14  O   UNL     1      45.474   4.600  14.089  0.00  0.00    +0.000 OA
BRANCH  14  15
ATOM     15  C   UNL     1      44.712   4.617  12.946  0.00  0.00    +0.000 A 
ATOM     16  C   UNL     1      43.486   5.266  12.827  0.00  0.00    +0.000 A 
ATOM     17  C   UNL     1      42.795   5.243  11.620  0.00  0.00    +0.000 A 
ATOM     18  C   UNL     1      43.345   4.596  10.515  0.00  0.00    +0.000 A 
ATOM     19  C   UNL     1      44.613   3.989  10.575  0.00  0.00    +0.000 A 
ATOM     20  C   UNL     1      45.271   3.990  11.822  0.00  0.00    +0.000 A 
BRANCH  19  21
ATOM     21  C   UNL     1      45.255   3.458   9.348  0.00  0.00    +0.000 A 
ATOM     22  C   UNL     1      45.772   4.340   8.376  0.00  0.00    +0.000 A 
ATOM     23  C   UNL     1      46.442   3.878   7.241  0.00  0.00    +0.000 A 
ATOM     24  C   UNL     1      46.620   2.513   7.052  0.00  0.00    +0.000 A 
ATOM     25  C   UNL     1      46.112   1.616   7.987  0.00  0.00    +0.000 A 
ATOM     26  C   UNL     1      45.429   2.083   9.118  0.00  0.00    +0.000 A 
ENDBRANCH  19  21
ENDBRANCH  14  15
ENDBRANCH   1  14
TORSDOF 6
ENDMDL
MODEL 5
REMARK VINA RESULT:    -6.916      2.805      3.703
REMARK INTER + INTRA:         -10.499
REMARK INTER:                  -9.781
REMARK INTRA:                  -0.719
REMARK UNBOUND:                -1.157
REMARK  Name = 
REMARK  6 active torsions:
REMARK  status: ('A' for Active; 'I' for Inactive)
REMARK    1  A    between atoms: C_2  and  C_4
REMARK    2  A    between atoms: C_8  and  C_9
REMARK    3  A    between atoms: C_9  and  C_10
REMARK    4  A    between atoms: C_10  and  O_11
REMARK    5  A    between atoms: O_11  and  C_12
REMARK    6  A    between atoms: C_16  and  C_17
REMARK                            x       y       z     vdW  Elec       q    Type
REMARK                         _______ _______ _______ _____ _____    ______ ____
ROOT
ATOM      1  C   UNL     1      46.677   4.204  14.017  0.00  0.00    +0.000 C 
ENDROOT
BRANCH   1   2
ATOM      2  C   UNL     1      47.076   5.275  15.025  0.00  0.00    +0.000 C 
BRANCH   2   7
ATOM      3  C   UNL     1      49.208   3.227  17.235  0.00  0.00    +0.000 A 
ATOM      4  C   UNL     1      48.860   3.625  18.517  0.00  0.00    +0.000 A 
ATOM      5  C   UNL     1      47.901   4.624  18.662  0.00  0.00    +0.000 A 
ATOM      6  C   UNL     1      47.325   5.173  17.518  0.00  0.00    +0.000 A 
ATOM      7  C   UNL     1      47.718   4.715  16.264  0.00  0.00    +0.000 A 
ATOM      8  N   UNL     1      48.660   3.749  16.097  0.00  0.00    +0.000 NA
BRANCH   3  10
ATOM      9  N   UNL     1      51.117   1.989  18.078  0.00  0.00    +0.000 N 
ATOM     10  C   UNL     1      50.232   2.149  17.050  0.00  0.00    +0.000 C 
ATOM     11  O   UNL     1      50.277   1.448  16.045  0.00  0.00    +0.000 OA
ATOM     12  H   UNL     1      51.819   1.270  18.017  0.00  0.00    +0.000 HD
ATOM     13  H   UNL     1      51.034   2.569  18.905  0.00  0.00    +0.000 HD
ENDBRANCH   3  10
ENDBRANCH   2   7
ENDBRANCH   1   2
BRANCH   1  14
ATOM     14  O   UNL     1      45.254   4.017  14.003  0.00  0.00    +0.000 OA
BRANCH  14  15
ATOM     15  C   UNL     1      44.651   4.255  12.791  0.00  0.00    +0.000 A 
ATOM     16  C   UNL     1      43.552   5.092  12.610  0.00  0.00    +0.000 A 
ATOM     17  C   UNL     1      43.022   5.287  11.339  0.00  0.00    +0.000 A 
ATOM     18  C   UNL     1      43.609   4.668  10.237  0.00  0.00    +0.000 A 
ATOM     19  C   UNL     1      44.762   3.872  10.369  0.00  0.00    +0.000 A 
ATOM     20  C   UNL     1      45.253   3.658  11.673  0.00  0.00    +0.000 A 
BRANCH  19  21
ATOM     21  C   UNL     1      45.471   3.365   9.169  0.00  0.00    +0.000 A 
ATOM     22  C   UNL     1      45.678   1.981   8.997  0.00  0.00    +0.000 A 
ATOM     23  C   UNL     1      46.282   1.461   7.849  0.00  0.00    +0.000 A 
ATOM     24  C   UNL     1      46.688   2.318   6.834  0.00  0.00    +0.000 A 
ATOM     25  C   UNL     1      46.509   3.691   6.979  0.00  0.00    +0.000 A 
ATOM     26  C   UNL     1      45.914   4.210   8.137  0.00  0.00    +0.000 A 
ENDBRANCH  19  21
ENDBRANCH  14  15
ENDBRANCH   1  14
TORSDOF 6
ENDMDL
MODEL 6
REMARK VINA RESULT:    -6.779      3.005      4.766
REMARK INTER + INTRA:         -10.313
REMARK INTER:                  -9.606
REMARK INTRA:                  -0.707
REMARK UNBOUND:                -1.157
REMARK  Name = 
REMARK  6 active torsions:
REMARK  status: ('A' for Active; 'I' for Inactive)
REMARK    1  A    between atoms: C_2  and  C_4
REMARK    2  A    between atoms: C_8  and  C_9
REMARK    3  A    between atoms: C_9  and  C_10
REMARK    4  A    between atoms: C_10  and  O_11
REMARK    5  A    between atoms: O_11  and  C_12
REMARK    6  A    between atoms: C_16  and  C_17
REMARK                            x       y       z     vdW  Elec       q    Type
REMARK                         _______ _______ _______ _____ _____    ______ ____
ROOT
ATOM      1  C   UNL     1      48.447   6.468  14.580  0.00  0.00    +0.000 C 
ENDROOT
BRANCH   1   2
ATOM      2  C   UNL     1      48.828   6.888  15.995  0.00  0.00    +0.000 C 
BRANCH   2   7
ATOM      3  C   UNL     1      49.339   3.545  17.473  0.00  0.00    +0.000 A 
ATOM      4  C   UNL     1      48.747   3.625  18.725  0.00  0.00    +0.000 A 
ATOM      5  C   UNL     1      48.176   4.835  19.109  0.00  0.00    +0.000 A 
ATOM      6  C   UNL     1      48.212   5.907  18.220  0.00  0.00    +0.000 A 
ATOM      7  C   UNL     1      48.816   5.747  16.976  0.00  0.00    +0.000 A 
ATOM      8  N   UNL     1      49.390   4.579  16.582  0.00  0.00    +0.000 NA
BRANCH   3  10
ATOM      9  N   UNL     1      50.989   1.794  17.798  0.00  0.00    +0.000 N 
ATOM     10  C   UNL     1      49.955   2.252  17.031  0.00  0.00    +0.000 C 
ATOM     11  O   UNL     1      49.560   1.636  16.047  0.00  0.00    +0.000 OA
ATOM     12  H   UNL     1      51.433   0.923  17.559  0.00  0.00    +0.000 HD
ATOM     13  H   UNL     1      51.271   2.316  18.619  0.00  0.00    +0.000 HD
ENDBRANCH   3  10
ENDBRANCH   2   7
ENDBRANCH   1   2
BRANCH   1  14
ATOM     14  O   UNL     1      48.285   7.613  13.731  0.00  0.00    +0.000 OA
BRANCH  14  15
ATOM     15  C   UNL     1      47.107   7.648  13.024  0.00  0.00    +0.000 A 
ATOM     16  C   UNL     1      46.281   8.766  12.924  0.00  0.00    +0.000 A 
ATOM     17  C   UNL     1      45.115   8.711  12.168  0.00  0.00    +0.000 A 
ATOM     18  C   UNL     1      44.786   7.544  11.481  0.00  0.00    +0.000 A 
ATOM     19  C   UNL     1      45.629   6.417  11.499  0.00  0.00    +0.000 A 
ATOM     20  C   UNL     1      46.782   6.487  12.308  0.00  0.00    +0.000 A 
BRANCH  19  21
ATOM     21  C   UNL     1      45.350   5.251  10.626  0.00  0.00    +0.000 A 
ATOM     22  C   UNL     1      44.610   4.155  11.118  0.00  0.00    +0.000 A 
ATOM     23  C   UNL     1      44.270   3.070  10.307  0.00  0.00    +0.000 A 
ATOM     24  C   UNL     1      44.656   3.057   8.973  0.00  0.00    +0.000 A 
ATOM     25  C   UNL     1      45.398   4.118   8.460  0.00  0.00    +0.000 A 
ATOM     26  C   UNL     1      45.748   5.199   9.280  0.00  0.00    +0.000 A 
ENDBRANCH  19  21
ENDBRANCH  14  15
ENDBRANCH   1  14
TORSDOF 6
ENDMDL
MODEL 7
REMARK VINA RESULT:    -6.774      2.527      3.588
REMARK INTER + INTRA:         -10.307
REMARK INTER:                  -9.539
REMARK INTRA:                  -0.768
REMARK UNBOUND:                -1.157
REMARK  Name = 
REMARK  6 active torsions:
REMARK  status: ('A' for Active; 'I' for Inactive)
REMARK    1  A    between atoms: C_2  and  C_4
REMARK    2  A    between atoms: C_8  and  C_9
REMARK    3  A    between atoms: C_9  and  C_10
REMARK    4  A    between atoms: C_10  and  O_11
REMARK    5  A    between atoms: O_11  and  C_12
REMARK    6  A    between atoms: C_16  and  C_17
REMARK                            x       y       z     vdW  Elec       q    Type
REMARK                         _______ _______ _______ _____ _____    ______ ____
ROOT
ATOM      1  C   UNL     1      46.814   4.040  13.914  0.00  0.00    +0.000 C 
ENDROOT
BRANCH   1   2
ATOM      2  C   UNL     1      47.359   3.523  15.240  0.00  0.00    +0.000 C 
BRANCH   2   7
ATOM      3  C   UNL     1      49.000   6.577  16.504  0.00  0.00    +0.000 A 
ATOM      4  C   UNL     1      48.691   6.603  17.856  0.00  0.00    +0.000 A 
ATOM      5  C   UNL     1      47.891   5.585  18.370  0.00  0.00    +0.000 A 
ATOM      6  C   UNL     1      47.445   4.583  17.511  0.00  0.00    +0.000 A 
ATOM      7  C   UNL     1      47.805   4.620  16.168  0.00  0.00    +0.000 A 
ATOM      8  N   UNL     1      48.576   5.608  15.640  0.00  0.00    +0.000 NA
BRANCH   3  10
ATOM      9  N   UNL     1      50.662   7.282  14.882  0.00  0.00    +0.000 N 
ATOM     10  C   UNL     1      49.865   7.656  15.926  0.00  0.00    +0.000 C 
ATOM     11  O   UNL     1      49.860   8.805  16.355  0.00  0.00    +0.000 OA
ATOM     12  H   UNL     1      51.255   7.968  14.443  0.00  0.00    +0.000 HD
ATOM     13  H   UNL     1      50.621   6.330  14.537  0.00  0.00    +0.000 HD
ENDBRANCH   3  10
ENDBRANCH   2   7
ENDBRANCH   1   2
BRANCH   1  14
ATOM     14  O   UNL     1      45.489   4.566  14.073  0.00  0.00    +0.000 OA
BRANCH  14  15
ATOM     15  C   UNL     1      44.757   4.654  12.913  0.00  0.00    +0.000 A 
ATOM     16  C   UNL     1      43.592   5.403  12.772  0.00  0.00    +0.000 A 
ATOM     17  C   UNL     1      42.929   5.446  11.549  0.00  0.00    +0.000 A 
ATOM     18  C   UNL     1      43.449   4.762  10.452  0.00  0.00    +0.000 A 
ATOM     19  C   UNL     1      44.662   4.052  10.535  0.00  0.00    +0.000 A 
ATOM     20  C   UNL     1      45.288   3.991  11.796  0.00  0.00    +0.000 A 
BRANCH  19  21
ATOM     21  C   UNL     1      45.285   3.478   9.318  0.00  0.00    +0.000 A 
ATOM     22  C   UNL     1      45.792   4.325   8.311  0.00  0.00    +0.000 A 
ATOM     23  C   UNL     1      46.446   3.823   7.183  0.00  0.00    +0.000 A 
ATOM     24  C   UNL     1      46.618   2.452   7.038  0.00  0.00    +0.000 A 
ATOM     25  C   UNL     1      46.119   1.588   8.009  0.00  0.00    +0.000 A 
ATOM     26  C   UNL     1      45.452   2.095   9.132  0.00  0.00    +0.000 A 
ENDBRANCH  19  21
ENDBRANCH  14  15
ENDBRANCH   1  14
TORSDOF 6
ENDMDL
MODEL 8
REMARK VINA RESULT:    -6.630      3.046      6.747
REMARK INTER + INTRA:         -10.113
REMARK INTER:                  -9.403
REMARK INTRA:                  -0.710
REMARK UNBOUND:                -1.157
REMARK  Name = 
REMARK  6 active torsions:
REMARK  status: ('A' for Active; 'I' for Inactive)
REMARK    1  A    between atoms: C_2  and  C_4
REMARK    2  A    between atoms: C_8  and  C_9
REMARK    3  A    between atoms: C_9  and  C_10
REMARK    4  A    between atoms: C_10  and  O_11
REMARK    5  A    between atoms: O_11  and  C_12
REMARK    6  A    between atoms: C_16  and  C_17
REMARK                            x       y       z     vdW  Elec       q    Type
REMARK                         _______ _______ _______ _____ _____    ______ ____
ROOT
ATOM      1  C   UNL     1      44.095   4.134  11.546  0.00  0.00    +0.000 C 
ENDROOT
BRANCH   1   2
ATOM      2  C   UNL     1      44.104   2.890  10.665  0.00  0.00    +0.000 C 
BRANCH   2   7
ATOM      3  C   UNL     1      46.359   2.039   7.870  0.00  0.00    +0.000 A 
ATOM      4  C   UNL     1      46.653   3.258   7.277  0.00  0.00    +0.000 A 
ATOM      5  C   UNL     1      46.067   4.406   7.805  0.00  0.00    +0.000 A 
ATOM      6  C   UNL     1      45.223   4.285   8.906  0.00  0.00    +0.000 A 
ATOM      7  C   UNL     1      44.985   3.027   9.453  0.00  0.00    +0.000 A 
ATOM      8  N   UNL     1      45.536   1.891   8.950  0.00  0.00    +0.000 NA
BRANCH   3  10
ATOM      9  N   UNL     1      47.748   0.943   6.208  0.00  0.00    +0.000 N 
ATOM     10  C   UNL     1      46.981   0.788   7.327  0.00  0.00    +0.000 C 
ATOM     11  O   UNL     1      46.820  -0.309   7.852  0.00  0.00    +0.000 OA
ATOM     12  H   UNL     1      48.204   0.141   5.806  0.00  0.00    +0.000 HD
ATOM     13  H   UNL     1      47.880   1.869   5.817  0.00  0.00    +0.000 HD
ENDBRANCH   3  10
ENDBRANCH   2   7
ENDBRANCH   1   2
BRANCH   1  14
ATOM     14  O   UNL     1      45.422   4.465  11.981  0.00  0.00    +0.000 OA
BRANCH  14  15
ATOM     15  C   UNL     1      45.681   5.811  12.076  0.00  0.00    +0.000 A 
ATOM     16  C   UNL     1      44.705   6.791  12.240  0.00  0.00    +0.000 A 
ATOM     17  C   UNL     1      45.067   8.130  12.346  0.00  0.00    +0.000 A 
ATOM     18  C   UNL     1      46.413   8.491  12.320  0.00  0.00    +0.000 A 
ATOM     19  C   UNL     1      47.432   7.525  12.227  0.00  0.00    +0.000 A 
ATOM     20  C   UNL     1      47.035   6.180  12.078  0.00  0.00    +0.000 A 
BRANCH  19  21
ATOM     21  C   UNL     1      48.856   7.912  12.375  0.00  0.00    +0.000 A 
ATOM     22  C   UNL     1      49.349   8.347  13.623  0.00  0.00    +0.000 A 
ATOM     23  C   UNL     1      50.698   8.656  13.817  0.00  0.00    +0.000 A 
ATOM     24  C   UNL     1      51.594   8.529  12.763  0.00  0.00    +0.000 A 
ATOM     25  C   UNL     1      51.136   8.114  11.515  0.00  0.00    +0.000 A 
ATOM     26  C   UNL     1      49.780   7.817  11.321  0.00  0.00    +0.000 A 
ENDBRANCH  19  21
ENDBRANCH  14  15
ENDBRANCH   1  14
TORSDOF 6
ENDMDL
MODEL 9
REMARK VINA RESULT:    -6.627      2.286      4.203
REMARK INTER + INTRA:         -10.108
REMARK INTER:                  -9.179
REMARK INTRA:                  -0.929
REMARK UNBOUND:                -1.157
REMARK  Name = 
REMARK  6 active torsions:
REMARK  status: ('A' for Active; 'I' for Inactive)
REMARK    1  A    between atoms: C_2  and  C_4
REMARK    2  A    between atoms: C_8  and  C_9
REMARK    3  A    between atoms: C_9  and  C_10
REMARK    4  A    between atoms: C_10  and  O_11
REMARK    5  A    between atoms: O_11  and  C_12
REMARK    6  A    between atoms: C_16  and  C_17
REMARK                            x       y       z     vdW  Elec       q    Type
REMARK                         _______ _______ _______ _____ _____    ______ ____
ROOT
ATOM      1  C   UNL     1      48.942   8.486  14.069  0.00  0.00    +0.000 C 
ENDROOT
BRANCH   1   2
ATOM      2  C   UNL     1      49.980   7.594  14.737  0.00  0.00    +0.000 C 
BRANCH   2   7
ATOM      3  C   UNL     1      48.095   5.048  16.631  0.00  0.00    +0.000 A 
ATOM      4  C   UNL     1      48.343   5.352  17.961  0.00  0.00    +0.000 A 
ATOM      5  C   UNL     1      49.183   6.424  18.249  0.00  0.00    +0.000 A 
ATOM      6  C   UNL     1      49.729   7.151  17.193  0.00  0.00    +0.000 A 
ATOM      7  C   UNL     1      49.425   6.792  15.883  0.00  0.00    +0.000 A 
ATOM      8  N   UNL     1      48.617   5.743  15.577  0.00  0.00    +0.000 NA
BRANCH   3  10
ATOM      9  N   UNL     1      47.033   3.641  14.962  0.00  0.00    +0.000 N 
ATOM     10  C   UNL     1      47.189   3.904  16.294  0.00  0.00    +0.000 C 
ATOM     11  O   UNL     1      46.622   3.236  17.153  0.00  0.00    +0.000 OA
ATOM     12  H   UNL     1      46.448   2.875  14.675  0.00  0.00    +0.000 HD
ATOM     13  H   UNL     1      47.538   4.197  14.281  0.00  0.00    +0.000 HD
ENDBRANCH   3  10
ENDBRANCH   2   7
ENDBRANCH   1   2
BRANCH   1  14
ATOM     14  O   UNL     1      48.722   8.088  12.708  0.00  0.00    +0.000 OA
BRANCH  14  15
ATOM     15  C   UNL     1      47.403   7.926  12.358  0.00  0.00    +0.000 A 
ATOM     16  C   UNL     1      46.423   8.905  12.504  0.00  0.00    +0.000 A 
ATOM     17  C   UNL     1      45.115   8.653  12.102  0.00  0.00    +0.000 A 
ATOM     18  C   UNL     1      44.789   7.429  11.522  0.00  0.00    +0.000 A 
ATOM     19  C   UNL     1      45.764   6.441  11.292  0.00  0.00    +0.000 A 
ATOM     20  C   UNL     1      47.072   6.706  11.748  0.00  0.00    +0.000 A 
BRANCH  19  21
ATOM     21  C   UNL     1      45.434   5.219  10.519  0.00  0.00    +0.000 A 
ATOM     22  C   UNL     1      44.743   4.154  11.134  0.00  0.00    +0.000 A 
ATOM     23  C   UNL     1      44.356   3.017  10.421  0.00  0.00    +0.000 A 
ATOM     24  C   UNL     1      44.644   2.919   9.066  0.00  0.00    +0.000 A 
ATOM     25  C   UNL     1      45.335   3.948   8.432  0.00  0.00    +0.000 A 
ATOM     26  C   UNL     1      45.733   5.082   9.153  0.00  0.00    +0.000 A 
ENDBRANCH  19  21
ENDBRANCH  14  15
ENDBRANCH   1  14
TORSDOF 6
ENDMDL
