MODEL 1
REMARK VINA RESULT:    -7.016      0.000      0.000
REMARK INTER + INTRA:         -10.282
REMARK INTER:                  -9.067
REMARK INTRA:                  -1.215
REMARK UNBOUND:                -1.215
REMARK  Name = 
REMARK  6 active torsions:
REMARK  status: ('A' for Active; 'I' for Inactive)
REMARK    1  A    between atoms: C_1  and  C_2
REMARK    2  A    between atoms: C_2  and  N_3
REMARK    3  A    between atoms: C_2  and  C_16
REMARK    4  A    between atoms: C_4  and  C_6
REMARK    5  A    between atoms: C_19  and  C_20
REMARK    6  A    between atoms: C_20  and  N_21
REMARK                            x       y       z     vdW  Elec       q    Type
REMARK                         _______ _______ _______ _____ _____    ______ ____
ROOT
ATOM      1  C   UNL     1      48.280   6.639  18.717  0.00  0.00    +0.000 C 
ATOM      2  C   UNL     1      49.242   6.254  17.582  0.00  0.00    +0.000 C 
ENDROOT
BRANCH   2   3
ATOM      3  C   UNL     1      48.442   5.740  16.383  0.00  0.00    +0.000 A 
ATOM      4  C   UNL     1      47.678   4.567  16.495  0.00  0.00    +0.000 A 
ATOM      5  C   UNL     1      46.947   4.071  15.403  0.00  0.00    +0.000 A 
ATOM      6  C   UNL     1      46.911   4.762  14.175  0.00  0.00    +0.000 A 
ATOM      7  C   UNL     1      47.647   5.953  14.082  0.00  0.00    +0.000 A 
ATOM      8 CL   UNL     1      47.592   6.961  12.675  0.00  0.00    +0.000 Cl
ATOM      9  C   UNL     1      48.449   6.394  15.144  0.00  0.00    +0.000 A 
BRANCH   6  10
ATOM     10  C   UNL     1      46.130   4.184  13.002  0.00  0.00    +0.000 C 
BRANCH  10  11
ATOM     11  N   UNL     1      44.673   4.302  13.135  0.00  0.00    +0.000 NA
ATOM     12  C   UNL     1      43.860   3.329  12.399  0.00  0.00    +0.000 C 
ATOM     13  C   UNL     1      43.455   3.734  10.980  0.00  0.00    +0.000 C 
ATOM     14  O   UNL     1      42.740   4.965  10.971  0.00  0.00    +0.000 OA
ATOM     15  C   UNL     1      43.404   6.030  11.644  0.00  0.00    +0.000 C 
ATOM     16  C   UNL     1      44.175   5.672  12.936  0.00  0.00    +0.000 C 
ENDBRANCH  10  11
ENDBRANCH   6  10
ENDBRANCH   2   3
BRANCH   2  17
ATOM     17  N   UNL     1      50.272   5.300  18.007  0.00  0.00    +0.000 N 
ATOM     18  C   UNL     1      51.534   5.286  17.462  0.00  0.00    +0.000 C 
ATOM     19  O   UNL     1      51.888   6.106  16.614  0.00  0.00    +0.000 OA
ATOM     20  H   UNL     1      49.939   4.422  18.391  0.00  0.00    +0.000 HD
BRANCH  18  21
ATOM     21  C   UNL     1      52.479   4.292  17.977  0.00  0.00    +0.000 A 
ATOM     22  C   UNL     1      53.643   4.720  18.602  0.00  0.00    +0.000 A 
ATOM     23  S   UNL     1      54.629   3.447  19.157  0.00  0.00    +0.000 S 
ATOM     24  C   UNL     1      53.558   2.278  18.540  0.00  0.00    +0.000 A 
ATOM     25  N   UNL     1      53.833   0.951  18.648  0.00  0.00    +0.000 NA
ATOM     26  C   UNL     1      52.957   0.180  18.100  0.00  0.00    +0.000 A 
ATOM     27  N   UNL     1      51.823   0.614  17.462  0.00  0.00    +0.000 N 
ATOM     28  C   UNL     1      51.479   1.944  17.371  0.00  0.00    +0.000 A 
ATOM     29  O   UNL     1      50.429   2.305  16.852  0.00  0.00    +0.000 OA
ATOM     30  C   UNL     1      52.450   2.853  17.943  0.00  0.00    +0.000 A 
ATOM     31  H   UNL     1      51.170  -0.047  17.067  0.00  0.00    +0.000 HD
ENDBRANCH  18  21
ENDBRANCH   2  17
TORSDOF 5
ENDMDL
MODEL 2
REMARK VINA RESULT:    -6.983      4.355      7.102
REMARK INTER + INTRA:         -10.239
REMARK INTER:                  -9.618
REMARK INTRA:                  -0.620
REMARK UNBOUND:                -1.215
REMARK  Name = 
REMARK  6 active torsions:
REMARK  status: ('A' for Active; 'I' for Inactive)
REMARK    1  A    between atoms: C_1  and  C_2
REMARK    2  A    between atoms: C_2  and  N_3
REMARK    3  A    between atoms: C_2  and  C_16
REMARK    4  A    between atoms: C_4  and  C_6
REMARK    5  A    between atoms: C_19  and  C_20
REMARK    6  A    between atoms: C_20  and  N_21
REMARK                            x       y       z     vdW  Elec       q    Type
REMARK                         _______ _______ _______ _____ _____    ______ ____
ROOT
ATOM      1  C   UNL     1      43.155   4.876  13.239  0.00  0.00    +0.000 C 
ATOM      2  C   UNL     1      44.215   5.744  12.544  0.00  0.00    +0.000 C 
ENDROOT
BRANCH   2   3
ATOM      3  C   UNL     1      44.589   5.120  11.198  0.00  0.00    +0.000 A 
ATOM      4  C   UNL     1      45.426   5.812  10.308  0.00  0.00    +0.000 A 
ATOM      5  C   UNL     1      45.772   5.262   9.063  0.00  0.00    +0.000 A 
ATOM      6  C   UNL     1      45.336   3.976   8.687  0.00  0.00    +0.000 A 
ATOM      7  C   UNL     1      44.531   3.275   9.597  0.00  0.00    +0.000 A 
ATOM      8 CL   UNL     1      44.030   1.642   9.314  0.00  0.00    +0.000 Cl
ATOM      9  C   UNL     1      44.113   3.864  10.798  0.00  0.00    +0.000 A 
BRANCH   6  10
ATOM     10  C   UNL     1      45.707   3.419   7.318  0.00  0.00    +0.000 C 
BRANCH  10  11
ATOM     11  N   UNL     1      46.996   2.717   7.286  0.00  0.00    +0.000 NA
ATOM     12  C   UNL     1      47.895   3.035   6.172  0.00  0.00    +0.000 C 
ATOM     13  C   UNL     1      47.740   2.168   4.920  0.00  0.00    +0.000 C 
ATOM     14  O   UNL     1      47.915   0.787   5.214  0.00  0.00    +0.000 OA
ATOM     15  C   UNL     1      47.099   0.310   6.279  0.00  0.00    +0.000 C 
ATOM     16  C   UNL     1      46.878   1.263   7.477  0.00  0.00    +0.000 C 
ENDBRANCH  10  11
ENDBRANCH   6  10
ENDBRANCH   2   3
BRANCH   2  17
ATOM     17  N   UNL     1      45.393   5.987  13.385  0.00  0.00    +0.000 N 
ATOM     18  C   UNL     1      46.138   4.966  13.924  0.00  0.00    +0.000 C 
ATOM     19  O   UNL     1      45.885   3.782  13.694  0.00  0.00    +0.000 OA
ATOM     20  H   UNL     1      45.411   6.869  13.886  0.00  0.00    +0.000 HD
BRANCH  18  21
ATOM     21  C   UNL     1      47.298   5.335  14.739  0.00  0.00    +0.000 A 
ATOM     22  C   UNL     1      47.465   4.751  15.988  0.00  0.00    +0.000 A 
ATOM     23  S   UNL     1      48.867   5.271  16.804  0.00  0.00    +0.000 S 
ATOM     24  C   UNL     1      49.275   6.329  15.535  0.00  0.00    +0.000 A 
ATOM     25  N   UNL     1      50.376   7.123  15.616  0.00  0.00    +0.000 NA
ATOM     26  C   UNL     1      50.543   7.905  14.604  0.00  0.00    +0.000 A 
ATOM     27  N   UNL     1      49.714   7.958  13.511  0.00  0.00    +0.000 N 
ATOM     28  C   UNL     1      48.617   7.138  13.365  0.00  0.00    +0.000 A 
ATOM     29  O   UNL     1      47.927   7.159  12.353  0.00  0.00    +0.000 OA
ATOM     30  C   UNL     1      48.369   6.264  14.493  0.00  0.00    +0.000 A 
ATOM     31  H   UNL     1      49.912   8.584  12.745  0.00  0.00    +0.000 HD
ENDBRANCH  18  21
ENDBRANCH   2  17
TORSDOF 5
ENDMDL
MODEL 3
REMARK VINA RESULT:    -6.751      4.530      8.660
REMARK INTER + INTRA:          -9.939
REMARK INTER:                  -8.789
REMARK INTRA:                  -1.150
REMARK UNBOUND:                -1.215
REMARK  Name = 
REMARK  6 active torsions:
REMARK  status: ('A' for Active; 'I' for Inactive)
REMARK    1  A    between atoms: C_1  and  C_2
REMARK    2  A    between atoms: C_2  and  N_3
REMARK    3  A    between atoms: C_2  and  C_16
REMARK    4  A    between atoms: C_4  and  C_6
REMARK    5  A    between atoms: C_19  and  C_20
REMARK    6  A    between atoms: C_20  and  N_21
REMARK                            x       y       z     vdW  Elec       q    Type
REMARK                         _______ _______ _______ _____ _____    ______ ____
ROOT
ATOM      1  C   UNL     1      47.919   3.155  16.894  0.00  0.00    +0.000 C 
ATOM      2  C   UNL     1      48.098   4.560  16.301  0.00  0.00    +0.000 C 
ENDROOT
BRANCH   2   3
ATOM      3  C   UNL     1      48.094   5.597  17.426  0.00  0.00    +0.000 A 
ATOM      4  C   UNL     1      47.283   5.409  18.557  0.00  0.00    +0.000 A 
ATOM      5  C   UNL     1      47.256   6.354  19.595  0.00  0.00    +0.000 A 
ATOM      6  C   UNL     1      48.081   7.496  19.563  0.00  0.00    +0.000 A 
ATOM      7  C   UNL     1      48.916   7.659  18.448  0.00  0.00    +0.000 A 
ATOM      8 CL   UNL     1      50.066   8.949  18.341  0.00  0.00    +0.000 Cl
ATOM      9  C   UNL     1      48.872   6.762  17.372  0.00  0.00    +0.000 A 
BRANCH   6  10
ATOM     10  C   UNL     1      48.008   8.517  20.693  0.00  0.00    +0.000 C 
BRANCH  10  11
ATOM     11  N   UNL     1      46.879   9.448  20.588  0.00  0.00    +0.000 NA
ATOM     12  C   UNL     1      47.002  10.528  19.604  0.00  0.00    +0.000 C 
ATOM     13  C   UNL     1      47.628  11.829  20.116  0.00  0.00    +0.000 C 
ATOM     14  O   UNL     1      46.909  12.356  21.225  0.00  0.00    +0.000 OA
ATOM     15  C   UNL     1      46.708  11.425  22.284  0.00  0.00    +0.000 C 
ATOM     16  C   UNL     1      46.416   9.959  21.887  0.00  0.00    +0.000 C 
ENDBRANCH  10  11
ENDBRANCH   6  10
ENDBRANCH   2   3
BRANCH   2  17
ATOM     17  N   UNL     1      47.108   4.871  15.263  0.00  0.00    +0.000 N 
ATOM     18  C   UNL     1      47.422   5.597  14.138  0.00  0.00    +0.000 C 
ATOM     19  O   UNL     1      48.568   5.991  13.915  0.00  0.00    +0.000 OA
ATOM     20  H   UNL     1      46.140   4.904  15.562  0.00  0.00    +0.000 HD
BRANCH  18  21
ATOM     21  C   UNL     1      46.351   5.834  13.168  0.00  0.00    +0.000 A 
ATOM     22  C   UNL     1      46.019   7.139  12.826  0.00  0.00    +0.000 A 
ATOM     23  S   UNL     1      44.767   7.247  11.677  0.00  0.00    +0.000 S 
ATOM     24  C   UNL     1      44.593   5.555  11.630  0.00  0.00    +0.000 A 
ATOM     25  N   UNL     1      43.643   4.972  10.851  0.00  0.00    +0.000 NA
ATOM     26  C   UNL     1      43.595   3.687  10.944  0.00  0.00    +0.000 A 
ATOM     27  N   UNL     1      44.418   2.928  11.738  0.00  0.00    +0.000 N 
ATOM     28  C   UNL     1      45.424   3.471  12.504  0.00  0.00    +0.000 A 
ATOM     29  O   UNL     1      46.188   2.770  13.157  0.00  0.00    +0.000 OA
ATOM     30  C   UNL     1      45.497   4.917  12.460  0.00  0.00    +0.000 A 
ATOM     31  H   UNL     1      44.336   1.923  11.752  0.00  0.00    +0.000 HD
ENDBRANCH  18  21
ENDBRANCH   2  17
TORSDOF 5
ENDMDL
MODEL 4
REMARK VINA RESULT:    -6.630      4.378      8.748
REMARK INTER + INTRA:          -9.783
REMARK INTER:                  -8.734
REMARK INTRA:                  -1.049
REMARK UNBOUND:                -1.215
REMARK  Name = 
REMARK  6 active torsions:
REMARK  status: ('A' for Active; 'I' for Inactive)
REMARK    1  A    between atoms: C_1  and  C_2
REMARK    2  A    between atoms: C_2  and  N_3
REMARK    3  A    between atoms: C_2  and  C_16
REMARK    4  A    between atoms: C_4  and  C_6
REMARK    5  A    between atoms: C_19  and  C_20
REMARK    6  A    between atoms: C_20  and  N_21
REMARK                            x       y       z     vdW  Elec       q    Type
REMARK                         _______ _______ _______ _____ _____    ______ ____
ROOT
ATOM      1  C   UNL     1      49.655   7.624  12.682  0.00  0.00    +0.000 C 
ATOM      2  C   UNL     1      48.370   7.175  13.394  0.00  0.00    +0.000 C 
ENDROOT
BRANCH   2   3
ATOM      3  C   UNL     1      48.717   6.605  14.771  0.00  0.00    +0.000 A 
ATOM      4  C   UNL     1      49.811   7.113  15.490  0.00  0.00    +0.000 A 
ATOM      5  C   UNL     1      50.154   6.596  16.750  0.00  0.00    +0.000 A 
ATOM      6  C   UNL     1      49.381   5.588  17.359  0.00  0.00    +0.000 A 
ATOM      7  C   UNL     1      48.267   5.110  16.651  0.00  0.00    +0.000 A 
ATOM      8 CL   UNL     1      47.164   3.964  17.335  0.00  0.00    +0.000 Cl
ATOM      9  C   UNL     1      47.983   5.564  15.356  0.00  0.00    +0.000 A 
BRANCH   6  10
ATOM     10  C   UNL     1      49.794   5.029  18.715  0.00  0.00    +0.000 C 
BRANCH  10  11
ATOM     11  N   UNL     1      49.742   6.007  19.808  0.00  0.00    +0.000 NA
ATOM     12  C   UNL     1      50.047   5.513  21.154  0.00  0.00    +0.000 C 
ATOM     13  C   UNL     1      48.853   5.002  21.965  0.00  0.00    +0.000 C 
ATOM     14  O   UNL     1      47.850   6.002  22.106  0.00  0.00    +0.000 OA
ATOM     15  C   UNL     1      47.430   6.584  20.876  0.00  0.00    +0.000 C 
ATOM     16  C   UNL     1      48.519   6.825  19.805  0.00  0.00    +0.000 C 
ENDBRANCH  10  11
ENDBRANCH   6  10
ENDBRANCH   2   3
BRANCH   2  17
ATOM     17  N   UNL     1      47.573   6.237  12.595  0.00  0.00    +0.000 N 
ATOM     18  C   UNL     1      46.489   6.639  11.851  0.00  0.00    +0.000 C 
ATOM     19  O   UNL     1      46.150   7.821  11.777  0.00  0.00    +0.000 OA
ATOM     20  H   UNL     1      47.571   5.272  12.907  0.00  0.00    +0.000 HD
BRANCH  18  21
ATOM     21  C   UNL     1      45.778   5.611  11.086  0.00  0.00    +0.000 A 
ATOM     22  C   UNL     1      45.825   5.642   9.698  0.00  0.00    +0.000 A 
ATOM     23  S   UNL     1      44.964   4.374   8.956  0.00  0.00    +0.000 S 
ATOM     24  C   UNL     1      44.460   3.765  10.463  0.00  0.00    +0.000 A 
ATOM     25  N   UNL     1      43.644   2.681  10.540  0.00  0.00    +0.000 NA
ATOM     26  C   UNL     1      43.306   2.354  11.742  0.00  0.00    +0.000 A 
ATOM     27  N   UNL     1      43.719   3.007  12.876  0.00  0.00    +0.000 N 
ATOM     28  C   UNL     1      44.583   4.078  12.848  0.00  0.00    +0.000 A 
ATOM     29  O   UNL     1      44.989   4.606  13.876  0.00  0.00    +0.000 OA
ATOM     30  C   UNL     1      44.965   4.505  11.517  0.00  0.00    +0.000 A 
ATOM     31  H   UNL     1      43.429   2.688  13.788  0.00  0.00    +0.000 HD
ENDBRANCH  18  21
ENDBRANCH   2  17
TORSDOF 5
ENDMDL
MODEL 5
REMARK VINA RESULT:    -6.498      4.514      8.677
REMARK INTER + INTRA:          -9.612
REMARK INTER:                  -8.622
REMARK INTRA:                  -0.990
REMARK UNBOUND:                -1.215
REMARK  Name = 
REMARK  6 active torsions:
REMARK  status: ('A' for Active; 'I' for Inactive)
REMARK    1  A    between atoms: C_1  and  C_2
REMARK    2  A    between atoms: C_2  and  N_3
REMARK    3  A    between atoms: C_2  and  C_16
REMARK    4  A    between atoms: C_4  and  C_6
REMARK    5  A    between atoms: C_19  and  C_20
REMARK    6  A    between atoms: C_20  and  N_21
REMARK                            x       y       z     vdW  Elec       q    Type
REMARK                         _______ _______ _______ _____ _____    ______ ____
ROOT
ATOM      1  C   UNL     1      49.811   8.295  11.647  0.00  0.00    +0.000 C 
ATOM      2  C   UNL     1      48.420   8.078  12.261  0.00  0.00    +0.000 C 
ENDROOT
BRANCH   2   3
ATOM      3  C   UNL     1      48.548   7.908  13.776  0.00  0.00    +0.000 A 
ATOM      4  C   UNL     1      49.023   6.701  14.313  0.00  0.00    +0.000 A 
ATOM      5  C   UNL     1      49.137   6.520  15.701  0.00  0.00    +0.000 A 
ATOM      6  C   UNL     1      48.830   7.562  16.600  0.00  0.00    +0.000 A 
ATOM      7  C   UNL     1      48.391   8.778  16.055  0.00  0.00    +0.000 A 
ATOM      8 CL   UNL     1      48.099  10.174  17.036  0.00  0.00    +0.000 Cl
ATOM      9  C   UNL     1      48.191   8.923  14.675  0.00  0.00    +0.000 A 
BRANCH   6  10
ATOM     10  C   UNL     1      48.939   7.325  18.101  0.00  0.00    +0.000 C 
BRANCH  10  11
ATOM     11  N   UNL     1      48.417   6.026  18.542  0.00  0.00    +0.000 NA
ATOM     12  C   UNL     1      47.180   6.042  19.329  0.00  0.00    +0.000 C 
ATOM     13  C   UNL     1      47.355   6.141  20.847  0.00  0.00    +0.000 C 
ATOM     14  O   UNL     1      48.156   5.079  21.353  0.00  0.00    +0.000 OA
ATOM     15  C   UNL     1      49.410   4.930  20.694  0.00  0.00    +0.000 C 
ATOM     16  C   UNL     1      49.435   5.166  19.166  0.00  0.00    +0.000 C 
ENDBRANCH  10  11
ENDBRANCH   6  10
ENDBRANCH   2   3
BRANCH   2  17
ATOM     17  N   UNL     1      47.691   6.965  11.642  0.00  0.00    +0.000 N 
ATOM     18  C   UNL     1      46.320   6.949  11.539  0.00  0.00    +0.000 C 
ATOM     19  O   UNL     1      45.625   7.891  11.922  0.00  0.00    +0.000 OA
ATOM     20  H   UNL     1      48.151   6.062  11.663  0.00  0.00    +0.000 HD
BRANCH  18  21
ATOM     21  C   UNL     1      45.707   5.787  10.891  0.00  0.00    +0.000 A 
ATOM     22  C   UNL     1      45.851   5.618   9.519  0.00  0.00    +0.000 A 
ATOM     23  S   UNL     1      45.095   4.214   8.920  0.00  0.00    +0.000 S 
ATOM     24  C   UNL     1      44.510   3.807  10.465  0.00  0.00    +0.000 A 
ATOM     25  N   UNL     1      43.735   2.705  10.650  0.00  0.00    +0.000 NA
ATOM     26  C   UNL     1      43.327   2.540  11.862  0.00  0.00    +0.000 A 
ATOM     27  N   UNL     1      43.632   3.370  12.911  0.00  0.00    +0.000 N 
ATOM     28  C   UNL     1      44.453   4.468  12.780  0.00  0.00    +0.000 A 
ATOM     29  O   UNL     1      44.763   5.160  13.743  0.00  0.00    +0.000 OA
ATOM     30  C   UNL     1      44.910   4.716  11.428  0.00  0.00    +0.000 A 
ATOM     31  H   UNL     1      43.291   3.174  13.840  0.00  0.00    +0.000 HD
ENDBRANCH  18  21
ENDBRANCH   2  17
TORSDOF 5
ENDMDL
MODEL 6
REMARK VINA RESULT:    -6.491      4.394      6.743
REMARK INTER + INTRA:          -9.603
REMARK INTER:                  -8.601
REMARK INTRA:                  -1.002
REMARK UNBOUND:                -1.215
REMARK  Name = 
REMARK  6 active torsions:
REMARK  status: ('A' for Active; 'I' for Inactive)
REMARK    1  A    between atoms: C_1  and  C_2
REMARK    2  A    between atoms: C_2  and  N_3
REMARK    3  A    between atoms: C_2  and  C_16
REMARK    4  A    between atoms: C_4  and  C_6
REMARK    5  A    between atoms: C_19  and  C_20
REMARK    6  A    between atoms: C_20  and  N_21
REMARK                            x       y       z     vdW  Elec       q    Type
REMARK                         _______ _______ _______ _____ _____    ______ ____
ROOT
ATOM      1  C   UNL     1      44.321   4.585  13.564  0.00  0.00    +0.000 C 
ATOM      2  C   UNL     1      45.128   5.550  12.683  0.00  0.00    +0.000 C 
ENDROOT
BRANCH   2   3
ATOM      3  C   UNL     1      45.222   4.991  11.262  0.00  0.00    +0.000 A 
ATOM      4  C   UNL     1      45.871   5.725  10.256  0.00  0.00    +0.000 A 
ATOM      5  C   UNL     1      45.958   5.235   8.942  0.00  0.00    +0.000 A 
ATOM      6  C   UNL     1      45.446   3.968   8.601  0.00  0.00    +0.000 A 
ATOM      7  C   UNL     1      44.831   3.223   9.619  0.00  0.00    +0.000 A 
ATOM      8 CL   UNL     1      44.271   1.605   9.366  0.00  0.00    +0.000 Cl
ATOM      9  C   UNL     1      44.665   3.754  10.906  0.00  0.00    +0.000 A 
BRANCH   6  10
ATOM     10  C   UNL     1      45.532   3.476   7.161  0.00  0.00    +0.000 C 
BRANCH  10  11
ATOM     11  N   UNL     1      46.872   3.032   6.759  0.00  0.00    +0.000 NA
ATOM     12  C   UNL     1      47.198   3.120   5.332  0.00  0.00    +0.000 C 
ATOM     13  C   UNL     1      46.871   1.880   4.495  0.00  0.00    +0.000 C 
ATOM     14  O   UNL     1      47.523   0.720   5.000  0.00  0.00    +0.000 OA
ATOM     15  C   UNL     1      47.299   0.483   6.386  0.00  0.00    +0.000 C 
ATOM     16  C   UNL     1      47.246   1.721   7.312  0.00  0.00    +0.000 C 
ENDBRANCH  10  11
ENDBRANCH   6  10
ENDBRANCH   2   3
BRANCH   2  17
ATOM     17  N   UNL     1      46.449   5.861  13.240  0.00  0.00    +0.000 N 
ATOM     18  C   UNL     1      46.922   7.148  13.340  0.00  0.00    +0.000 C 
ATOM     19  O   UNL     1      46.244   8.121  13.008  0.00  0.00    +0.000 OA
ATOM     20  H   UNL     1      47.149   5.130  13.171  0.00  0.00    +0.000 HD
BRANCH  18  21
ATOM     21  C   UNL     1      48.253   7.333  13.924  0.00  0.00    +0.000 A 
ATOM     22  C   UNL     1      49.141   8.219  13.327  0.00  0.00    +0.000 A 
ATOM     23  S   UNL     1      50.637   8.335  14.131  0.00  0.00    +0.000 S 
ATOM     24  C   UNL     1      50.169   7.170  15.280  0.00  0.00    +0.000 A 
ATOM     25  N   UNL     1      51.025   6.769  16.257  0.00  0.00    +0.000 NA
ATOM     26  C   UNL     1      50.555   5.852  17.032  0.00  0.00    +0.000 A 
ATOM     27  N   UNL     1      49.301   5.305  16.926  0.00  0.00    +0.000 N 
ATOM     28  C   UNL     1      48.385   5.714  15.984  0.00  0.00    +0.000 A 
ATOM     29  O   UNL     1      47.248   5.256  15.947  0.00  0.00    +0.000 OA
ATOM     30  C   UNL     1      48.878   6.721  15.067  0.00  0.00    +0.000 A 
ATOM     31  H   UNL     1      48.990   4.599  17.577  0.00  0.00    +0.000 HD
ENDBRANCH  18  21
ENDBRANCH   2  17
TORSDOF 5
ENDMDL
MODEL 7
REMARK VINA RESULT:    -6.407      5.153      9.010
REMARK INTER + INTRA:          -9.494
REMARK INTER:                  -8.386
REMARK INTRA:                  -1.108
REMARK UNBOUND:                -1.215
REMARK  Name = 
REMARK  6 active torsions:
REMARK  status: ('A' for Active; 'I' for Inactive)
REMARK    1  A    between atoms: C_1  and  C_2
REMARK    2  A    between atoms: C_2  and  N_3
REMARK    3  A    between atoms: C_2  and  C_16
REMARK    4  A    between atoms: C_4  and  C_6
REMARK    5  A    between atoms: C_19  and  C_20
REMARK    6  A    between atoms: C_20  and  N_21
REMARK                            x       y       z     vdW  Elec       q    Type
REMARK                         _______ _______ _______ _____ _____    ______ ____
ROOT
ATOM      1  C   UNL     1      49.199   7.722  11.734  0.00  0.00    +0.000 C 
ATOM      2  C   UNL     1      47.891   7.621  12.534  0.00  0.00    +0.000 C 
ENDROOT
BRANCH   2   3
ATOM      3  C   UNL     1      48.197   7.697  14.031  0.00  0.00    +0.000 A 
ATOM      4  C   UNL     1      48.578   6.542  14.733  0.00  0.00    +0.000 A 
ATOM      5  C   UNL     1      48.851   6.588  16.110  0.00  0.00    +0.000 A 
ATOM      6  C   UNL     1      48.806   7.803  16.822  0.00  0.00    +0.000 A 
ATOM      7  C   UNL     1      48.461   8.960  16.107  0.00  0.00    +0.000 A 
ATOM      8 CL   UNL     1      48.488  10.532  16.831  0.00  0.00    +0.000 Cl
ATOM      9  C   UNL     1      48.099   8.894  14.754  0.00  0.00    +0.000 A 
BRANCH   6  10
ATOM     10  C   UNL     1      49.083   7.815  18.321  0.00  0.00    +0.000 C 
BRANCH  10  11
ATOM     11  N   UNL     1      47.875   7.890  19.152  0.00  0.00    +0.000 NA
ATOM     12  C   UNL     1      47.921   8.794  20.305  0.00  0.00    +0.000 C 
ATOM     13  C   UNL     1      48.414   8.180  21.617  0.00  0.00    +0.000 C 
ATOM     14  O   UNL     1      47.625   7.058  22.000  0.00  0.00    +0.000 OA
ATOM     15  C   UNL     1      47.487   6.070  20.984  0.00  0.00    +0.000 C 
ATOM     16  C   UNL     1      47.339   6.572  19.529  0.00  0.00    +0.000 C 
ENDBRANCH  10  11
ENDBRANCH   6  10
ENDBRANCH   2   3
BRANCH   2  17
ATOM     17  N   UNL     1      47.104   6.431  12.192  0.00  0.00    +0.000 N 
ATOM     18  C   UNL     1      45.731   6.409  12.262  0.00  0.00    +0.000 C 
ATOM     19  O   UNL     1      45.078   7.406  12.573  0.00  0.00    +0.000 OA
ATOM     20  H   UNL     1      47.573   5.538  12.299  0.00  0.00    +0.000 HD
BRANCH  18  21
ATOM     21  C   UNL     1      45.056   5.165  11.886  0.00  0.00    +0.000 A 
ATOM     22  C   UNL     1      44.351   4.455  12.850  0.00  0.00    +0.000 A 
ATOM     23  S   UNL     1      43.612   3.042  12.254  0.00  0.00    +0.000 S 
ATOM     24  C   UNL     1      44.247   3.304  10.697  0.00  0.00    +0.000 A 
ATOM     25  N   UNL     1      44.017   2.418   9.691  0.00  0.00    +0.000 NA
ATOM     26  C   UNL     1      44.592   2.719   8.577  0.00  0.00    +0.000 A 
ATOM     27  N   UNL     1      45.368   3.831   8.372  0.00  0.00    +0.000 N 
ATOM     28  C   UNL     1      45.588   4.779   9.347  0.00  0.00    +0.000 A 
ATOM     29  O   UNL     1      46.232   5.796   9.123  0.00  0.00    +0.000 OA
ATOM     30  C   UNL     1      44.989   4.468  10.629  0.00  0.00    +0.000 A 
ATOM     31  H   UNL     1      45.778   4.014   7.468  0.00  0.00    +0.000 HD
ENDBRANCH  18  21
ENDBRANCH   2  17
TORSDOF 5
ENDMDL
MODEL 8
REMARK VINA RESULT:    -6.142      3.674      6.175
REMARK INTER + INTRA:          -9.152
REMARK INTER:                  -7.990
REMARK INTRA:                  -1.162
REMARK UNBOUND:                -1.215
REMARK  Name = 
REMARK  6 active torsions:
REMARK  status: ('A' for Active; 'I' for Inactive)
REMARK    1  A    between atoms: C_1  and  C_2
REMARK    2  A    between atoms: C_2  and  N_3
REMARK    3  A    between atoms: C_2  and  C_16
REMARK    4  A    between atoms: C_4  and  C_6
REMARK    5  A    between atoms: C_19  and  C_20
REMARK    6  A    between atoms: C_20  and  N_21
REMARK                            x       y       z     vdW  Elec       q    Type
REMARK                         _______ _______ _______ _____ _____    ______ ____
ROOT
ATOM      1  C   UNL     1      50.925   5.810  17.273  0.00  0.00    +0.000 C 
ATOM      2  C   UNL     1      49.426   5.867  17.602  0.00  0.00    +0.000 C 
ENDROOT
BRANCH   2   3
ATOM      3  C   UNL     1      48.611   5.710  16.317  0.00  0.00    +0.000 A 
ATOM      4  C   UNL     1      47.719   4.636  16.172  0.00  0.00    +0.000 A 
ATOM      5  C   UNL     1      46.971   4.467  14.996  0.00  0.00    +0.000 A 
ATOM      6  C   UNL     1      47.048   5.400  13.943  0.00  0.00    +0.000 A 
ATOM      7  C   UNL     1      47.914   6.492  14.108  0.00  0.00    +0.000 A 
ATOM      8 CL   UNL     1      48.012   7.773  12.948  0.00  0.00    +0.000 Cl
ATOM      9  C   UNL     1      48.727   6.606  15.245  0.00  0.00    +0.000 A 
BRANCH   6  10
ATOM     10  C   UNL     1      46.244   5.175  12.668  0.00  0.00    +0.000 C 
BRANCH  10  11
ATOM     11  N   UNL     1      45.086   4.289  12.839  0.00  0.00    +0.000 NA
ATOM     12  C   UNL     1      45.055   3.075  12.017  0.00  0.00    +0.000 C 
ATOM     13  C   UNL     1      44.364   3.208  10.657  0.00  0.00    +0.000 C 
ATOM     14  O   UNL     1      43.019   3.653  10.794  0.00  0.00    +0.000 OA
ATOM     15  C   UNL     1      42.874   4.840  11.567  0.00  0.00    +0.000 C 
ATOM     16  C   UNL     1      43.796   4.994  12.799  0.00  0.00    +0.000 C 
ENDBRANCH  10  11
ENDBRANCH   6  10
ENDBRANCH   2   3
BRANCH   2  17
ATOM     17  N   UNL     1      49.051   7.073  18.348  0.00  0.00    +0.000 N 
ATOM     18  C   UNL     1      47.926   7.134  19.136  0.00  0.00    +0.000 C 
ATOM     19  O   UNL     1      47.189   6.160  19.296  0.00  0.00    +0.000 OA
ATOM     20  H   UNL     1      49.383   7.954  17.971  0.00  0.00    +0.000 HD
BRANCH  18  21
ATOM     21  C   UNL     1      47.663   8.391  19.840  0.00  0.00    +0.000 A 
ATOM     22  C   UNL     1      47.460   8.372  21.214  0.00  0.00    +0.000 A 
ATOM     23  S   UNL     1      47.182   9.912  21.886  0.00  0.00    +0.000 S 
ATOM     24  C   UNL     1      47.278  10.653  20.357  0.00  0.00    +0.000 A 
ATOM     25  N   UNL     1      47.089  11.993  20.218  0.00  0.00    +0.000 NA
ATOM     26  C   UNL     1      47.147  12.414  19.000  0.00  0.00    +0.000 A 
ATOM     27  N   UNL     1      47.388  11.619  17.908  0.00  0.00    +0.000 N 
ATOM     28  C   UNL     1      47.633  10.268  18.007  0.00  0.00    +0.000 A 
ATOM     29  O   UNL     1      47.908   9.589  17.025  0.00  0.00    +0.000 OA
ATOM     30  C   UNL     1      47.545   9.741  19.353  0.00  0.00    +0.000 A 
ATOM     31  H   UNL     1      47.435  12.017  16.982  0.00  0.00    +0.000 HD
ENDBRANCH  18  21
ENDBRANCH   2  17
TORSDOF 5
ENDMDL
MODEL 9
REMARK VINA RESULT:    -6.069      4.851      8.964
REMARK INTER + INTRA:          -9.058
REMARK INTER:                  -8.053
REMARK INTRA:                  -1.005
REMARK UNBOUND:                -1.215
REMARK  Name = 
REMARK  6 active torsions:
REMARK  status: ('A' for Active; 'I' for Inactive)
REMARK    1  A    between atoms: C_1  and  C_2
REMARK    2  A    between atoms: C_2  and  N_3
REMARK    3  A    between atoms: C_2  and  C_16
REMARK    4  A    between atoms: C_4  and  C_6
REMARK    5  A    between atoms: C_19  and  C_20
REMARK    6  A    between atoms: C_20  and  N_21
REMARK                            x       y       z     vdW  Elec       q    Type
REMARK                         _______ _______ _______ _____ _____    ______ ____
ROOT
ATOM      1  C   UNL     1      47.436   3.028  17.265  0.00  0.00    +0.000 C 
ATOM      2  C   UNL     1      47.850   4.316  16.537  0.00  0.00    +0.000 C 
ENDROOT
BRANCH   2   3
ATOM      3  C   UNL     1      48.110   5.424  17.560  0.00  0.00    +0.000 A 
ATOM      4  C   UNL     1      48.761   6.605  17.171  0.00  0.00    +0.000 A 
ATOM      5  C   UNL     1      49.020   7.630  18.096  0.00  0.00    +0.000 A 
ATOM      6  C   UNL     1      48.586   7.530  19.433  0.00  0.00    +0.000 A 
ATOM      7  C   UNL     1      47.903   6.363  19.807  0.00  0.00    +0.000 A 
ATOM      8 CL   UNL     1      47.210   6.166  21.381  0.00  0.00    +0.000 Cl
ATOM      9  C   UNL     1      47.729   5.305  18.903  0.00  0.00    +0.000 A 
BRANCH   6  10
ATOM     10  C   UNL     1      48.906   8.647  20.420  0.00  0.00    +0.000 C 
BRANCH  10  11
ATOM     11  N   UNL     1      47.736   9.428  20.839  0.00  0.00    +0.000 NA
ATOM     12  C   UNL     1      46.851   9.915  19.777  0.00  0.00    +0.000 C 
ATOM     13  C   UNL     1      47.186  11.296  19.208  0.00  0.00    +0.000 C 
ATOM     14  O   UNL     1      47.201  12.292  20.224  0.00  0.00    +0.000 OA
ATOM     15  C   UNL     1      48.031  11.975  21.338  0.00  0.00    +0.000 C 
ATOM     16  C   UNL     1      48.058  10.498  21.797  0.00  0.00    +0.000 C 
ENDBRANCH  10  11
ENDBRANCH   6  10
ENDBRANCH   2   3
BRANCH   2  17
ATOM     17  N   UNL     1      46.883   4.728  15.512  0.00  0.00    +0.000 N 
ATOM     18  C   UNL     1      46.860   4.173  14.255  0.00  0.00    +0.000 C 
ATOM     19  O   UNL     1      47.623   3.262  13.929  0.00  0.00    +0.000 OA
ATOM     20  H   UNL     1      46.519   5.671  15.594  0.00  0.00    +0.000 HD
BRANCH  18  21
ATOM     21  C   UNL     1      45.840   4.659  13.323  0.00  0.00    +0.000 A 
ATOM     22  C   UNL     1      44.923   3.763  12.789  0.00  0.00    +0.000 A 
ATOM     23  S   UNL     1      43.795   4.484  11.736  0.00  0.00    +0.000 S 
ATOM     24  C   UNL     1      44.523   6.011  11.920  0.00  0.00    +0.000 A 
ATOM     25  N   UNL     1      44.055   7.093  11.241  0.00  0.00    +0.000 NA
ATOM     26  C   UNL     1      44.726   8.177  11.442  0.00  0.00    +0.000 A 
ATOM     27  N   UNL     1      45.816   8.280  12.268  0.00  0.00    +0.000 N 
ATOM     28  C   UNL     1      46.294   7.224  13.011  0.00  0.00    +0.000 A 
ATOM     29  O   UNL     1      47.230   7.355  13.790  0.00  0.00    +0.000 OA
ATOM     30  C   UNL     1      45.593   5.975  12.794  0.00  0.00    +0.000 A 
ATOM     31  H   UNL     1      46.287   9.164  12.391  0.00  0.00    +0.000 HD
ENDBRANCH  18  21
ENDBRANCH   2  17
TORSDOF 5
ENDMDL
