MODEL 1
REMARK VINA RESULT:    -7.885      0.000      0.000
REMARK INTER + INTRA:         -11.597
REMARK INTER:                 -10.189
REMARK INTRA:                  -1.408
REMARK UNBOUND:                -1.408
REMARK  Name = 
REMARK  5 active torsions:
REMARK  status: ('A' for Active; 'I' for Inactive)
REMARK    1  A    between atoms: C_2  and  C_4
REMARK    2  A    between atoms: C_8  and  C_9
REMARK    3  A    between atoms: C_9  and  C_10
REMARK    4  A    between atoms: C_10  and  C_11
REMARK    5  A    between atoms: C_15  and  C_16
REMARK                            x       y       z     vdW  Elec       q    Type
REMARK                         _______ _______ _______ _____ _____    ______ ____
ROOT
ATOM      1  C   UNL     1      43.566   6.352  10.731  0.00  0.00    +0.000 C 
ENDROOT
BRANCH   1   2
ATOM      2  C   UNL     1      43.848   4.871  10.609  0.00  0.00    +0.000 A 
ATOM      3  C   UNL     1      43.209   3.912  11.402  0.00  0.00    +0.000 A 
ATOM      4  C   UNL     1      43.473   2.557  11.226  0.00  0.00    +0.000 A 
ATOM      5  C   UNL     1      44.349   2.139  10.226  0.00  0.00    +0.000 A 
ATOM      6  C   UNL     1      44.963   3.060   9.360  0.00  0.00    +0.000 A 
ATOM      7  C   UNL     1      44.716   4.427   9.594  0.00  0.00    +0.000 A 
BRANCH   6   8
ATOM      8  C   UNL     1      45.749   2.612   8.188  0.00  0.00    +0.000 A 
ATOM      9  C   UNL     1      45.988   3.486   7.110  0.00  0.00    +0.000 A 
ATOM     10  C   UNL     1      46.814   3.129   6.043  0.00  0.00    +0.000 A 
ATOM     11  C   UNL     1      47.428   1.881   6.029  0.00  0.00    +0.000 A 
ATOM     12  C   UNL     1      47.193   0.984   7.069  0.00  0.00    +0.000 A 
ATOM     13  C   UNL     1      46.354   1.343   8.130  0.00  0.00    +0.000 A 
ENDBRANCH   6   8
ENDBRANCH   1   2
BRANCH   1  14
ATOM     14  C   UNL     1      43.995   6.989  12.058  0.00  0.00    +0.000 C 
BRANCH  14  19
ATOM     15  C   UNL     1      47.013   5.342  13.699  0.00  0.00    +0.000 A 
ATOM     16  C   UNL     1      48.069   5.997  13.057  0.00  0.00    +0.000 A 
ATOM     17  C   UNL     1      47.803   6.978  12.099  0.00  0.00    +0.000 A 
ATOM     18  C   UNL     1      46.485   7.302  11.780  0.00  0.00    +0.000 A 
ATOM     19  C   UNL     1      45.419   6.648  12.413  0.00  0.00    +0.000 A 
ATOM     20  C   UNL     1      45.691   5.660  13.368  0.00  0.00    +0.000 A 
BRANCH  15  22
ATOM     21  N   UNL     1      47.231   4.677  16.033  0.00  0.00    +0.000 N 
ATOM     22  C   UNL     1      47.244   4.288  14.724  0.00  0.00    +0.000 C 
ATOM     23  O   UNL     1      47.401   3.115  14.416  0.00  0.00    +0.000 OA
ATOM     24  H   UNL     1      47.270   3.933  16.716  0.00  0.00    +0.000 HD
ATOM     25  H   UNL     1      46.848   5.564  16.327  0.00  0.00    +0.000 HD
ENDBRANCH  15  22
ENDBRANCH  14  19
ENDBRANCH   1  14
TORSDOF 5
ENDMDL
MODEL 2
REMARK VINA RESULT:    -7.764      3.067      6.592
REMARK INTER + INTRA:         -11.441
REMARK INTER:                 -10.372
REMARK INTRA:                  -1.069
REMARK UNBOUND:                -1.408
REMARK  Name = 
REMARK  5 active torsions:
REMARK  status: ('A' for Active; 'I' for Inactive)
REMARK    1  A    between atoms: C_2  and  C_4
REMARK    2  A    between atoms: C_8  and  C_9
REMARK    3  A    between atoms: C_9  and  C_10
REMARK    4  A    between atoms: C_10  and  C_11
REMARK    5  A    between atoms: C_15  and  C_16
REMARK                            x       y       z     vdW  Elec       q    Type
REMARK                         _______ _______ _______ _____ _____    ______ ____
ROOT
ATOM      1  C   UNL     1      43.803   4.250  11.304  0.00  0.00    +0.000 C 
ENDROOT
BRANCH   1   2
ATOM      2  C   UNL     1      45.011   4.653  12.120  0.00  0.00    +0.000 A 
ATOM      3  C   UNL     1      45.701   3.756  12.942  0.00  0.00    +0.000 A 
ATOM      4  C   UNL     1      46.831   4.163  13.644  0.00  0.00    +0.000 A 
ATOM      5  C   UNL     1      47.311   5.464  13.503  0.00  0.00    +0.000 A 
ATOM      6  C   UNL     1      46.691   6.382  12.638  0.00  0.00    +0.000 A 
ATOM      7  C   UNL     1      45.521   5.957  11.978  0.00  0.00    +0.000 A 
BRANCH   6   8
ATOM      8  C   UNL     1      47.299   7.701  12.348  0.00  0.00    +0.000 A 
ATOM      9  C   UNL     1      48.649   7.797  11.959  0.00  0.00    +0.000 A 
ATOM     10  C   UNL     1      49.219   9.012  11.576  0.00  0.00    +0.000 A 
ATOM     11  C   UNL     1      48.447  10.169  11.568  0.00  0.00    +0.000 A 
ATOM     12  C   UNL     1      47.115  10.111  11.970  0.00  0.00    +0.000 A 
ATOM     13  C   UNL     1      46.551   8.893  12.365  0.00  0.00    +0.000 A 
ENDBRANCH   6   8
ENDBRANCH   1   2
BRANCH   1  14
ATOM     14  C   UNL     1      43.952   2.937  10.525  0.00  0.00    +0.000 C 
BRANCH  14  19
ATOM     15  C   UNL     1      46.417   2.046   7.760  0.00  0.00    +0.000 A 
ATOM     16  C   UNL     1      46.706   3.308   7.230  0.00  0.00    +0.000 A 
ATOM     17  C   UNL     1      46.110   4.447   7.774  0.00  0.00    +0.000 A 
ATOM     18  C   UNL     1      45.223   4.327   8.844  0.00  0.00    +0.000 A 
ATOM     19  C   UNL     1      44.921   3.068   9.379  0.00  0.00    +0.000 A 
ATOM     20  C   UNL     1      45.517   1.927   8.825  0.00  0.00    +0.000 A 
BRANCH  15  22
ATOM     21  N   UNL     1      47.802   0.925   6.099  0.00  0.00    +0.000 N 
ATOM     22  C   UNL     1      47.024   0.802   7.214  0.00  0.00    +0.000 C 
ATOM     23  O   UNL     1      46.867  -0.283   7.758  0.00  0.00    +0.000 OA
ATOM     24  H   UNL     1      48.301   0.093   5.814  0.00  0.00    +0.000 HD
ATOM     25  H   UNL     1      48.162   1.816   5.789  0.00  0.00    +0.000 HD
ENDBRANCH  15  22
ENDBRANCH  14  19
ENDBRANCH   1  14
TORSDOF 5
ENDMDL
MODEL 3
REMARK VINA RESULT:    -7.168      3.326      6.921
REMARK INTER + INTRA:         -10.671
REMARK INTER:                  -9.567
REMARK INTRA:                  -1.105
REMARK UNBOUND:                -1.408
REMARK  Name = 
REMARK  5 active torsions:
REMARK  status: ('A' for Active; 'I' for Inactive)
REMARK    1  A    between atoms: C_2  and  C_4
REMARK    2  A    between atoms: C_8  and  C_9
REMARK    3  A    between atoms: C_9  and  C_10
REMARK    4  A    between atoms: C_10  and  C_11
REMARK    5  A    between atoms: C_15  and  C_16
REMARK                            x       y       z     vdW  Elec       q    Type
REMARK                         _______ _______ _______ _____ _____    ______ ____
ROOT
ATOM      1  C   UNL     1      44.628   5.077  10.532  0.00  0.00    +0.000 C 
ENDROOT
BRANCH   1   2
ATOM      2  C   UNL     1      45.655   5.425  11.587  0.00  0.00    +0.000 A 
ATOM      3  C   UNL     1      45.832   4.666  12.749  0.00  0.00    +0.000 A 
ATOM      4  C   UNL     1      46.817   5.002  13.672  0.00  0.00    +0.000 A 
ATOM      5  C   UNL     1      47.666   6.079  13.427  0.00  0.00    +0.000 A 
ATOM      6  C   UNL     1      47.572   6.830  12.243  0.00  0.00    +0.000 A 
ATOM      7  C   UNL     1      46.534   6.498  11.350  0.00  0.00    +0.000 A 
BRANCH   6   8
ATOM      8  C   UNL     1      48.583   7.856  11.897  0.00  0.00    +0.000 A 
ATOM      9  C   UNL     1      48.230   9.218  11.844  0.00  0.00    +0.000 A 
ATOM     10  C   UNL     1      49.182  10.216  11.627  0.00  0.00    +0.000 A 
ATOM     11  C   UNL     1      50.520   9.874  11.460  0.00  0.00    +0.000 A 
ATOM     12  C   UNL     1      50.897   8.533  11.484  0.00  0.00    +0.000 A 
ATOM     13  C   UNL     1      49.937   7.536  11.690  0.00  0.00    +0.000 A 
ENDBRANCH   6   8
ENDBRANCH   1   2
BRANCH   1  14
ATOM     14  C   UNL     1      45.155   5.056   9.093  0.00  0.00    +0.000 C 
BRANCH  14  19
ATOM     15  C   UNL     1      46.822   2.180   7.232  0.00  0.00    +0.000 A 
ATOM     16  C   UNL     1      46.205   1.073   7.825  0.00  0.00    +0.000 A 
ATOM     17  C   UNL     1      45.244   1.258   8.820  0.00  0.00    +0.000 A 
ATOM     18  C   UNL     1      44.901   2.548   9.226  0.00  0.00    +0.000 A 
ATOM     19  C   UNL     1      45.516   3.664   8.644  0.00  0.00    +0.000 A 
ATOM     20  C   UNL     1      46.485   3.472   7.650  0.00  0.00    +0.000 A 
BRANCH  15  22
ATOM     21  N   UNL     1      48.946   2.849   6.246  0.00  0.00    +0.000 N 
ATOM     22  C   UNL     1      47.853   2.034   6.170  0.00  0.00    +0.000 C 
ATOM     23  O   UNL     1      47.751   1.196   5.284  0.00  0.00    +0.000 OA
ATOM     24  H   UNL     1      49.689   2.655   5.588  0.00  0.00    +0.000 HD
ATOM     25  H   UNL     1      49.186   3.351   7.088  0.00  0.00    +0.000 HD
ENDBRANCH  15  22
ENDBRANCH  14  19
ENDBRANCH   1  14
TORSDOF 5
ENDMDL
MODEL 4
REMARK VINA RESULT:    -7.077      2.189      2.694
REMARK INTER + INTRA:         -10.553
REMARK INTER:                  -9.560
REMARK INTRA:                  -0.994
REMARK UNBOUND:                -1.408
REMARK  Name = 
REMARK  5 active torsions:
REMARK  status: ('A' for Active; 'I' for Inactive)
REMARK    1  A    between atoms: C_2  and  C_4
REMARK    2  A    between atoms: C_8  and  C_9
REMARK    3  A    between atoms: C_9  and  C_10
REMARK    4  A    between atoms: C_10  and  C_11
REMARK    5  A    between atoms: C_15  and  C_16
REMARK                            x       y       z     vdW  Elec       q    Type
REMARK                         _______ _______ _______ _____ _____    ______ ____
ROOT
ATOM      1  C   UNL     1      44.361   6.841  11.428  0.00  0.00    +0.000 C 
ENDROOT
BRANCH   1   2
ATOM      2  C   UNL     1      44.268   5.359  11.135  0.00  0.00    +0.000 A 
ATOM      3  C   UNL     1      43.360   4.516  11.785  0.00  0.00    +0.000 A 
ATOM      4  C   UNL     1      43.283   3.167  11.454  0.00  0.00    +0.000 A 
ATOM      5  C   UNL     1      44.087   2.650  10.439  0.00  0.00    +0.000 A 
ATOM      6  C   UNL     1      44.965   3.470   9.712  0.00  0.00    +0.000 A 
ATOM      7  C   UNL     1      45.057   4.821  10.102  0.00  0.00    +0.000 A 
BRANCH   6   8
ATOM      8  C   UNL     1      45.685   2.966   8.520  0.00  0.00    +0.000 A 
ATOM      9  C   UNL     1      46.088   3.850   7.500  0.00  0.00    +0.000 A 
ATOM     10  C   UNL     1      46.861   3.421   6.419  0.00  0.00    +0.000 A 
ATOM     11  C   UNL     1      47.253   2.090   6.332  0.00  0.00    +0.000 A 
ATOM     12  C   UNL     1      46.850   1.186   7.312  0.00  0.00    +0.000 A 
ATOM     13  C   UNL     1      46.066   1.618   8.387  0.00  0.00    +0.000 A 
ENDBRANCH   6   8
ENDBRANCH   1   2
BRANCH   1  14
ATOM     14  C   UNL     1      45.175   7.208  12.674  0.00  0.00    +0.000 C 
BRANCH  14  19
ATOM     15  C   UNL     1      48.714   8.446  11.995  0.00  0.00    +0.000 A 
ATOM     16  C   UNL     1      48.484   9.796  11.709  0.00  0.00    +0.000 A 
ATOM     17  C   UNL     1      47.185  10.307  11.745  0.00  0.00    +0.000 A 
ATOM     18  C   UNL     1      46.116   9.470  12.062  0.00  0.00    +0.000 A 
ATOM     19  C   UNL     1      46.332   8.115  12.345  0.00  0.00    +0.000 A 
ATOM     20  C   UNL     1      47.637   7.606  12.301  0.00  0.00    +0.000 A 
BRANCH  15  22
ATOM     21  N   UNL     1      50.666   7.583  13.170  0.00  0.00    +0.000 N 
ATOM     22  C   UNL     1      50.078   7.854  11.968  0.00  0.00    +0.000 C 
ATOM     23  O   UNL     1      50.641   7.583  10.916  0.00  0.00    +0.000 OA
ATOM     24  H   UNL     1      51.537   7.074  13.132  0.00  0.00    +0.000 HD
ATOM     25  H   UNL     1      50.138   7.546  14.030  0.00  0.00    +0.000 HD
ENDBRANCH  15  22
ENDBRANCH  14  19
ENDBRANCH   1  14
TORSDOF 5
ENDMDL
MODEL 5
REMARK VINA RESULT:    -7.048      1.833      2.101
REMARK INTER + INTRA:         -10.516
REMARK INTER:                  -9.452
REMARK INTRA:                  -1.064
REMARK UNBOUND:                -1.408
REMARK  Name = 
REMARK  5 active torsions:
REMARK  status: ('A' for Active; 'I' for Inactive)
REMARK    1  A    between atoms: C_2  and  C_4
REMARK    2  A    between atoms: C_8  and  C_9
REMARK    3  A    between atoms: C_9  and  C_10
REMARK    4  A    between atoms: C_10  and  C_11
REMARK    5  A    between atoms: C_15  and  C_16
REMARK                            x       y       z     vdW  Elec       q    Type
REMARK                         _______ _______ _______ _____ _____    ______ ____
ROOT
ATOM      1  C   UNL     1      45.090   6.865  11.281  0.00  0.00    +0.000 C 
ENDROOT
BRANCH   1   2
ATOM      2  C   UNL     1      44.763   5.423  10.959  0.00  0.00    +0.000 A 
ATOM      3  C   UNL     1      43.725   4.726  11.585  0.00  0.00    +0.000 A 
ATOM      4  C   UNL     1      43.436   3.412  11.226  0.00  0.00    +0.000 A 
ATOM      5  C   UNL     1      44.156   2.791  10.207  0.00  0.00    +0.000 A 
ATOM      6  C   UNL     1      45.163   3.473   9.503  0.00  0.00    +0.000 A 
ATOM      7  C   UNL     1      45.467   4.784   9.921  0.00  0.00    +0.000 A 
BRANCH   6   8
ATOM      8  C   UNL     1      45.804   2.881   8.306  0.00  0.00    +0.000 A 
ATOM      9  C   UNL     1      46.097   3.679   7.184  0.00  0.00    +0.000 A 
ATOM     10  C   UNL     1      46.797   3.175   6.086  0.00  0.00    +0.000 A 
ATOM     11  C   UNL     1      47.227   1.852   6.086  0.00  0.00    +0.000 A 
ATOM     12  C   UNL     1      46.932   1.031   7.172  0.00  0.00    +0.000 A 
ATOM     13  C   UNL     1      46.220   1.538   8.264  0.00  0.00    +0.000 A 
ENDBRANCH   6   8
ENDBRANCH   1   2
BRANCH   1  14
ATOM     14  C   UNL     1      45.600   7.113  12.705  0.00  0.00    +0.000 C 
BRANCH  14  19
ATOM     15  C   UNL     1      49.179   7.324  13.993  0.00  0.00    +0.000 A 
ATOM     16  C   UNL     1      49.879   7.616  12.817  0.00  0.00    +0.000 A 
ATOM     17  C   UNL     1      49.191   7.753  11.611  0.00  0.00    +0.000 A 
ATOM     18  C   UNL     1      47.806   7.595  11.576  0.00  0.00    +0.000 A 
ATOM     19  C   UNL     1      47.094   7.297  12.746  0.00  0.00    +0.000 A 
ATOM     20  C   UNL     1      47.791   7.153  13.953  0.00  0.00    +0.000 A 
BRANCH  15  22
ATOM     21  N   UNL     1      51.231   7.113  15.290  0.00  0.00    +0.000 N 
ATOM     22  C   UNL     1      49.867   7.165  15.303  0.00  0.00    +0.000 C 
ATOM     23  O   UNL     1      49.244   7.120  16.355  0.00  0.00    +0.000 OA
ATOM     24  H   UNL     1      51.683   7.126  16.193  0.00  0.00    +0.000 HD
ATOM     25  H   UNL     1      51.773   7.409  14.490  0.00  0.00    +0.000 HD
ENDBRANCH  15  22
ENDBRANCH  14  19
ENDBRANCH   1  14
TORSDOF 5
ENDMDL
MODEL 6
REMARK VINA RESULT:    -6.970      2.484      3.384
REMARK INTER + INTRA:         -10.415
REMARK INTER:                  -9.475
REMARK INTRA:                  -0.940
REMARK UNBOUND:                -1.408
REMARK  Name = 
REMARK  5 active torsions:
REMARK  status: ('A' for Active; 'I' for Inactive)
REMARK    1  A    between atoms: C_2  and  C_4
REMARK    2  A    between atoms: C_8  and  C_9
REMARK    3  A    between atoms: C_9  and  C_10
REMARK    4  A    between atoms: C_10  and  C_11
REMARK    5  A    between atoms: C_15  and  C_16
REMARK                            x       y       z     vdW  Elec       q    Type
REMARK                         _______ _______ _______ _____ _____    ______ ____
ROOT
ATOM      1  C   UNL     1      45.769   4.976  13.942  0.00  0.00    +0.000 C 
ENDROOT
BRANCH   1   2
ATOM      2  C   UNL     1      44.916   4.876  12.697  0.00  0.00    +0.000 A 
ATOM      3  C   UNL     1      43.706   5.564  12.552  0.00  0.00    +0.000 A 
ATOM      4  C   UNL     1      42.975   5.473  11.372  0.00  0.00    +0.000 A 
ATOM      5  C   UNL     1      43.464   4.723  10.303  0.00  0.00    +0.000 A 
ATOM      6  C   UNL     1      44.705   4.069  10.376  0.00  0.00    +0.000 A 
ATOM      7  C   UNL     1      45.400   4.139  11.600  0.00  0.00    +0.000 A 
BRANCH   6   8
ATOM      8  C   UNL     1      45.309   3.425   9.187  0.00  0.00    +0.000 A 
ATOM      9  C   UNL     1      45.792   4.205   8.118  0.00  0.00    +0.000 A 
ATOM     10  C   UNL     1      46.462   3.633   7.036  0.00  0.00    +0.000 A 
ATOM     11  C   UNL     1      46.671   2.259   6.996  0.00  0.00    +0.000 A 
ATOM     12  C   UNL     1      46.185   1.457   8.027  0.00  0.00    +0.000 A 
ATOM     13  C   UNL     1      45.503   2.034   9.104  0.00  0.00    +0.000 A 
ENDBRANCH   6   8
ENDBRANCH   1   2
BRANCH   1  14
ATOM     14  C   UNL     1      47.274   5.119  13.690  0.00  0.00    +0.000 C 
BRANCH  14  19
ATOM     15  C   UNL     1      46.967   8.667  12.334  0.00  0.00    +0.000 A 
ATOM     16  C   UNL     1      48.256   8.885  11.836  0.00  0.00    +0.000 A 
ATOM     17  C   UNL     1      49.220   7.881  11.931  0.00  0.00    +0.000 A 
ATOM     18  C   UNL     1      48.901   6.660  12.526  0.00  0.00    +0.000 A 
ATOM     19  C   UNL     1      47.615   6.432  13.034  0.00  0.00    +0.000 A 
ATOM     20  C   UNL     1      46.652   7.446  12.943  0.00  0.00    +0.000 A 
BRANCH  15  22
ATOM     21  N   UNL     1      44.715   9.428  12.871  0.00  0.00    +0.000 N 
ATOM     22  C   UNL     1      45.905   9.706  12.260  0.00  0.00    +0.000 C 
ATOM     23  O   UNL     1      46.094  10.781  11.708  0.00  0.00    +0.000 OA
ATOM     24  H   UNL     1      44.051  10.189  12.913  0.00  0.00    +0.000 HD
ATOM     25  H   UNL     1      44.619   8.684  13.546  0.00  0.00    +0.000 HD
ENDBRANCH  15  22
ENDBRANCH  14  19
ENDBRANCH   1  14
TORSDOF 5
ENDMDL
MODEL 7
REMARK VINA RESULT:    -6.919      2.729      3.237
REMARK INTER + INTRA:         -10.349
REMARK INTER:                  -9.378
REMARK INTRA:                  -0.971
REMARK UNBOUND:                -1.408
REMARK  Name = 
REMARK  5 active torsions:
REMARK  status: ('A' for Active; 'I' for Inactive)
REMARK    1  A    between atoms: C_2  and  C_4
REMARK    2  A    between atoms: C_8  and  C_9
REMARK    3  A    between atoms: C_9  and  C_10
REMARK    4  A    between atoms: C_10  and  C_11
REMARK    5  A    between atoms: C_15  and  C_16
REMARK                            x       y       z     vdW  Elec       q    Type
REMARK                         _______ _______ _______ _____ _____    ______ ____
ROOT
ATOM      1  C   UNL     1      44.704   6.495  11.025  0.00  0.00    +0.000 C 
ENDROOT
BRANCH   1   2
ATOM      2  C   UNL     1      44.591   5.021  10.702  0.00  0.00    +0.000 A 
ATOM      3  C   UNL     1      43.681   4.174  11.344  0.00  0.00    +0.000 A 
ATOM      4  C   UNL     1      43.586   2.833  10.985  0.00  0.00    +0.000 A 
ATOM      5  C   UNL     1      44.371   2.329   9.950  0.00  0.00    +0.000 A 
ATOM      6  C   UNL     1      45.250   3.156   9.230  0.00  0.00    +0.000 A 
ATOM      7  C   UNL     1      45.362   4.496   9.648  0.00  0.00    +0.000 A 
BRANCH   6   8
ATOM      8  C   UNL     1      45.950   2.669   8.019  0.00  0.00    +0.000 A 
ATOM      9  C   UNL     1      46.151   3.523   6.918  0.00  0.00    +0.000 A 
ATOM     10  C   UNL     1      46.900   3.127   5.808  0.00  0.00    +0.000 A 
ATOM     11  C   UNL     1      47.471   1.860   5.773  0.00  0.00    +0.000 A 
ATOM     12  C   UNL     1      47.270   0.983   6.836  0.00  0.00    +0.000 A 
ATOM     13  C   UNL     1      46.509   1.381   7.941  0.00  0.00    +0.000 A 
ENDBRANCH   6   8
ENDBRANCH   1   2
BRANCH   1  14
ATOM     14  C   UNL     1      45.249   6.815  12.422  0.00  0.00    +0.000 C 
BRANCH  14  19
ATOM     15  C   UNL     1      48.097   9.328  12.132  0.00  0.00    +0.000 A 
ATOM     16  C   UNL     1      49.214   8.500  12.287  0.00  0.00    +0.000 A 
ATOM     17  C   UNL     1      49.044   7.127  12.477  0.00  0.00    +0.000 A 
ATOM     18  C   UNL     1      47.761   6.582  12.515  0.00  0.00    +0.000 A 
ATOM     19  C   UNL     1      46.635   7.402  12.367  0.00  0.00    +0.000 A 
ATOM     20  C   UNL     1      46.811   8.781  12.184  0.00  0.00    +0.000 A 
BRANCH  15  22
ATOM     21  N   UNL     1      48.038  11.596  13.022  0.00  0.00    +0.000 N 
ATOM     22  C   UNL     1      48.225  10.797  11.930  0.00  0.00    +0.000 C 
ATOM     23  O   UNL     1      48.523  11.273  10.843  0.00  0.00    +0.000 OA
ATOM     24  H   UNL     1      48.246  12.576  12.893  0.00  0.00    +0.000 HD
ATOM     25  H   UNL     1      48.056  11.232  13.964  0.00  0.00    +0.000 HD
ENDBRANCH  15  22
ENDBRANCH  14  19
ENDBRANCH   1  14
TORSDOF 5
ENDMDL
MODEL 8
REMARK VINA RESULT:    -6.868      2.969      6.605
REMARK INTER + INTRA:         -10.283
REMARK INTER:                  -9.423
REMARK INTRA:                  -0.860
REMARK UNBOUND:                -1.408
REMARK  Name = 
REMARK  5 active torsions:
REMARK  status: ('A' for Active; 'I' for Inactive)
REMARK    1  A    between atoms: C_2  and  C_4
REMARK    2  A    between atoms: C_8  and  C_9
REMARK    3  A    between atoms: C_9  and  C_10
REMARK    4  A    between atoms: C_10  and  C_11
REMARK    5  A    between atoms: C_15  and  C_16
REMARK                            x       y       z     vdW  Elec       q    Type
REMARK                         _______ _______ _______ _____ _____    ______ ____
ROOT
ATOM      1  C   UNL     1      44.548   3.443  11.830  0.00  0.00    +0.000 C 
ENDROOT
BRANCH   1   2
ATOM      2  C   UNL     1      44.792   4.935  11.794  0.00  0.00    +0.000 A 
ATOM      3  C   UNL     1      43.766   5.864  11.592  0.00  0.00    +0.000 A 
ATOM      4  C   UNL     1      44.033   7.230  11.607  0.00  0.00    +0.000 A 
ATOM      5  C   UNL     1      45.324   7.687  11.865  0.00  0.00    +0.000 A 
ATOM      6  C   UNL     1      46.374   6.795  12.141  0.00  0.00    +0.000 A 
ATOM      7  C   UNL     1      46.085   5.418  12.070  0.00  0.00    +0.000 A 
BRANCH   6   8
ATOM      8  C   UNL     1      47.700   7.278  12.591  0.00  0.00    +0.000 A 
ATOM      9  C   UNL     1      48.206   6.908  13.852  0.00  0.00    +0.000 A 
ATOM     10  C   UNL     1      49.494   7.259  14.258  0.00  0.00    +0.000 A 
ATOM     11  C   UNL     1      50.316   7.990  13.407  0.00  0.00    +0.000 A 
ATOM     12  C   UNL     1      49.836   8.391  12.162  0.00  0.00    +0.000 A 
ATOM     13  C   UNL     1      48.539   8.048  11.764  0.00  0.00    +0.000 A 
ENDBRANCH   6   8
ENDBRANCH   1   2
BRANCH   1  14
ATOM     14  C   UNL     1      43.978   2.845  10.538  0.00  0.00    +0.000 C 
BRANCH  14  19
ATOM     15  C   UNL     1      46.467   2.106   7.749  0.00  0.00    +0.000 A 
ATOM     16  C   UNL     1      46.630   3.374   7.181  0.00  0.00    +0.000 A 
ATOM     17  C   UNL     1      45.942   4.469   7.707  0.00  0.00    +0.000 A 
ATOM     18  C   UNL     1      45.088   4.298   8.797  0.00  0.00    +0.000 A 
ATOM     19  C   UNL     1      44.911   3.032   9.370  0.00  0.00    +0.000 A 
ATOM     20  C   UNL     1      45.599   1.935   8.834  0.00  0.00    +0.000 A 
BRANCH  15  22
ATOM     21  N   UNL     1      46.728  -0.314   7.639  0.00  0.00    +0.000 N 
ATOM     22  C   UNL     1      47.175   0.908   7.224  0.00  0.00    +0.000 C 
ATOM     23  O   UNL     1      48.097   1.005   6.425  0.00  0.00    +0.000 OA
ATOM     24  H   UNL     1      47.141  -1.114   7.182  0.00  0.00    +0.000 HD
ATOM     25  H   UNL     1      45.826  -0.437   8.075  0.00  0.00    +0.000 HD
ENDBRANCH  15  22
ENDBRANCH  14  19
ENDBRANCH   1  14
TORSDOF 5
ENDMDL
MODEL 9
REMARK VINA RESULT:    -6.585      2.189      4.531
REMARK INTER + INTRA:          -9.918
REMARK INTER:                  -8.852
REMARK INTRA:                  -1.066
REMARK UNBOUND:                -1.408
REMARK  Name = 
REMARK  5 active torsions:
REMARK  status: ('A' for Active; 'I' for Inactive)
REMARK    1  A    between atoms: C_2  and  C_4
REMARK    2  A    between atoms: C_8  and  C_9
REMARK    3  A    between atoms: C_9  and  C_10
REMARK    4  A    between atoms: C_10  and  C_11
REMARK    5  A    between atoms: C_15  and  C_16
REMARK                            x       y       z     vdW  Elec       q    Type
REMARK                         _______ _______ _______ _____ _____    ______ ____
ROOT
ATOM      1  C   UNL     1      48.855   7.217  13.401  0.00  0.00    +0.000 C 
ENDROOT
BRANCH   1   2
ATOM      2  C   UNL     1      47.450   7.286  12.845  0.00  0.00    +0.000 A 
ATOM      3  C   UNL     1      46.658   8.436  12.934  0.00  0.00    +0.000 A 
ATOM      4  C   UNL     1      45.385   8.465  12.372  0.00  0.00    +0.000 A 
ATOM      5  C   UNL     1      44.903   7.358  11.676  0.00  0.00    +0.000 A 
ATOM      6  C   UNL     1      45.687   6.205  11.501  0.00  0.00    +0.000 A 
ATOM      7  C   UNL     1      46.951   6.186  12.124  0.00  0.00    +0.000 A 
BRANCH   6   8
ATOM      8  C   UNL     1      45.251   5.102  10.615  0.00  0.00    +0.000 A 
ATOM      9  C   UNL     1      45.588   5.108   9.247  0.00  0.00    +0.000 A 
ATOM     10  C   UNL     1      45.285   4.032   8.411  0.00  0.00    +0.000 A 
ATOM     11  C   UNL     1      44.636   2.915   8.926  0.00  0.00    +0.000 A 
ATOM     12  C   UNL     1      44.269   2.888  10.269  0.00  0.00    +0.000 A 
ATOM     13  C   UNL     1      44.564   3.974  11.100  0.00  0.00    +0.000 A 
ENDBRANCH   6   8
ENDBRANCH   1   2
BRANCH   1  14
ATOM     14  C   UNL     1      49.059   7.931  14.743  0.00  0.00    +0.000 C 
BRANCH  14  19
ATOM     15  C   UNL     1      48.055   4.876  16.785  0.00  0.00    +0.000 A 
ATOM     16  C   UNL     1      48.190   5.360  18.091  0.00  0.00    +0.000 A 
ATOM     17  C   UNL     1      48.598   6.677  18.309  0.00  0.00    +0.000 A 
ATOM     18  C   UNL     1      48.874   7.510  17.225  0.00  0.00    +0.000 A 
ATOM     19  C   UNL     1      48.747   7.035  15.913  0.00  0.00    +0.000 A 
ATOM     20  C   UNL     1      48.345   5.710  15.700  0.00  0.00    +0.000 A 
BRANCH  15  22
ATOM     21  N   UNL     1      46.995   2.803  17.505  0.00  0.00    +0.000 N 
ATOM     22  C   UNL     1      47.626   3.480  16.500  0.00  0.00    +0.000 C 
ATOM     23  O   UNL     1      47.795   2.966  15.403  0.00  0.00    +0.000 OA
ATOM     24  H   UNL     1      46.606   1.904  17.256  0.00  0.00    +0.000 HD
ATOM     25  H   UNL     1      46.610   3.274  18.311  0.00  0.00    +0.000 HD
ENDBRANCH  15  22
ENDBRANCH  14  19
ENDBRANCH   1  14
TORSDOF 5
ENDMDL
