MODEL 1
REMARK VINA RESULT:    -6.815      0.000      0.000
REMARK INTER + INTRA:          -9.327
REMARK INTER:                  -8.807
REMARK INTRA:                  -0.520
REMARK UNBOUND:                -0.520
REMARK  Name = 
REMARK  6 active torsions:
REMARK  status: ('A' for Active; 'I' for Inactive)
REMARK    1  A    between atoms: C_1  and  C_2
REMARK    2  A    between atoms: C_4  and  C_5
REMARK    3  A    between atoms: C_9  and  N_10
REMARK    4  A    between atoms: N_10  and  C_11
REMARK    5  A    between atoms: C_11  and  C_12
REMARK    6  A    between atoms: C_16  and  C_17
REMARK                            x       y       z     vdW  Elec       q    Type
REMARK                         _______ _______ _______ _____ _____    ______ ____
ROOT
ATOM      1  C   UNL     1      44.301   6.063  11.451  0.00  0.00    +0.000 C 
ATOM      2  C   UNL     1      43.517   5.476  12.637  0.00  0.00    +0.000 C 
ATOM      3  C   UNL     1      42.799   5.849  11.392  0.00  0.00    +0.000 C 
ENDROOT
BRANCH   1   4
ATOM      4  C   UNL     1      44.797   7.500  11.622  0.00  0.00    +0.000 A 
ATOM      5  C   UNL     1      44.034   8.590  11.174  0.00  0.00    +0.000 A 
ATOM      6  C   UNL     1      44.490   9.896  11.310  0.00  0.00    +0.000 A 
ATOM      7  C   UNL     1      45.726  10.144  11.904  0.00  0.00    +0.000 A 
ATOM      8  C   UNL     1      46.543   9.093  12.343  0.00  0.00    +0.000 A 
ATOM      9  C   UNL     1      46.042   7.782  12.215  0.00  0.00    +0.000 A 
BRANCH   8  10
ATOM     10  C   UNL     1      47.914   9.312  12.986  0.00  0.00    +0.000 C 
ATOM     11  C   UNL     1      49.134   9.138  12.059  0.00  0.00    +0.000 C 
ATOM     12  C   UNL     1      49.433   7.666  11.754  0.00  0.00    +0.000 C 
ATOM     13  N   UNL     1      49.611   6.871  12.967  0.00  0.00    +0.000 NA
ATOM     14  C   UNL     1      48.449   6.977  13.852  0.00  0.00    +0.000 C 
ATOM     15  C   UNL     1      48.149   8.427  14.230  0.00  0.00    +0.000 C 
ATOM     16  H   UNL     1      50.440   7.197  13.461  0.00  0.00    +0.000 HD
ENDBRANCH   8  10
ENDBRANCH   1   4
BRANCH   1  17
ATOM     17  N   UNL     1      45.322   5.124  10.941  0.00  0.00    +0.000 N 
ATOM     18  H   UNL     1      46.265   5.509  11.038  0.00  0.00    +0.000 HD
BRANCH  17  25
ATOM     19  C   UNL     1      44.073   2.394  10.295  0.00  0.00    +0.000 C 
ATOM     20  C   UNL     1      44.914   3.222   9.379  0.00  0.00    +0.000 A 
ATOM     21  C   UNL     1      45.304   2.648   8.148  0.00  0.00    +0.000 A 
ATOM     22  C   UNL     1      46.098   3.356   7.254  0.00  0.00    +0.000 A 
ATOM     23  C   UNL     1      46.471   4.633   7.619  0.00  0.00    +0.000 A 
ATOM     24  N   UNL     1      46.144   5.198   8.809  0.00  0.00    +0.000 NA
ATOM     25  C   UNL     1      45.386   4.497   9.691  0.00  0.00    +0.000 A 
BRANCH  22  26
ATOM     26  C   UNL     1      46.532   2.786   6.020  0.00  0.00    +0.000 C 
ATOM     27  N   UNL     1      46.897   2.324   5.014  0.00  0.00    +0.000 NA
ENDBRANCH  22  26
ENDBRANCH  17  25
ENDBRANCH   1  17
TORSDOF 5
ENDMDL
MODEL 2
REMARK VINA RESULT:    -6.695      1.861      3.652
REMARK INTER + INTRA:          -9.172
REMARK INTER:                  -8.206
REMARK INTRA:                  -0.967
REMARK UNBOUND:                -0.520
REMARK  Name = 
REMARK  6 active torsions:
REMARK  status: ('A' for Active; 'I' for Inactive)
REMARK    1  A    between atoms: C_1  and  C_2
REMARK    2  A    between atoms: C_4  and  C_5
REMARK    3  A    between atoms: C_9  and  N_10
REMARK    4  A    between atoms: N_10  and  C_11
REMARK    5  A    between atoms: C_11  and  C_12
REMARK    6  A    between atoms: C_16  and  C_17
REMARK                            x       y       z     vdW  Elec       q    Type
REMARK                         _______ _______ _______ _____ _____    ______ ____
ROOT
ATOM      1  C   UNL     1      44.289   6.053  11.480  0.00  0.00    +0.000 C 
ATOM      2  C   UNL     1      43.526   5.413  12.653  0.00  0.00    +0.000 C 
ATOM      3  C   UNL     1      42.797   5.778  11.412  0.00  0.00    +0.000 C 
ENDROOT
BRANCH   1   4
ATOM      4  C   UNL     1      44.724   7.506  11.678  0.00  0.00    +0.000 A 
ATOM      5  C   UNL     1      45.853   7.829  12.447  0.00  0.00    +0.000 A 
ATOM      6  C   UNL     1      46.239   9.149  12.647  0.00  0.00    +0.000 A 
ATOM      7  C   UNL     1      45.503  10.184  12.074  0.00  0.00    +0.000 A 
ATOM      8  C   UNL     1      44.350   9.923  11.321  0.00  0.00    +0.000 A 
ATOM      9  C   UNL     1      43.998   8.574  11.116  0.00  0.00    +0.000 A 
BRANCH   8  10
ATOM     10  C   UNL     1      43.499  11.024  10.685  0.00  0.00    +0.000 C 
ATOM     11  C   UNL     1      42.819  10.669   9.348  0.00  0.00    +0.000 C 
ATOM     12  C   UNL     1      43.805  10.657   8.174  0.00  0.00    +0.000 C 
ATOM     13  N   UNL     1      44.532  11.919   8.045  0.00  0.00    +0.000 NA
ATOM     14  C   UNL     1      45.228  12.264   9.286  0.00  0.00    +0.000 C 
ATOM     15  C   UNL     1      44.271  12.344  10.476  0.00  0.00    +0.000 C 
ATOM     16  H   UNL     1      43.875  12.661   7.811  0.00  0.00    +0.000 HD
ENDBRANCH   8  10
ENDBRANCH   1   4
BRANCH   1  17
ATOM     17  N   UNL     1      45.349   5.167  10.957  0.00  0.00    +0.000 N 
ATOM     18  H   UNL     1      46.272   5.601  11.038  0.00  0.00    +0.000 HD
BRANCH  17  25
ATOM     19  C   UNL     1      44.058   2.463  10.283  0.00  0.00    +0.000 C 
ATOM     20  C   UNL     1      44.935   3.274   9.386  0.00  0.00    +0.000 A 
ATOM     21  C   UNL     1      45.339   2.692   8.163  0.00  0.00    +0.000 A 
ATOM     22  C   UNL     1      46.167   3.384   7.286  0.00  0.00    +0.000 A 
ATOM     23  C   UNL     1      46.557   4.653   7.660  0.00  0.00    +0.000 A 
ATOM     24  N   UNL     1      46.217   5.224   8.843  0.00  0.00    +0.000 NA
ATOM     25  C   UNL     1      45.427   4.539   9.709  0.00  0.00    +0.000 A 
BRANCH  22  26
ATOM     26  C   UNL     1      46.614   2.805   6.061  0.00  0.00    +0.000 C 
ATOM     27  N   UNL     1      46.978   2.343   5.055  0.00  0.00    +0.000 NA
ENDBRANCH  22  26
ENDBRANCH  17  25
ENDBRANCH   1  17
TORSDOF 5
ENDMDL
MODEL 3
REMARK VINA RESULT:    -6.564      3.124      5.973
REMARK INTER + INTRA:          -9.003
REMARK INTER:                  -8.128
REMARK INTRA:                  -0.875
REMARK UNBOUND:                -0.520
REMARK  Name = 
REMARK  6 active torsions:
REMARK  status: ('A' for Active; 'I' for Inactive)
REMARK    1  A    between atoms: C_1  and  C_2
REMARK    2  A    between atoms: C_4  and  C_5
REMARK    3  A    between atoms: C_9  and  N_10
REMARK    4  A    between atoms: N_10  and  C_11
REMARK    5  A    between atoms: C_11  and  C_12
REMARK    6  A    between atoms: C_16  and  C_17
REMARK                            x       y       z     vdW  Elec       q    Type
REMARK                         _______ _______ _______ _____ _____    ______ ____
ROOT
ATOM      1  C   UNL     1      48.197   7.877  13.431  0.00  0.00    +0.000 C 
ATOM      2  C   UNL     1      48.327   9.352  13.014  0.00  0.00    +0.000 C 
ATOM      3  C   UNL     1      48.837   8.285  12.116  0.00  0.00    +0.000 C 
ENDROOT
BRANCH   1   4
ATOM      4  C   UNL     1      49.132   7.413  14.549  0.00  0.00    +0.000 A 
ATOM      5  C   UNL     1      50.497   7.741  14.539  0.00  0.00    +0.000 A 
ATOM      6  C   UNL     1      51.353   7.304  15.543  0.00  0.00    +0.000 A 
ATOM      7  C   UNL     1      50.860   6.527  16.589  0.00  0.00    +0.000 A 
ATOM      8  C   UNL     1      49.513   6.144  16.636  0.00  0.00    +0.000 A 
ATOM      9  C   UNL     1      48.665   6.624  15.617  0.00  0.00    +0.000 A 
BRANCH   8  10
ATOM     10  C   UNL     1      48.927   5.279  17.753  0.00  0.00    +0.000 C 
ATOM     11  C   UNL     1      49.852   4.182  18.317  0.00  0.00    +0.000 C 
ATOM     12  C   UNL     1      49.989   2.986  17.367  0.00  0.00    +0.000 C 
ATOM     13  N   UNL     1      48.694   2.411  17.005  0.00  0.00    +0.000 NA
ATOM     14  C   UNL     1      47.805   3.419  16.424  0.00  0.00    +0.000 C 
ATOM     15  C   UNL     1      47.594   4.606  17.364  0.00  0.00    +0.000 C 
ATOM     16  H   UNL     1      48.258   2.019  17.839  0.00  0.00    +0.000 HD
ENDBRANCH   8  10
ENDBRANCH   1   4
BRANCH   1  17
ATOM     17  N   UNL     1      46.787   7.472  13.610  0.00  0.00    +0.000 N 
ATOM     18  H   UNL     1      46.587   7.235  14.585  0.00  0.00    +0.000 HD
BRANCH  17  25
ATOM     19  C   UNL     1      44.720   8.070  11.419  0.00  0.00    +0.000 C 
ATOM     20  C   UNL     1      45.052   6.725  11.980  0.00  0.00    +0.000 A 
ATOM     21  C   UNL     1      44.250   5.632  11.584  0.00  0.00    +0.000 A 
ATOM     22  C   UNL     1      44.493   4.356  12.078  0.00  0.00    +0.000 A 
ATOM     23  C   UNL     1      45.549   4.212  12.952  0.00  0.00    +0.000 A 
ATOM     24  N   UNL     1      46.315   5.247  13.381  0.00  0.00    +0.000 NA
ATOM     25  C   UNL     1      46.063   6.497  12.915  0.00  0.00    +0.000 A 
BRANCH  22  26
ATOM     26  C   UNL     1      43.676   3.243  11.718  0.00  0.00    +0.000 C 
ATOM     27  N   UNL     1      42.999   2.340  11.425  0.00  0.00    +0.000 NA
ENDBRANCH  22  26
ENDBRANCH  17  25
ENDBRANCH   1  17
TORSDOF 5
ENDMDL
MODEL 4
REMARK VINA RESULT:    -6.545      3.016      7.252
REMARK INTER + INTRA:          -8.978
REMARK INTER:                  -7.865
REMARK INTRA:                  -1.113
REMARK UNBOUND:                -0.520
REMARK  Name = 
REMARK  6 active torsions:
REMARK  status: ('A' for Active; 'I' for Inactive)
REMARK    1  A    between atoms: C_1  and  C_2
REMARK    2  A    between atoms: C_4  and  C_5
REMARK    3  A    between atoms: C_9  and  N_10
REMARK    4  A    between atoms: N_10  and  C_11
REMARK    5  A    between atoms: C_11  and  C_12
REMARK    6  A    between atoms: C_16  and  C_17
REMARK                            x       y       z     vdW  Elec       q    Type
REMARK                         _______ _______ _______ _____ _____    ______ ____
ROOT
ATOM      1  C   UNL     1      48.567   8.149  12.572  0.00  0.00    +0.000 C 
ATOM      2  C   UNL     1      49.561   8.639  11.505  0.00  0.00    +0.000 C 
ATOM      3  C   UNL     1      49.256   9.497  12.678  0.00  0.00    +0.000 C 
ENDROOT
BRANCH   1   4
ATOM      4  C   UNL     1      47.094   8.147  12.163  0.00  0.00    +0.000 A 
ATOM      5  C   UNL     1      46.323   9.319  12.214  0.00  0.00    +0.000 A 
ATOM      6  C   UNL     1      44.978   9.317  11.862  0.00  0.00    +0.000 A 
ATOM      7  C   UNL     1      44.370   8.135  11.444  0.00  0.00    +0.000 A 
ATOM      8  C   UNL     1      45.082   6.929  11.401  0.00  0.00    +0.000 A 
ATOM      9  C   UNL     1      46.450   6.968  11.740  0.00  0.00    +0.000 A 
BRANCH   8  10
ATOM     10  C   UNL     1      44.456   5.603  10.966  0.00  0.00    +0.000 C 
ATOM     11  C   UNL     1      42.996   5.366  11.402  0.00  0.00    +0.000 C 
ATOM     12  C   UNL     1      42.879   5.014  12.890  0.00  0.00    +0.000 C 
ATOM     13  N   UNL     1      43.703   3.863  13.256  0.00  0.00    +0.000 NA
ATOM     14  C   UNL     1      45.107   4.073  12.895  0.00  0.00    +0.000 C 
ATOM     15  C   UNL     1      45.276   4.371  11.406  0.00  0.00    +0.000 C 
ATOM     16  H   UNL     1      43.353   3.035  12.775  0.00  0.00    +0.000 HD
ENDBRANCH   8  10
ENDBRANCH   1   4
BRANCH   1  17
ATOM     17  N   UNL     1      49.019   6.900  13.221  0.00  0.00    +0.000 N 
ATOM     18  H   UNL     1      48.659   6.075  12.736  0.00  0.00    +0.000 HD
BRANCH  17  25
ATOM     19  C   UNL     1      50.858   7.903  15.468  0.00  0.00    +0.000 C 
ATOM     20  C   UNL     1      49.774   6.882  15.599  0.00  0.00    +0.000 A 
ATOM     21  C   UNL     1      49.665   6.195  16.829  0.00  0.00    +0.000 A 
ATOM     22  C   UNL     1      48.690   5.223  17.015  0.00  0.00    +0.000 A 
ATOM     23  C   UNL     1      47.840   4.975  15.959  0.00  0.00    +0.000 A 
ATOM     24  N   UNL     1      47.942   5.590  14.754  0.00  0.00    +0.000 NA
ATOM     25  C   UNL     1      48.909   6.524  14.565  0.00  0.00    +0.000 A 
BRANCH  22  26
ATOM     26  C   UNL     1      48.582   4.493  18.237  0.00  0.00    +0.000 C 
ATOM     27  N   UNL     1      48.503   3.891  19.232  0.00  0.00    +0.000 NA
ENDBRANCH  22  26
ENDBRANCH  17  25
ENDBRANCH   1  17
TORSDOF 5
ENDMDL
MODEL 5
REMARK VINA RESULT:    -6.384      3.615      5.882
REMARK INTER + INTRA:          -8.771
REMARK INTER:                  -7.847
REMARK INTRA:                  -0.924
REMARK UNBOUND:                -0.520
REMARK  Name = 
REMARK  6 active torsions:
REMARK  status: ('A' for Active; 'I' for Inactive)
REMARK    1  A    between atoms: C_1  and  C_2
REMARK    2  A    between atoms: C_4  and  C_5
REMARK    3  A    between atoms: C_9  and  N_10
REMARK    4  A    between atoms: N_10  and  C_11
REMARK    5  A    between atoms: C_11  and  C_12
REMARK    6  A    between atoms: C_16  and  C_17
REMARK                            x       y       z     vdW  Elec       q    Type
REMARK                         _______ _______ _______ _____ _____    ______ ____
ROOT
ATOM      1  C   UNL     1      48.183   7.374  13.851  0.00  0.00    +0.000 C 
ATOM      2  C   UNL     1      48.726   8.498  12.951  0.00  0.00    +0.000 C 
ATOM      3  C   UNL     1      49.234   7.112  12.787  0.00  0.00    +0.000 C 
ENDROOT
BRANCH   1   4
ATOM      4  C   UNL     1      48.651   7.397  15.306  0.00  0.00    +0.000 A 
ATOM      5  C   UNL     1      48.545   8.559  16.086  0.00  0.00    +0.000 A 
ATOM      6  C   UNL     1      48.988   8.590  17.403  0.00  0.00    +0.000 A 
ATOM      7  C   UNL     1      49.548   7.450  17.976  0.00  0.00    +0.000 A 
ATOM      8  C   UNL     1      49.706   6.270  17.237  0.00  0.00    +0.000 A 
ATOM      9  C   UNL     1      49.224   6.263  15.912  0.00  0.00    +0.000 A 
BRANCH   8  10
ATOM     10  C   UNL     1      50.330   4.998  17.814  0.00  0.00    +0.000 C 
ATOM     11  C   UNL     1      49.685   3.667  17.375  0.00  0.00    +0.000 C 
ATOM     12  C   UNL     1      48.343   3.410  18.070  0.00  0.00    +0.000 C 
ATOM     13  N   UNL     1      48.452   3.455  19.527  0.00  0.00    +0.000 NA
ATOM     14  C   UNL     1      49.020   4.726  19.981  0.00  0.00    +0.000 C 
ATOM     15  C   UNL     1      50.389   4.997  19.357  0.00  0.00    +0.000 C 
ATOM     16  H   UNL     1      49.047   2.690  19.841  0.00  0.00    +0.000 HD
ENDBRANCH   8  10
ENDBRANCH   1   4
BRANCH   1  17
ATOM     17  N   UNL     1      46.727   7.184  13.684  0.00  0.00    +0.000 N 
ATOM     18  H   UNL     1      46.237   7.244  14.579  0.00  0.00    +0.000 HD
BRANCH  17  25
ATOM     19  C   UNL     1      46.639   4.289  14.706  0.00  0.00    +0.000 C 
ATOM     20  C   UNL     1      46.059   4.794  13.425  0.00  0.00    +0.000 A 
ATOM     21  C   UNL     1      45.545   3.841  12.516  0.00  0.00    +0.000 A 
ATOM     22  C   UNL     1      45.004   4.239  11.300  0.00  0.00    +0.000 A 
ATOM     23  C   UNL     1      44.983   5.592  11.034  0.00  0.00    +0.000 A 
ATOM     24  N   UNL     1      45.501   6.528  11.868  0.00  0.00    +0.000 NA
ATOM     25  C   UNL     1      46.050   6.137  13.047  0.00  0.00    +0.000 A 
BRANCH  22  26
ATOM     26  C   UNL     1      44.509   3.293  10.352  0.00  0.00    +0.000 C 
ATOM     27  N   UNL     1      44.108   2.511   9.587  0.00  0.00    +0.000 NA
ENDBRANCH  22  26
ENDBRANCH  17  25
ENDBRANCH   1  17
TORSDOF 5
ENDMDL
MODEL 6
REMARK VINA RESULT:    -5.887      4.463      6.961
REMARK INTER + INTRA:          -8.128
REMARK INTER:                  -7.242
REMARK INTRA:                  -0.887
REMARK UNBOUND:                -0.520
REMARK  Name = 
REMARK  6 active torsions:
REMARK  status: ('A' for Active; 'I' for Inactive)
REMARK    1  A    between atoms: C_1  and  C_2
REMARK    2  A    between atoms: C_4  and  C_5
REMARK    3  A    between atoms: C_9  and  N_10
REMARK    4  A    between atoms: N_10  and  C_11
REMARK    5  A    between atoms: C_11  and  C_12
REMARK    6  A    between atoms: C_16  and  C_17
REMARK                            x       y       z     vdW  Elec       q    Type
REMARK                         _______ _______ _______ _____ _____    ______ ____
ROOT
ATOM      1  C   UNL     1      46.801   4.977  14.133  0.00  0.00    +0.000 C 
ATOM      2  C   UNL     1      45.351   4.936  13.619  0.00  0.00    +0.000 C 
ATOM      3  C   UNL     1      46.346   3.966  13.096  0.00  0.00    +0.000 C 
ENDROOT
BRANCH   1   4
ATOM      4  C   UNL     1      47.652   6.149  13.640  0.00  0.00    +0.000 A 
ATOM      5  C   UNL     1      47.707   6.486  12.278  0.00  0.00    +0.000 A 
ATOM      6  C   UNL     1      48.495   7.537  11.824  0.00  0.00    +0.000 A 
ATOM      7  C   UNL     1      49.248   8.283  12.729  0.00  0.00    +0.000 A 
ATOM      8  C   UNL     1      49.255   7.974  14.095  0.00  0.00    +0.000 A 
ATOM      9  C   UNL     1      48.426   6.919  14.528  0.00  0.00    +0.000 A 
BRANCH   8  10
ATOM     10  C   UNL     1      50.077   8.752  15.125  0.00  0.00    +0.000 C 
ATOM     11  C   UNL     1      49.509   8.788  16.558  0.00  0.00    +0.000 C 
ATOM     12  C   UNL     1      48.313   9.738  16.691  0.00  0.00    +0.000 C 
ATOM     13  N   UNL     1      48.626  11.094  16.244  0.00  0.00    +0.000 NA
ATOM     14  C   UNL     1      49.126  11.101  14.868  0.00  0.00    +0.000 C 
ATOM     15  C   UNL     1      50.357  10.210  14.701  0.00  0.00    +0.000 C 
ATOM     16  H   UNL     1      49.332  11.494  16.860  0.00  0.00    +0.000 HD
ENDBRANCH   8  10
ENDBRANCH   1   4
BRANCH   1  17
ATOM     17  N   UNL     1      46.881   4.737  15.588  0.00  0.00    +0.000 N 
ATOM     18  H   UNL     1      46.867   5.615  16.113  0.00  0.00    +0.000 HD
BRANCH  17  25
ATOM     19  C   UNL     1      48.413   5.741  18.054  0.00  0.00    +0.000 C 
ATOM     20  C   UNL     1      48.607   4.430  17.364  0.00  0.00    +0.000 A 
ATOM     21  C   UNL     1      49.690   3.624  17.781  0.00  0.00    +0.000 A 
ATOM     22  C   UNL     1      49.938   2.398  17.173  0.00  0.00    +0.000 A 
ATOM     23  C   UNL     1      49.078   2.011  16.167  0.00  0.00    +0.000 A 
ATOM     24  N   UNL     1      48.052   2.778  15.720  0.00  0.00    +0.000 NA
ATOM     25  C   UNL     1      47.824   3.985  16.299  0.00  0.00    +0.000 A 
BRANCH  22  26
ATOM     26  C   UNL     1      51.045   1.582  17.554  0.00  0.00    +0.000 C 
ATOM     27  N   UNL     1      51.941   0.909  17.872  0.00  0.00    +0.000 NA
ENDBRANCH  22  26
ENDBRANCH  17  25
ENDBRANCH   1  17
TORSDOF 5
ENDMDL
MODEL 7
REMARK VINA RESULT:    -5.715      4.080      8.749
REMARK INTER + INTRA:          -7.905
REMARK INTER:                  -7.394
REMARK INTRA:                  -0.511
REMARK UNBOUND:                -0.520
REMARK  Name = 
REMARK  6 active torsions:
REMARK  status: ('A' for Active; 'I' for Inactive)
REMARK    1  A    between atoms: C_1  and  C_2
REMARK    2  A    between atoms: C_4  and  C_5
REMARK    3  A    between atoms: C_9  and  N_10
REMARK    4  A    between atoms: N_10  and  C_11
REMARK    5  A    between atoms: C_11  and  C_12
REMARK    6  A    between atoms: C_16  and  C_17
REMARK                            x       y       z     vdW  Elec       q    Type
REMARK                         _______ _______ _______ _____ _____    ______ ____
ROOT
ATOM      1  C   UNL     1      47.792   4.826  15.851  0.00  0.00    +0.000 C 
ATOM      2  C   UNL     1      46.748   4.031  16.654  0.00  0.00    +0.000 C 
ATOM      3  C   UNL     1      47.933   3.334  16.092  0.00  0.00    +0.000 C 
ENDROOT
BRANCH   1   4
ATOM      4  C   UNL     1      47.364   5.271  14.452  0.00  0.00    +0.000 A 
ATOM      5  C   UNL     1      47.921   6.410  13.849  0.00  0.00    +0.000 A 
ATOM      6  C   UNL     1      47.520   6.829  12.586  0.00  0.00    +0.000 A 
ATOM      7  C   UNL     1      46.549   6.111  11.890  0.00  0.00    +0.000 A 
ATOM      8  C   UNL     1      45.937   4.984  12.454  0.00  0.00    +0.000 A 
ATOM      9  C   UNL     1      46.383   4.570  13.726  0.00  0.00    +0.000 A 
BRANCH   8  10
ATOM     10  C   UNL     1      44.856   4.172  11.739  0.00  0.00    +0.000 C 
ATOM     11  C   UNL     1      44.094   4.901  10.614  0.00  0.00    +0.000 C 
ATOM     12  C   UNL     1      43.077   5.912  11.155  0.00  0.00    +0.000 C 
ATOM     13  N   UNL     1      42.129   5.304  12.087  0.00  0.00    +0.000 NA
ATOM     14  C   UNL     1      42.819   4.640  13.195  0.00  0.00    +0.000 C 
ATOM     15  C   UNL     1      43.805   3.580  12.702  0.00  0.00    +0.000 C 
ATOM     16  H   UNL     1      41.561   4.621  11.588  0.00  0.00    +0.000 HD
ENDBRANCH   8  10
ENDBRANCH   1   4
BRANCH   1  17
ATOM     17  N   UNL     1      48.422   5.889  16.661  0.00  0.00    +0.000 N 
ATOM     18  H   UNL     1      48.522   6.757  16.128  0.00  0.00    +0.000 HD
BRANCH  17  25
ATOM     19  C   UNL     1      48.637   6.121  19.717  0.00  0.00    +0.000 C 
ATOM     20  C   UNL     1      49.775   6.037  18.752  0.00  0.00    +0.000 A 
ATOM     21  C   UNL     1      51.080   6.226  19.260  0.00  0.00    +0.000 A 
ATOM     22  C   UNL     1      52.184   6.177  18.418  0.00  0.00    +0.000 A 
ATOM     23  C   UNL     1      51.946   5.924  17.084  0.00  0.00    +0.000 A 
ATOM     24  N   UNL     1      50.704   5.775  16.559  0.00  0.00    +0.000 NA
ATOM     25  C   UNL     1      49.623   5.845  17.379  0.00  0.00    +0.000 A 
BRANCH  22  26
ATOM     26  C   UNL     1      53.509   6.398  18.902  0.00  0.00    +0.000 C 
ATOM     27  N   UNL     1      54.591   6.566  19.300  0.00  0.00    +0.000 NA
ENDBRANCH  22  26
ENDBRANCH  17  25
ENDBRANCH   1  17
TORSDOF 5
ENDMDL
MODEL 8
REMARK VINA RESULT:    -5.683      2.891      8.407
REMARK INTER + INTRA:          -7.865
REMARK INTER:                  -7.017
REMARK INTRA:                  -0.848
REMARK UNBOUND:                -0.520
REMARK  Name = 
REMARK  6 active torsions:
REMARK  status: ('A' for Active; 'I' for Inactive)
REMARK    1  A    between atoms: C_1  and  C_2
REMARK    2  A    between atoms: C_4  and  C_5
REMARK    3  A    between atoms: C_9  and  N_10
REMARK    4  A    between atoms: N_10  and  C_11
REMARK    5  A    between atoms: C_11  and  C_12
REMARK    6  A    between atoms: C_16  and  C_17
REMARK                            x       y       z     vdW  Elec       q    Type
REMARK                         _______ _______ _______ _____ _____    ______ ____
ROOT
ATOM      1  C   UNL     1      48.676   7.789  13.012  0.00  0.00    +0.000 C 
ATOM      2  C   UNL     1      49.362   7.672  11.640  0.00  0.00    +0.000 C 
ATOM      3  C   UNL     1      48.329   8.716  11.861  0.00  0.00    +0.000 C 
ENDROOT
BRANCH   1   4
ATOM      4  C   UNL     1      47.668   6.690  13.352  0.00  0.00    +0.000 A 
ATOM      5  C   UNL     1      48.020   5.611  14.180  0.00  0.00    +0.000 A 
ATOM      6  C   UNL     1      47.114   4.600  14.475  0.00  0.00    +0.000 A 
ATOM      7  C   UNL     1      45.824   4.646  13.948  0.00  0.00    +0.000 A 
ATOM      8  C   UNL     1      45.426   5.681  13.093  0.00  0.00    +0.000 A 
ATOM      9  C   UNL     1      46.360   6.705  12.833  0.00  0.00    +0.000 A 
BRANCH   8  10
ATOM     10  C   UNL     1      44.029   5.768  12.476  0.00  0.00    +0.000 C 
ATOM     11  C   UNL     1      43.059   4.624  12.833  0.00  0.00    +0.000 C 
ATOM     12  C   UNL     1      43.385   3.325  12.086  0.00  0.00    +0.000 C 
ATOM     13  N   UNL     1      43.426   3.511  10.637  0.00  0.00    +0.000 NA
ATOM     14  C   UNL     1      44.374   4.562  10.260  0.00  0.00    +0.000 C 
ATOM     15  C   UNL     1      44.051   5.894  10.938  0.00  0.00    +0.000 C 
ATOM     16  H   UNL     1      42.496   3.763  10.306  0.00  0.00    +0.000 HD
ENDBRANCH   8  10
ENDBRANCH   1   4
BRANCH   1  17
ATOM     17  N   UNL     1      49.640   8.085  14.092  0.00  0.00    +0.000 N 
ATOM     18  H   UNL     1      50.376   7.376  14.140  0.00  0.00    +0.000 HD
BRANCH  17  25
ATOM     19  C   UNL     1      50.856   6.497  16.422  0.00  0.00    +0.000 C 
ATOM     20  C   UNL     1      49.843   7.590  16.528  0.00  0.00    +0.000 A 
ATOM     21  C   UNL     1      49.269   7.832  17.797  0.00  0.00    +0.000 A 
ATOM     22  C   UNL     1      48.310   8.824  17.965  0.00  0.00    +0.000 A 
ATOM     23  C   UNL     1      47.961   9.555  16.851  0.00  0.00    +0.000 A 
ATOM     24  N   UNL     1      48.465   9.324  15.612  0.00  0.00    +0.000 NA
ATOM     25  C   UNL     1      49.386   8.340  15.444  0.00  0.00    +0.000 A 
BRANCH  22  26
ATOM     26  C   UNL     1      47.693   9.064  19.230  0.00  0.00    +0.000 C 
ATOM     27  N   UNL     1      47.179   9.266  20.256  0.00  0.00    +0.000 NA
ENDBRANCH  22  26
ENDBRANCH  17  25
ENDBRANCH   1  17
TORSDOF 5
ENDMDL
MODEL 9
REMARK VINA RESULT:    -5.662      1.780      7.174
REMARK INTER + INTRA:          -7.837
REMARK INTER:                  -7.150
REMARK INTRA:                  -0.687
REMARK UNBOUND:                -0.520
REMARK  Name = 
REMARK  6 active torsions:
REMARK  status: ('A' for Active; 'I' for Inactive)
REMARK    1  A    between atoms: C_1  and  C_2
REMARK    2  A    between atoms: C_4  and  C_5
REMARK    3  A    between atoms: C_9  and  N_10
REMARK    4  A    between atoms: N_10  and  C_11
REMARK    5  A    between atoms: C_11  and  C_12
REMARK    6  A    between atoms: C_16  and  C_17
REMARK                            x       y       z     vdW  Elec       q    Type
REMARK                         _______ _______ _______ _____ _____    ______ ____
ROOT
ATOM      1  C   UNL     1      45.885   6.802  11.832  0.00  0.00    +0.000 C 
ATOM      2  C   UNL     1      45.047   7.992  11.332  0.00  0.00    +0.000 C 
ATOM      3  C   UNL     1      45.190   7.752  12.791  0.00  0.00    +0.000 C 
ENDROOT
BRANCH   1   4
ATOM      4  C   UNL     1      45.262   5.419  11.643  0.00  0.00    +0.000 A 
ATOM      5  C   UNL     1      44.907   4.624  12.745  0.00  0.00    +0.000 A 
ATOM      6  C   UNL     1      44.359   3.358  12.577  0.00  0.00    +0.000 A 
ATOM      7  C   UNL     1      44.147   2.855  11.295  0.00  0.00    +0.000 A 
ATOM      8  C   UNL     1      44.509   3.591  10.159  0.00  0.00    +0.000 A 
ATOM      9  C   UNL     1      45.039   4.882  10.361  0.00  0.00    +0.000 A 
BRANCH   8  10
ATOM     10  C   UNL     1      44.313   3.077   8.731  0.00  0.00    +0.000 C 
ATOM     11  C   UNL     1      44.684   1.601   8.485  0.00  0.00    +0.000 C 
ATOM     12  C   UNL     1      46.201   1.380   8.432  0.00  0.00    +0.000 C 
ATOM     13  N   UNL     1      46.853   2.232   7.439  0.00  0.00    +0.000 NA
ATOM     14  C   UNL     1      46.557   3.647   7.671  0.00  0.00    +0.000 C 
ATOM     15  C   UNL     1      45.054   3.924   7.674  0.00  0.00    +0.000 C 
ATOM     16  H   UNL     1      46.530   1.969   6.509  0.00  0.00    +0.000 HD
ENDBRANCH   8  10
ENDBRANCH   1   4
BRANCH   1  17
ATOM     17  N   UNL     1      47.296   6.897  11.402  0.00  0.00    +0.000 N 
ATOM     18  H   UNL     1      47.624   6.016  10.999  0.00  0.00    +0.000 HD
BRANCH  17  25
ATOM     19  C   UNL     1      47.980   5.913  14.230  0.00  0.00    +0.000 C 
ATOM     20  C   UNL     1      48.707   6.966  13.458  0.00  0.00    +0.000 A 
ATOM     21  C   UNL     1      49.717   7.691  14.130  0.00  0.00    +0.000 A 
ATOM     22  C   UNL     1      50.423   8.695  13.478  0.00  0.00    +0.000 A 
ATOM     23  C   UNL     1      50.102   8.934  12.159  0.00  0.00    +0.000 A 
ATOM     24  N   UNL     1      49.114   8.281  11.497  0.00  0.00    +0.000 NA
ATOM     25  C   UNL     1      48.408   7.316  12.141  0.00  0.00    +0.000 A 
BRANCH  22  26
ATOM     26  C   UNL     1      51.425   9.463  14.145  0.00  0.00    +0.000 C 
ATOM     27  N   UNL     1      52.235  10.090  14.699  0.00  0.00    +0.000 NA
ENDBRANCH  22  26
ENDBRANCH  17  25
ENDBRANCH   1  17
TORSDOF 5
ENDMDL
