MODEL 1
REMARK VINA RESULT:    -8.170      0.000      0.000
REMARK INTER + INTRA:         -12.135
REMARK INTER:                 -11.035
REMARK INTRA:                  -1.100
REMARK UNBOUND:                -1.100
REMARK  Name = 
REMARK  7 active torsions:
REMARK  status: ('A' for Active; 'I' for Inactive)
REMARK    1  A    between atoms: C_1  and  C_2
REMARK    2  A    between atoms: C_3  and  C_4
REMARK    3  A    between atoms: C_4  and  C_5
REMARK    4  A    between atoms: C_5  and  O_6
REMARK    5  A    between atoms: O_6  and  C_7
REMARK    6  A    between atoms: C_10  and  C_11
REMARK    7  A    between atoms: C_19  and  C_20
REMARK                            x       y       z     vdW  Elec       q    Type
REMARK                         _______ _______ _______ _____ _____    ______ ____
ROOT
ATOM      1  C   UNL     1      45.059   7.426  11.352  0.00  0.00    +0.000 C 
ATOM      2  C   UNL     1      45.668   6.394  12.274  0.00  0.00    +0.000 A 
ATOM      3  C   UNL     1      44.902   5.249  12.655  0.00  0.00    +0.000 A 
ATOM      4  C   UNL     1      45.489   4.273  13.480  0.00  0.00    +0.000 A 
ATOM      5  C   UNL     1      46.791   4.409  13.934  0.00  0.00    +0.000 A 
ATOM      6  C   UNL     1      47.525   5.542  13.597  0.00  0.00    +0.000 A 
ATOM      7  C   UNL     1      47.001   6.566  12.774  0.00  0.00    +0.000 A 
ENDROOT
BRANCH   7   8
ATOM      8  C   UNL     1      47.885   7.749  12.502  0.00  0.00    +0.000 A 
ATOM      9  C   UNL     1      47.501   9.051  12.895  0.00  0.00    +0.000 A 
ATOM     10  C   UNL     1      48.280  10.180  12.603  0.00  0.00    +0.000 A 
ATOM     11  C   UNL     1      49.494  10.034  11.945  0.00  0.00    +0.000 A 
ATOM     12  C   UNL     1      49.901   8.764  11.553  0.00  0.00    +0.000 A 
ATOM     13 CL   UNL     1      51.420   8.565  10.765  0.00  0.00    +0.000 Cl
ATOM     14  C   UNL     1      49.093   7.647  11.791  0.00  0.00    +0.000 A 
ENDBRANCH   7   8
BRANCH   3  15
ATOM     15  C   UNL     1      43.430   5.034  12.309  0.00  0.00    +0.000 C 
BRANCH  15  16
ATOM     16  C   UNL     1      43.307   4.065  11.132  0.00  0.00    +0.000 C 
BRANCH  16  17
ATOM     17  O   UNL     1      43.595   4.689   9.866  0.00  0.00    +0.000 OA
BRANCH  17  18
ATOM     18  C   UNL     1      44.547   3.955   9.177  0.00  0.00    +0.000 A 
ATOM     19  C   UNL     1      44.625   2.587   9.387  0.00  0.00    +0.000 A 
ATOM     20  C   UNL     1      45.590   1.861   8.677  0.00  0.00    +0.000 A 
ATOM     21  C   UNL     1      46.444   2.521   7.777  0.00  0.00    +0.000 A 
ATOM     22  C   UNL     1      46.286   3.886   7.651  0.00  0.00    +0.000 A 
ATOM     23  N   UNL     1      45.363   4.607   8.323  0.00  0.00    +0.000 NA
BRANCH  21  24
ATOM     24  C   UNL     1      47.467   1.767   7.014  0.00  0.00    +0.000 C 
ATOM     25  N   UNL     1      48.521   2.449   6.464  0.00  0.00    +0.000 N 
ATOM     26  O   UNL     1      47.377   0.555   6.868  0.00  0.00    +0.000 OA
ATOM     27  H   UNL     1      48.682   3.445   6.502  0.00  0.00    +0.000 HD
ATOM     28  H   UNL     1      49.189   1.900   5.939  0.00  0.00    +0.000 HD
ENDBRANCH  21  24
ENDBRANCH  17  18
ENDBRANCH  16  17
ENDBRANCH  15  16
ENDBRANCH   3  15
TORSDOF 6
ENDMDL
MODEL 2
REMARK VINA RESULT:    -8.099      1.322      1.609
REMARK INTER + INTRA:         -12.040
REMARK INTER:                 -11.129
REMARK INTRA:                  -0.911
REMARK UNBOUND:                -1.100
REMARK  Name = 
REMARK  7 active torsions:
REMARK  status: ('A' for Active; 'I' for Inactive)
REMARK    1  A    between atoms: C_1  and  C_2
REMARK    2  A    between atoms: C_3  and  C_4
REMARK    3  A    between atoms: C_4  and  C_5
REMARK    4  A    between atoms: C_5  and  O_6
REMARK    5  A    between atoms: O_6  and  C_7
REMARK    6  A    between atoms: C_10  and  C_11
REMARK    7  A    between atoms: C_19  and  C_20
REMARK                            x       y       z     vdW  Elec       q    Type
REMARK                         _______ _______ _______ _____ _____    ______ ____
ROOT
ATOM      1  C   UNL     1      44.602   7.206  11.201  0.00  0.00    +0.000 C 
ATOM      2  C   UNL     1      45.415   6.365  12.159  0.00  0.00    +0.000 A 
ATOM      3  C   UNL     1      44.878   5.135  12.650  0.00  0.00    +0.000 A 
ATOM      4  C   UNL     1      45.657   4.339  13.508  0.00  0.00    +0.000 A 
ATOM      5  C   UNL     1      46.930   4.732  13.890  0.00  0.00    +0.000 A 
ATOM      6  C   UNL     1      47.439   5.948  13.446  0.00  0.00    +0.000 A 
ATOM      7  C   UNL     1      46.714   6.803  12.584  0.00  0.00    +0.000 A 
ENDROOT
BRANCH   7   8
ATOM      8  C   UNL     1      47.363   8.100  12.193  0.00  0.00    +0.000 A 
ATOM      9  C   UNL     1      48.704   8.139  11.751  0.00  0.00    +0.000 A 
ATOM     10  C   UNL     1      49.352   9.341  11.435  0.00  0.00    +0.000 A 
ATOM     11  C   UNL     1      48.659  10.543  11.509  0.00  0.00    +0.000 A 
ATOM     12  C   UNL     1      47.336  10.534  11.933  0.00  0.00    +0.000 A 
ATOM     13 CL   UNL     1      46.455  12.013  11.998  0.00  0.00    +0.000 Cl
ATOM     14  C   UNL     1      46.711   9.339  12.307  0.00  0.00    +0.000 A 
ENDBRANCH   7   8
BRANCH   3  15
ATOM     15  C   UNL     1      43.457   4.641  12.388  0.00  0.00    +0.000 C 
BRANCH  15  16
ATOM     16  C   UNL     1      43.456   3.640  11.232  0.00  0.00    +0.000 C 
BRANCH  16  17
ATOM     17  O   UNL     1      43.564   4.279   9.945  0.00  0.00    +0.000 OA
BRANCH  17  18
ATOM     18  C   UNL     1      44.571   3.686   9.200  0.00  0.00    +0.000 A 
ATOM     19  C   UNL     1      44.737   2.311   9.266  0.00  0.00    +0.000 A 
ATOM     20  C   UNL     1      45.757   1.730   8.501  0.00  0.00    +0.000 A 
ATOM     21  C   UNL     1      46.577   2.536   7.693  0.00  0.00    +0.000 A 
ATOM     22  C   UNL     1      46.328   3.893   7.709  0.00  0.00    +0.000 A 
ATOM     23  N   UNL     1      45.352   4.477   8.435  0.00  0.00    +0.000 NA
BRANCH  21  24
ATOM     24  C   UNL     1      47.656   1.936   6.874  0.00  0.00    +0.000 C 
ATOM     25  N   UNL     1      48.568   2.762   6.270  0.00  0.00    +0.000 N 
ATOM     26  O   UNL     1      47.738   0.723   6.730  0.00  0.00    +0.000 OA
ATOM     27  H   UNL     1      48.583   3.771   6.301  0.00  0.00    +0.000 HD
ATOM     28  H   UNL     1      49.281   2.314   5.708  0.00  0.00    +0.000 HD
ENDBRANCH  21  24
ENDBRANCH  17  18
ENDBRANCH  16  17
ENDBRANCH  15  16
ENDBRANCH   3  15
TORSDOF 6
ENDMDL
MODEL 3
REMARK VINA RESULT:    -8.020      1.321      2.143
REMARK INTER + INTRA:         -11.933
REMARK INTER:                 -10.611
REMARK INTRA:                  -1.323
REMARK UNBOUND:                -1.100
REMARK  Name = 
REMARK  7 active torsions:
REMARK  status: ('A' for Active; 'I' for Inactive)
REMARK    1  A    between atoms: C_1  and  C_2
REMARK    2  A    between atoms: C_3  and  C_4
REMARK    3  A    between atoms: C_4  and  C_5
REMARK    4  A    between atoms: C_5  and  O_6
REMARK    5  A    between atoms: O_6  and  C_7
REMARK    6  A    between atoms: C_10  and  C_11
REMARK    7  A    between atoms: C_19  and  C_20
REMARK                            x       y       z     vdW  Elec       q    Type
REMARK                         _______ _______ _______ _____ _____    ______ ____
ROOT
ATOM      1  C   UNL     1      46.353   4.841  13.873  0.00  0.00    +0.000 C 
ATOM      2  C   UNL     1      45.535   5.733  12.967  0.00  0.00    +0.000 A 
ATOM      3  C   UNL     1      44.215   5.337  12.589  0.00  0.00    +0.000 A 
ATOM      4  C   UNL     1      43.446   6.190  11.780  0.00  0.00    +0.000 A 
ATOM      5  C   UNL     1      43.950   7.403  11.337  0.00  0.00    +0.000 A 
ATOM      6  C   UNL     1      45.249   7.773  11.670  0.00  0.00    +0.000 A 
ATOM      7  C   UNL     1      46.083   6.966  12.478  0.00  0.00    +0.000 A 
ENDROOT
BRANCH   7   8
ATOM      8  C   UNL     1      47.474   7.465  12.747  0.00  0.00    +0.000 A 
ATOM      9  C   UNL     1      47.793   8.116  13.960  0.00  0.00    +0.000 A 
ATOM     10  C   UNL     1      49.067   8.641  14.213  0.00  0.00    +0.000 A 
ATOM     11  C   UNL     1      50.079   8.491  13.274  0.00  0.00    +0.000 A 
ATOM     12  C   UNL     1      49.797   7.848  12.075  0.00  0.00    +0.000 A 
ATOM     13 CL   UNL     1      51.051   7.626  10.915  0.00  0.00    +0.000 Cl
ATOM     14  C   UNL     1      48.507   7.379  11.799  0.00  0.00    +0.000 A 
ENDBRANCH   7   8
BRANCH   3  15
ATOM     15  C   UNL     1      43.585   3.986  12.924  0.00  0.00    +0.000 C 
BRANCH  15  16
ATOM     16  C   UNL     1      44.055   2.928  11.925  0.00  0.00    +0.000 C 
BRANCH  16  17
ATOM     17  O   UNL     1      43.453   3.086  10.626  0.00  0.00    +0.000 OA
BRANCH  17  18
ATOM     18  C   UNL     1      44.420   2.992   9.637  0.00  0.00    +0.000 A 
ATOM     19  C   UNL     1      44.912   4.155   9.064  0.00  0.00    +0.000 A 
ATOM     20  C   UNL     1      45.893   4.039   8.070  0.00  0.00    +0.000 A 
ATOM     21  C   UNL     1      46.355   2.770   7.682  0.00  0.00    +0.000 A 
ATOM     22  C   UNL     1      45.790   1.680   8.313  0.00  0.00    +0.000 A 
ATOM     23  N   UNL     1      44.846   1.765   9.273  0.00  0.00    +0.000 NA
BRANCH  21  24
ATOM     24  C   UNL     1      47.395   2.632   6.636  0.00  0.00    +0.000 C 
ATOM     25  N   UNL     1      47.171   3.179   5.399  0.00  0.00    +0.000 N 
ATOM     26  O   UNL     1      48.440   2.036   6.862  0.00  0.00    +0.000 OA
ATOM     27  H   UNL     1      46.341   3.668   5.097  0.00  0.00    +0.000 HD
ATOM     28  H   UNL     1      47.899   3.050   4.710  0.00  0.00    +0.000 HD
ENDBRANCH  21  24
ENDBRANCH  17  18
ENDBRANCH  16  17
ENDBRANCH  15  16
ENDBRANCH   3  15
TORSDOF 6
ENDMDL
MODEL 4
REMARK VINA RESULT:    -7.561      2.348      3.061
REMARK INTER + INTRA:         -11.314
REMARK INTER:                 -10.575
REMARK INTRA:                  -0.739
REMARK UNBOUND:                -1.100
REMARK  Name = 
REMARK  7 active torsions:
REMARK  status: ('A' for Active; 'I' for Inactive)
REMARK    1  A    between atoms: C_1  and  C_2
REMARK    2  A    between atoms: C_3  and  C_4
REMARK    3  A    between atoms: C_4  and  C_5
REMARK    4  A    between atoms: C_5  and  O_6
REMARK    5  A    between atoms: O_6  and  C_7
REMARK    6  A    between atoms: C_10  and  C_11
REMARK    7  A    between atoms: C_19  and  C_20
REMARK                            x       y       z     vdW  Elec       q    Type
REMARK                         _______ _______ _______ _____ _____    ______ ____
ROOT
ATOM      1  C   UNL     1      47.071   4.047  14.181  0.00  0.00    +0.000 C 
ATOM      2  C   UNL     1      46.580   5.126  13.242  0.00  0.00    +0.000 A 
ATOM      3  C   UNL     1      45.490   4.851  12.359  0.00  0.00    +0.000 A 
ATOM      4  C   UNL     1      45.013   5.871  11.518  0.00  0.00    +0.000 A 
ATOM      5  C   UNL     1      45.587   7.132  11.526  0.00  0.00    +0.000 A 
ATOM      6  C   UNL     1      46.674   7.391  12.356  0.00  0.00    +0.000 A 
ATOM      7  C   UNL     1      47.210   6.414  13.227  0.00  0.00    +0.000 A 
ENDROOT
BRANCH   7   8
ATOM      8  C   UNL     1      48.399   6.809  14.055  0.00  0.00    +0.000 A 
ATOM      9  C   UNL     1      49.495   7.491  13.480  0.00  0.00    +0.000 A 
ATOM     10  C   UNL     1      50.640   7.821  14.217  0.00  0.00    +0.000 A 
ATOM     11  C   UNL     1      50.706   7.517  15.571  0.00  0.00    +0.000 A 
ATOM     12  C   UNL     1      49.640   6.853  16.166  0.00  0.00    +0.000 A 
ATOM     13 CL   UNL     1      49.693   6.499  17.851  0.00  0.00    +0.000 Cl
ATOM     14  C   UNL     1      48.523   6.471  15.413  0.00  0.00    +0.000 A 
ENDBRANCH   7   8
BRANCH   3  15
ATOM     15  C   UNL     1      44.841   3.480  12.181  0.00  0.00    +0.000 C 
BRANCH  15  16
ATOM     16  C   UNL     1      43.751   3.553  11.112  0.00  0.00    +0.000 C 
BRANCH  16  17
ATOM     17  O   UNL     1      43.687   2.363  10.303  0.00  0.00    +0.000 OA
BRANCH  17  18
ATOM     18  C   UNL     1      44.602   2.442   9.264  0.00  0.00    +0.000 A 
ATOM     19  C   UNL     1      44.718   3.629   8.558  0.00  0.00    +0.000 A 
ATOM     20  C   UNL     1      45.652   3.690   7.516  0.00  0.00    +0.000 A 
ATOM     21  C   UNL     1      46.443   2.569   7.213  0.00  0.00    +0.000 A 
ATOM     22  C   UNL     1      46.238   1.436   7.974  0.00  0.00    +0.000 A 
ATOM     23  N   UNL     1      45.347   1.352   8.984  0.00  0.00    +0.000 NA
BRANCH  21  24
ATOM     24  C   UNL     1      47.439   2.619   6.117  0.00  0.00    +0.000 C 
ATOM     25  N   UNL     1      48.773   2.586   6.430  0.00  0.00    +0.000 N 
ATOM     26  O   UNL     1      47.086   2.695   4.947  0.00  0.00    +0.000 OA
ATOM     27  H   UNL     1      49.175   2.548   7.356  0.00  0.00    +0.000 HD
ATOM     28  H   UNL     1      49.420   2.637   5.654  0.00  0.00    +0.000 HD
ENDBRANCH  21  24
ENDBRANCH  17  18
ENDBRANCH  16  17
ENDBRANCH  15  16
ENDBRANCH   3  15
TORSDOF 6
ENDMDL
MODEL 5
REMARK VINA RESULT:    -7.044      1.409      2.288
REMARK INTER + INTRA:         -10.615
REMARK INTER:                  -9.628
REMARK INTRA:                  -0.987
REMARK UNBOUND:                -1.100
REMARK  Name = 
REMARK  7 active torsions:
REMARK  status: ('A' for Active; 'I' for Inactive)
REMARK    1  A    between atoms: C_1  and  C_2
REMARK    2  A    between atoms: C_3  and  C_4
REMARK    3  A    between atoms: C_4  and  C_5
REMARK    4  A    between atoms: C_5  and  O_6
REMARK    5  A    between atoms: O_6  and  C_7
REMARK    6  A    between atoms: C_10  and  C_11
REMARK    7  A    between atoms: C_19  and  C_20
REMARK                            x       y       z     vdW  Elec       q    Type
REMARK                         _______ _______ _______ _____ _____    ______ ____
ROOT
ATOM      1  C   UNL     1      47.500   5.555  13.393  0.00  0.00    +0.000 C 
ATOM      2  C   UNL     1      46.643   6.634  12.770  0.00  0.00    +0.000 A 
ATOM      3  C   UNL     1      45.401   6.283  12.156  0.00  0.00    +0.000 A 
ATOM      4  C   UNL     1      44.591   7.296  11.615  0.00  0.00    +0.000 A 
ATOM      5  C   UNL     1      44.981   8.626  11.662  0.00  0.00    +0.000 A 
ATOM      6  C   UNL     1      46.207   8.966  12.224  0.00  0.00    +0.000 A 
ATOM      7  C   UNL     1      47.076   8.002  12.784  0.00  0.00    +0.000 A 
ENDROOT
BRANCH   7   8
ATOM      8  C   UNL     1      48.383   8.492  13.340  0.00  0.00    +0.000 A 
ATOM      9  C   UNL     1      48.465   9.031  14.643  0.00  0.00    +0.000 A 
ATOM     10  C   UNL     1      49.659   9.547  15.165  0.00  0.00    +0.000 A 
ATOM     11  C   UNL     1      50.824   9.499  14.410  0.00  0.00    +0.000 A 
ATOM     12  C   UNL     1      50.775   8.968  13.127  0.00  0.00    +0.000 A 
ATOM     13 CL   UNL     1      52.219   8.871  12.192  0.00  0.00    +0.000 Cl
ATOM     14  C   UNL     1      49.569   8.509  12.586  0.00  0.00    +0.000 A 
ENDBRANCH   7   8
BRANCH   3  15
ATOM     15  C   UNL     1      44.908   4.852  11.949  0.00  0.00    +0.000 C 
BRANCH  15  16
ATOM     16  C   UNL     1      43.840   4.820  10.855  0.00  0.00    +0.000 C 
BRANCH  16  17
ATOM     17  O   UNL     1      43.638   3.500  10.316  0.00  0.00    +0.000 OA
BRANCH  17  18
ATOM     18  C   UNL     1      44.611   3.216   9.370  0.00  0.00    +0.000 A 
ATOM     19  C   UNL     1      45.075   4.236   8.554  0.00  0.00    +0.000 A 
ATOM     20  C   UNL     1      46.062   3.930   7.608  0.00  0.00    +0.000 A 
ATOM     21  C   UNL     1      46.558   2.619   7.508  0.00  0.00    +0.000 A 
ATOM     22  C   UNL     1      46.020   1.680   8.364  0.00  0.00    +0.000 A 
ATOM     23  N   UNL     1      45.070   1.950   9.284  0.00  0.00    +0.000 NA
BRANCH  21  24
ATOM     24  C   UNL     1      47.606   2.281   6.517  0.00  0.00    +0.000 C 
ATOM     25  N   UNL     1      47.755   3.077   5.410  0.00  0.00    +0.000 N 
ATOM     26  O   UNL     1      48.329   1.305   6.671  0.00  0.00    +0.000 OA
ATOM     27  H   UNL     1      47.203   3.887   5.171  0.00  0.00    +0.000 HD
ATOM     28  H   UNL     1      48.472   2.803   4.751  0.00  0.00    +0.000 HD
ENDBRANCH  21  24
ENDBRANCH  17  18
ENDBRANCH  16  17
ENDBRANCH  15  16
ENDBRANCH   3  15
TORSDOF 6
ENDMDL
MODEL 6
REMARK VINA RESULT:    -6.829      2.233      2.499
REMARK INTER + INTRA:         -10.325
REMARK INTER:                  -9.583
REMARK INTRA:                  -0.742
REMARK UNBOUND:                -1.100
REMARK  Name = 
REMARK  7 active torsions:
REMARK  status: ('A' for Active; 'I' for Inactive)
REMARK    1  A    between atoms: C_1  and  C_2
REMARK    2  A    between atoms: C_3  and  C_4
REMARK    3  A    between atoms: C_4  and  C_5
REMARK    4  A    between atoms: C_5  and  O_6
REMARK    5  A    between atoms: O_6  and  C_7
REMARK    6  A    between atoms: C_10  and  C_11
REMARK    7  A    between atoms: C_19  and  C_20
REMARK                            x       y       z     vdW  Elec       q    Type
REMARK                         _______ _______ _______ _____ _____    ______ ____
ROOT
ATOM      1  C   UNL     1      47.476   7.763  11.784  0.00  0.00    +0.000 C 
ATOM      2  C   UNL     1      47.141   6.628  12.725  0.00  0.00    +0.000 A 
ATOM      3  C   UNL     1      46.082   5.727  12.396  0.00  0.00    +0.000 A 
ATOM      4  C   UNL     1      45.803   4.650  13.255  0.00  0.00    +0.000 A 
ATOM      5  C   UNL     1      46.533   4.454  14.416  0.00  0.00    +0.000 A 
ATOM      6  C   UNL     1      47.539   5.352  14.760  0.00  0.00    +0.000 A 
ATOM      7  C   UNL     1      47.874   6.460  13.947  0.00  0.00    +0.000 A 
ENDROOT
BRANCH   7   8
ATOM      8  C   UNL     1      48.963   7.370  14.439  0.00  0.00    +0.000 A 
ATOM      9  C   UNL     1      50.132   7.587  13.675  0.00  0.00    +0.000 A 
ATOM     10  C   UNL     1      51.188   8.385  14.135  0.00  0.00    +0.000 A 
ATOM     11  C   UNL     1      51.086   9.031  15.360  0.00  0.00    +0.000 A 
ATOM     12  C   UNL     1      49.945   8.842  16.130  0.00  0.00    +0.000 A 
ATOM     13 CL   UNL     1      49.791   9.663  17.637  0.00  0.00    +0.000 Cl
ATOM     14  C   UNL     1      48.919   7.996  15.696  0.00  0.00    +0.000 A 
ENDBRANCH   7   8
BRANCH   3  15
ATOM     15  C   UNL     1      45.141   5.892  11.204  0.00  0.00    +0.000 C 
BRANCH  15  16
ATOM     16  C   UNL     1      44.235   4.666  11.080  0.00  0.00    +0.000 C 
BRANCH  16  17
ATOM     17  O   UNL     1      43.754   4.465   9.737  0.00  0.00    +0.000 OA
BRANCH  17  18
ATOM     18  C   UNL     1      44.687   3.757   8.996  0.00  0.00    +0.000 A 
ATOM     19  C   UNL     1      44.907   2.421   9.291  0.00  0.00    +0.000 A 
ATOM     20  C   UNL     1      45.850   1.721   8.528  0.00  0.00    +0.000 A 
ATOM     21  C   UNL     1      46.541   2.374   7.492  0.00  0.00    +0.000 A 
ATOM     22  C   UNL     1      46.250   3.707   7.291  0.00  0.00    +0.000 A 
ATOM     23  N   UNL     1      45.345   4.403   8.011  0.00  0.00    +0.000 NA
BRANCH  21  24
ATOM     24  C   UNL     1      47.538   1.646   6.672  0.00  0.00    +0.000 C 
ATOM     25  N   UNL     1      47.118   0.603   5.888  0.00  0.00    +0.000 N 
ATOM     26  O   UNL     1      48.721   1.960   6.692  0.00  0.00    +0.000 OA
ATOM     27  H   UNL     1      46.177   0.245   5.812  0.00  0.00    +0.000 HD
ATOM     28  H   UNL     1      47.831   0.123   5.354  0.00  0.00    +0.000 HD
ENDBRANCH  21  24
ENDBRANCH  17  18
ENDBRANCH  16  17
ENDBRANCH  15  16
ENDBRANCH   3  15
TORSDOF 6
ENDMDL
MODEL 7
REMARK VINA RESULT:    -6.346      4.527      7.807
REMARK INTER + INTRA:          -9.672
REMARK INTER:                  -8.877
REMARK INTRA:                  -0.795
REMARK UNBOUND:                -1.100
REMARK  Name = 
REMARK  7 active torsions:
REMARK  status: ('A' for Active; 'I' for Inactive)
REMARK    1  A    between atoms: C_1  and  C_2
REMARK    2  A    between atoms: C_3  and  C_4
REMARK    3  A    between atoms: C_4  and  C_5
REMARK    4  A    between atoms: C_5  and  O_6
REMARK    5  A    between atoms: O_6  and  C_7
REMARK    6  A    between atoms: C_10  and  C_11
REMARK    7  A    between atoms: C_19  and  C_20
REMARK                            x       y       z     vdW  Elec       q    Type
REMARK                         _______ _______ _______ _____ _____    ______ ____
ROOT
ATOM      1  C   UNL     1      47.683   6.139  12.468  0.00  0.00    +0.000 C 
ATOM      2  C   UNL     1      46.713   7.273  12.229  0.00  0.00    +0.000 A 
ATOM      3  C   UNL     1      47.078   8.605  12.599  0.00  0.00    +0.000 A 
ATOM      4  C   UNL     1      46.187   9.660  12.337  0.00  0.00    +0.000 A 
ATOM      5  C   UNL     1      44.961   9.428  11.735  0.00  0.00    +0.000 A 
ATOM      6  C   UNL     1      44.586   8.129  11.410  0.00  0.00    +0.000 A 
ATOM      7  C   UNL     1      45.427   7.017  11.646  0.00  0.00    +0.000 A 
ENDROOT
BRANCH   7   8
ATOM      8  C   UNL     1      44.898   5.661  11.273  0.00  0.00    +0.000 A 
ATOM      9  C   UNL     1      44.191   4.872  12.207  0.00  0.00    +0.000 A 
ATOM     10  C   UNL     1      43.737   3.581  11.903  0.00  0.00    +0.000 A 
ATOM     11  C   UNL     1      43.937   3.057  10.632  0.00  0.00    +0.000 A 
ATOM     12  C   UNL     1      44.623   3.814   9.690  0.00  0.00    +0.000 A 
ATOM     13 CL   UNL     1      44.850   3.189   8.100  0.00  0.00    +0.000 Cl
ATOM     14  C   UNL     1      45.129   5.077  10.016  0.00  0.00    +0.000 A 
ENDBRANCH   7   8
BRANCH   3  15
ATOM     15  C   UNL     1      48.350   8.977  13.358  0.00  0.00    +0.000 C 
BRANCH  15  16
ATOM     16  C   UNL     1      48.109   8.873  14.865  0.00  0.00    +0.000 C 
BRANCH  16  17
ATOM     17  O   UNL     1      49.222   8.286  15.566  0.00  0.00    +0.000 OA
BRANCH  17  18
ATOM     18  C   UNL     1      48.828   7.114  16.192  0.00  0.00    +0.000 A 
ATOM     19  C   UNL     1      48.842   7.053  17.577  0.00  0.00    +0.000 A 
ATOM     20  C   UNL     1      48.435   5.862  18.191  0.00  0.00    +0.000 A 
ATOM     21  C   UNL     1      48.024   4.771  17.407  0.00  0.00    +0.000 A 
ATOM     22  C   UNL     1      48.058   4.938  16.038  0.00  0.00    +0.000 A 
ATOM     23  N   UNL     1      48.444   6.075  15.422  0.00  0.00    +0.000 NA
BRANCH  21  24
ATOM     24  C   UNL     1      47.586   3.505  18.042  0.00  0.00    +0.000 C 
ATOM     25  N   UNL     1      48.246   3.059  19.158  0.00  0.00    +0.000 N 
ATOM     26  O   UNL     1      46.654   2.859  17.582  0.00  0.00    +0.000 OA
ATOM     27  H   UNL     1      49.038   3.497  19.607  0.00  0.00    +0.000 HD
ATOM     28  H   UNL     1      47.925   2.185  19.552  0.00  0.00    +0.000 HD
ENDBRANCH  21  24
ENDBRANCH  17  18
ENDBRANCH  16  17
ENDBRANCH  15  16
ENDBRANCH   3  15
TORSDOF 6
ENDMDL
MODEL 8
REMARK VINA RESULT:    -6.339      3.093      4.214
REMARK INTER + INTRA:          -9.663
REMARK INTER:                  -8.556
REMARK INTRA:                  -1.107
REMARK UNBOUND:                -1.100
REMARK  Name = 
REMARK  7 active torsions:
REMARK  status: ('A' for Active; 'I' for Inactive)
REMARK    1  A    between atoms: C_1  and  C_2
REMARK    2  A    between atoms: C_3  and  C_4
REMARK    3  A    between atoms: C_4  and  C_5
REMARK    4  A    between atoms: C_5  and  O_6
REMARK    5  A    between atoms: O_6  and  C_7
REMARK    6  A    between atoms: C_10  and  C_11
REMARK    7  A    between atoms: C_19  and  C_20
REMARK                            x       y       z     vdW  Elec       q    Type
REMARK                         _______ _______ _______ _____ _____    ______ ____
ROOT
ATOM      1  C   UNL     1      42.868   7.270  11.198  0.00  0.00    +0.000 C 
ATOM      2  C   UNL     1      44.216   7.748  11.687  0.00  0.00    +0.000 A 
ATOM      3  C   UNL     1      45.063   6.852  12.411  0.00  0.00    +0.000 A 
ATOM      4  C   UNL     1      46.332   7.291  12.827  0.00  0.00    +0.000 A 
ATOM      5  C   UNL     1      46.770   8.577  12.553  0.00  0.00    +0.000 A 
ATOM      6  C   UNL     1      45.932   9.463  11.883  0.00  0.00    +0.000 A 
ATOM      7  C   UNL     1      44.642   9.095  11.437  0.00  0.00    +0.000 A 
ENDROOT
BRANCH   7   8
ATOM      8  C   UNL     1      43.825  10.149  10.746  0.00  0.00    +0.000 A 
ATOM      9  C   UNL     1      42.845  10.887  11.446  0.00  0.00    +0.000 A 
ATOM     10  C   UNL     1      42.030  11.836  10.814  0.00  0.00    +0.000 A 
ATOM     11  C   UNL     1      42.203  12.109   9.463  0.00  0.00    +0.000 A 
ATOM     12  C   UNL     1      43.166  11.404   8.750  0.00  0.00    +0.000 A 
ATOM     13 CL   UNL     1      43.414  11.756   7.082  0.00  0.00    +0.000 Cl
ATOM     14  C   UNL     1      43.936  10.414   9.371  0.00  0.00    +0.000 A 
ENDBRANCH   7   8
BRANCH   3  15
ATOM     15  C   UNL     1      44.659   5.450  12.864  0.00  0.00    +0.000 C 
BRANCH  15  16
ATOM     16  C   UNL     1      45.205   4.408  11.887  0.00  0.00    +0.000 C 
BRANCH  16  17
ATOM     17  O   UNL     1      44.322   4.174  10.774  0.00  0.00    +0.000 OA
BRANCH  17  18
ATOM     18  C   UNL     1      45.041   3.721   9.680  0.00  0.00    +0.000 A 
ATOM     19  C   UNL     1      45.585   4.645   8.802  0.00  0.00    +0.000 A 
ATOM     20  C   UNL     1      46.314   4.167   7.705  0.00  0.00    +0.000 A 
ATOM     21  C   UNL     1      46.481   2.784   7.520  0.00  0.00    +0.000 A 
ATOM     22  C   UNL     1      45.889   1.954   8.450  0.00  0.00    +0.000 A 
ATOM     23  N   UNL     1      45.184   2.389   9.515  0.00  0.00    +0.000 NA
BRANCH  21  24
ATOM     24  C   UNL     1      47.253   2.263   6.368  0.00  0.00    +0.000 C 
ATOM     25  N   UNL     1      47.319   3.010   5.220  0.00  0.00    +0.000 N 
ATOM     26  O   UNL     1      47.822   1.181   6.428  0.00  0.00    +0.000 OA
ATOM     27  H   UNL     1      46.872   3.899   5.052  0.00  0.00    +0.000 HD
ATOM     28  H   UNL     1      47.844   2.612   4.452  0.00  0.00    +0.000 HD
ENDBRANCH  21  24
ENDBRANCH  17  18
ENDBRANCH  16  17
ENDBRANCH  15  16
ENDBRANCH   3  15
TORSDOF 6
ENDMDL
