MODEL 1
REMARK VINA RESULT:    -7.095      0.000      0.000
REMARK INTER + INTRA:          -9.451
REMARK INTER:                  -8.961
REMARK INTRA:                  -0.490
REMARK UNBOUND:                -0.490
REMARK  Name = 
REMARK  5 active torsions:
REMARK  status: ('A' for Active; 'I' for Inactive)
REMARK    1  A    between atoms: N_1  and  C_2
REMARK    2  A    between atoms: C_2  and  C_3
REMARK    3  A    between atoms: N_8  and  C_9
REMARK    4  A    between atoms: C_9  and  C_10
REMARK    5  A    between atoms: C_10  and  C_11
REMARK                            x       y       z     vdW  Elec       q    Type
REMARK                         _______ _______ _______ _____ _____    ______ ____
ROOT
ATOM      1  C   UNL     1      46.088   5.952  13.047  0.00  0.00    +0.000 A 
ATOM      2  C   UNL     1      47.058   5.373  13.863  0.00  0.00    +0.000 A 
ATOM      3  C   UNL     1      47.101   3.993  13.950  0.00  0.00    +0.000 A 
ATOM      4  N   UNL     1      46.259   3.164  13.290  0.00  0.00    +0.000 NA
ATOM      5  C   UNL     1      45.313   3.721  12.511  0.00  0.00    +0.000 A 
ATOM      6  N   UNL     1      44.439   2.828  11.900  0.00  0.00    +0.000 N 
ATOM      7  C   UNL     1      45.195   5.104  12.383  0.00  0.00    +0.000 A 
ATOM      8  H   UNL     1      44.844   1.902  12.032  0.00  0.00    +0.000 HD
ENDROOT
BRANCH   1   9
ATOM      9  C   UNL     1      45.984   7.443  12.891  0.00  0.00    +0.000 C 
BRANCH   9  10
ATOM     10  N   UNL     1      44.685   7.831  12.352  0.00  0.00    +0.000 NA
ATOM     11  H   UNL     1      44.047   8.010  13.124  0.00  0.00    +0.000 HD
ATOM     12  H   UNL     1      44.294   7.043  11.836  0.00  0.00    +0.000 HD
ENDBRANCH   9  10
ENDBRANCH   1   9
BRANCH   6  13
ATOM     13  C   UNL     1      43.976   3.141  10.555  0.00  0.00    +0.000 C 
BRANCH  13  14
ATOM     14  C   UNL     1      44.292   1.995   9.586  0.00  0.00    +0.000 C 
BRANCH  14  15
ATOM     15  C   UNL     1      45.395   2.378   8.626  0.00  0.00    +0.000 A 
ATOM     16  C   UNL     1      45.582   3.716   8.247  0.00  0.00    +0.000 A 
ATOM     17  C   UNL     1      46.577   4.063   7.327  0.00  0.00    +0.000 A 
ATOM     18  C   UNL     1      47.390   3.077   6.776  0.00  0.00    +0.000 A 
ATOM     19  C   UNL     1      47.204   1.750   7.146  0.00  0.00    +0.000 A 
ATOM     20  F   UNL     1      47.981   0.800   6.610  0.00  0.00    +0.000 F 
ATOM     21  C   UNL     1      46.217   1.394   8.061  0.00  0.00    +0.000 A 
ENDBRANCH  14  15
ENDBRANCH  13  14
ENDBRANCH   6  13
TORSDOF 5
ENDMDL
MODEL 2
REMARK VINA RESULT:    -7.070      1.727      2.995
REMARK INTER + INTRA:          -9.420
REMARK INTER:                  -9.092
REMARK INTRA:                  -0.328
REMARK UNBOUND:                -0.490
REMARK  Name = 
REMARK  5 active torsions:
REMARK  status: ('A' for Active; 'I' for Inactive)
REMARK    1  A    between atoms: N_1  and  C_2
REMARK    2  A    between atoms: C_2  and  C_3
REMARK    3  A    between atoms: N_8  and  C_9
REMARK    4  A    between atoms: C_9  and  C_10
REMARK    5  A    between atoms: C_10  and  C_11
REMARK                            x       y       z     vdW  Elec       q    Type
REMARK                         _______ _______ _______ _____ _____    ______ ____
ROOT
ATOM      1  C   UNL     1      44.988   4.939  12.721  0.00  0.00    +0.000 A 
ATOM      2  C   UNL     1      43.810   5.450  13.260  0.00  0.00    +0.000 A 
ATOM      3  C   UNL     1      42.733   5.643  12.414  0.00  0.00    +0.000 A 
ATOM      4  N   UNL     1      42.748   5.365  11.089  0.00  0.00    +0.000 NA
ATOM      5  C   UNL     1      43.890   4.882  10.563  0.00  0.00    +0.000 A 
ATOM      6  N   UNL     1      43.871   4.666   9.189  0.00  0.00    +0.000 N 
ATOM      7  C   UNL     1      45.023   4.675  11.347  0.00  0.00    +0.000 A 
ATOM      8  H   UNL     1      42.896   4.745   8.905  0.00  0.00    +0.000 HD
ENDROOT
BRANCH   1   9
ATOM      9  C   UNL     1      46.198   4.691  13.576  0.00  0.00    +0.000 C 
BRANCH   9  10
ATOM     10  N   UNL     1      46.571   3.281  13.573  0.00  0.00    +0.000 NA
ATOM     11  H   UNL     1      45.735   2.717  13.709  0.00  0.00    +0.000 HD
ATOM     12  H   UNL     1      47.172   3.098  14.375  0.00  0.00    +0.000 HD
ENDBRANCH   9  10
ENDBRANCH   1   9
BRANCH   6  13
ATOM     13  C   UNL     1      44.601   3.517   8.671  0.00  0.00    +0.000 C 
BRANCH  13  14
ATOM     14  C   UNL     1      45.835   3.964   7.878  0.00  0.00    +0.000 C 
BRANCH  14  15
ATOM     15  C   UNL     1      46.438   2.812   7.108  0.00  0.00    +0.000 A 
ATOM     16  C   UNL     1      46.883   2.985   5.789  0.00  0.00    +0.000 A 
ATOM     17  C   UNL     1      47.403   1.908   5.065  0.00  0.00    +0.000 A 
ATOM     18  C   UNL     1      47.479   0.647   5.650  0.00  0.00    +0.000 A 
ATOM     19  C   UNL     1      47.035   0.471   6.955  0.00  0.00    +0.000 A 
ATOM     20  F   UNL     1      47.100  -0.743   7.516  0.00  0.00    +0.000 F 
ATOM     21  C   UNL     1      46.516   1.537   7.686  0.00  0.00    +0.000 A 
ENDBRANCH  14  15
ENDBRANCH  13  14
ENDBRANCH   6  13
TORSDOF 5
ENDMDL
MODEL 3
REMARK VINA RESULT:    -6.690      1.823      2.796
REMARK INTER + INTRA:          -8.939
REMARK INTER:                  -8.619
REMARK INTRA:                  -0.320
REMARK UNBOUND:                -0.490
REMARK  Name = 
REMARK  5 active torsions:
REMARK  status: ('A' for Active; 'I' for Inactive)
REMARK    1  A    between atoms: N_1  and  C_2
REMARK    2  A    between atoms: C_2  and  C_3
REMARK    3  A    between atoms: N_8  and  C_9
REMARK    4  A    between atoms: C_9  and  C_10
REMARK    5  A    between atoms: C_10  and  C_11
REMARK                            x       y       z     vdW  Elec       q    Type
REMARK                         _______ _______ _______ _____ _____    ______ ____
ROOT
ATOM      1  C   UNL     1      47.054   7.305  13.007  0.00  0.00    +0.000 A 
ATOM      2  C   UNL     1      46.400   8.525  13.162  0.00  0.00    +0.000 A 
ATOM      3  C   UNL     1      45.292   8.778  12.373  0.00  0.00    +0.000 A 
ATOM      4  N   UNL     1      44.800   7.914  11.455  0.00  0.00    +0.000 NA
ATOM      5  C   UNL     1      45.438   6.739  11.295  0.00  0.00    +0.000 A 
ATOM      6  N   UNL     1      44.926   5.910  10.301  0.00  0.00    +0.000 N 
ATOM      7  C   UNL     1      46.570   6.416  12.042  0.00  0.00    +0.000 A 
ATOM      8  H   UNL     1      44.028   6.312  10.035  0.00  0.00    +0.000 HD
ENDROOT
BRANCH   1   9
ATOM      9  C   UNL     1      48.257   6.951  13.835  0.00  0.00    +0.000 C 
BRANCH   9  10
ATOM     10  N   UNL     1      48.076   5.673  14.515  0.00  0.00    +0.000 NA
ATOM     11  H   UNL     1      47.269   5.198  14.117  0.00  0.00    +0.000 HD
ATOM     12  H   UNL     1      47.850   5.850  15.493  0.00  0.00    +0.000 HD
ENDBRANCH   9  10
ENDBRANCH   1   9
BRANCH   6  13
ATOM     13  C   UNL     1      44.942   4.474  10.538  0.00  0.00    +0.000 C 
BRANCH  13  14
ATOM     14  C   UNL     1      44.352   3.715   9.343  0.00  0.00    +0.000 C 
BRANCH  14  15
ATOM     15  C   UNL     1      45.435   3.039   8.534  0.00  0.00    +0.000 A 
ATOM     16  C   UNL     1      46.252   3.781   7.669  0.00  0.00    +0.000 A 
ATOM     17  C   UNL     1      47.227   3.148   6.892  0.00  0.00    +0.000 A 
ATOM     18  C   UNL     1      47.391   1.768   6.969  0.00  0.00    +0.000 A 
ATOM     19  C   UNL     1      46.579   1.029   7.821  0.00  0.00    +0.000 A 
ATOM     20  F   UNL     1      46.731  -0.300   7.890  0.00  0.00    +0.000 F 
ATOM     21  C   UNL     1      45.606   1.649   8.600  0.00  0.00    +0.000 A 
ENDBRANCH  14  15
ENDBRANCH  13  14
ENDBRANCH   6  13
TORSDOF 5
ENDMDL
MODEL 4
REMARK VINA RESULT:    -6.512      1.433      1.878
REMARK INTER + INTRA:          -8.715
REMARK INTER:                  -8.143
REMARK INTRA:                  -0.572
REMARK UNBOUND:                -0.490
REMARK  Name = 
REMARK  5 active torsions:
REMARK  status: ('A' for Active; 'I' for Inactive)
REMARK    1  A    between atoms: N_1  and  C_2
REMARK    2  A    between atoms: C_2  and  C_3
REMARK    3  A    between atoms: N_8  and  C_9
REMARK    4  A    between atoms: C_9  and  C_10
REMARK    5  A    between atoms: C_10  and  C_11
REMARK                            x       y       z     vdW  Elec       q    Type
REMARK                         _______ _______ _______ _____ _____    ______ ____
ROOT
ATOM      1  C   UNL     1      45.550   7.779  12.291  0.00  0.00    +0.000 A 
ATOM      2  C   UNL     1      46.803   7.590  12.870  0.00  0.00    +0.000 A 
ATOM      3  C   UNL     1      47.103   6.343  13.389  0.00  0.00    +0.000 A 
ATOM      4  N   UNL     1      46.255   5.288  13.370  0.00  0.00    +0.000 NA
ATOM      5  C   UNL     1      45.039   5.472  12.821  0.00  0.00    +0.000 A 
ATOM      6  N   UNL     1      44.186   4.373  12.876  0.00  0.00    +0.000 N 
ATOM      7  C   UNL     1      44.656   6.702  12.291  0.00  0.00    +0.000 A 
ATOM      8  H   UNL     1      44.763   3.583  13.161  0.00  0.00    +0.000 HD
ENDROOT
BRANCH   1   9
ATOM      9  C   UNL     1      45.153   9.100  11.696  0.00  0.00    +0.000 C 
BRANCH   9  10
ATOM     10  N   UNL     1      44.452   9.931  12.668  0.00  0.00    +0.000 NA
ATOM     11  H   UNL     1      44.176   9.354  13.459  0.00  0.00    +0.000 HD
ATOM     12  H   UNL     1      43.588  10.272  12.247  0.00  0.00    +0.000 HD
ENDBRANCH   9  10
ENDBRANCH   1   9
BRANCH   6  13
ATOM     13  C   UNL     1      43.296   4.146  11.747  0.00  0.00    +0.000 C 
BRANCH  13  14
ATOM     14  C   UNL     1      43.611   2.809  11.062  0.00  0.00    +0.000 C 
BRANCH  14  15
ATOM     15  C   UNL     1      44.532   3.003   9.880  0.00  0.00    +0.000 A 
ATOM     16  C   UNL     1      44.774   4.284   9.361  0.00  0.00    +0.000 A 
ATOM     17  C   UNL     1      45.595   4.456   8.243  0.00  0.00    +0.000 A 
ATOM     18  C   UNL     1      46.180   3.350   7.631  0.00  0.00    +0.000 A 
ATOM     19  C   UNL     1      45.938   2.080   8.140  0.00  0.00    +0.000 A 
ATOM     20  F   UNL     1      46.493   1.015   7.547  0.00  0.00    +0.000 F 
ATOM     21  C   UNL     1      45.123   1.897   9.253  0.00  0.00    +0.000 A 
ENDBRANCH  14  15
ENDBRANCH  13  14
ENDBRANCH   6  13
TORSDOF 5
ENDMDL
MODEL 5
REMARK VINA RESULT:    -6.501      3.015      6.350
REMARK INTER + INTRA:          -8.701
REMARK INTER:                  -8.209
REMARK INTRA:                  -0.492
REMARK UNBOUND:                -0.490
REMARK  Name = 
REMARK  5 active torsions:
REMARK  status: ('A' for Active; 'I' for Inactive)
REMARK    1  A    between atoms: N_1  and  C_2
REMARK    2  A    between atoms: C_2  and  C_3
REMARK    3  A    between atoms: N_8  and  C_9
REMARK    4  A    between atoms: C_9  and  C_10
REMARK    5  A    between atoms: C_10  and  C_11
REMARK                            x       y       z     vdW  Elec       q    Type
REMARK                         _______ _______ _______ _____ _____    ______ ____
ROOT
ATOM      1  C   UNL     1      46.725   1.981   7.580  0.00  0.00    +0.000 A 
ATOM      2  C   UNL     1      47.204   3.159   7.010  0.00  0.00    +0.000 A 
ATOM      3  C   UNL     1      46.594   4.350   7.359  0.00  0.00    +0.000 A 
ATOM      4  N   UNL     1      45.557   4.448   8.224  0.00  0.00    +0.000 NA
ATOM      5  C   UNL     1      45.084   3.310   8.767  0.00  0.00    +0.000 A 
ATOM      6  N   UNL     1      43.984   3.459   9.605  0.00  0.00    +0.000 N 
ATOM      7  C   UNL     1      45.635   2.069   8.454  0.00  0.00    +0.000 A 
ATOM      8  H   UNL     1      43.895   4.460   9.778  0.00  0.00    +0.000 HD
ENDROOT
BRANCH   1   9
ATOM      9  C   UNL     1      47.341   0.649   7.260  0.00  0.00    +0.000 C 
BRANCH   9  10
ATOM     10  N   UNL     1      46.577  -0.445   7.850  0.00  0.00    +0.000 NA
ATOM     11  H   UNL     1      45.758  -0.062   8.317  0.00  0.00    +0.000 HD
ATOM     12  H   UNL     1      47.140  -0.884   8.577  0.00  0.00    +0.000 HD
ENDBRANCH   9  10
ENDBRANCH   1   9
BRANCH   6  13
ATOM     13  C   UNL     1      43.895   2.594  10.773  0.00  0.00    +0.000 C 
BRANCH  13  14
ATOM     14  C   UNL     1      43.475   3.391  12.014  0.00  0.00    +0.000 C 
BRANCH  14  15
ATOM     15  C   UNL     1      44.563   4.348  12.444  0.00  0.00    +0.000 A 
ATOM     16  C   UNL     1      45.804   3.870  12.891  0.00  0.00    +0.000 A 
ATOM     17  C   UNL     1      46.795   4.756  13.326  0.00  0.00    +0.000 A 
ATOM     18  C   UNL     1      46.553   6.127  13.322  0.00  0.00    +0.000 A 
ATOM     19  C   UNL     1      45.323   6.604  12.885  0.00  0.00    +0.000 A 
ATOM     20  F   UNL     1      45.088   7.922  12.888  0.00  0.00    +0.000 F 
ATOM     21  C   UNL     1      44.330   5.731  12.448  0.00  0.00    +0.000 A 
ENDBRANCH  14  15
ENDBRANCH  13  14
ENDBRANCH   6  13
TORSDOF 5
ENDMDL
MODEL 6
REMARK VINA RESULT:    -6.248      2.176      2.647
REMARK INTER + INTRA:          -8.381
REMARK INTER:                  -8.076
REMARK INTRA:                  -0.304
REMARK UNBOUND:                -0.490
REMARK  Name = 
REMARK  5 active torsions:
REMARK  status: ('A' for Active; 'I' for Inactive)
REMARK    1  A    between atoms: N_1  and  C_2
REMARK    2  A    between atoms: C_2  and  C_3
REMARK    3  A    between atoms: N_8  and  C_9
REMARK    4  A    between atoms: C_9  and  C_10
REMARK    5  A    between atoms: C_10  and  C_11
REMARK                            x       y       z     vdW  Elec       q    Type
REMARK                         _______ _______ _______ _____ _____    ______ ____
ROOT
ATOM      1  C   UNL     1      48.175   7.000  12.454  0.00  0.00    +0.000 A 
ATOM      2  C   UNL     1      48.086   6.410  13.712  0.00  0.00    +0.000 A 
ATOM      3  C   UNL     1      47.077   5.490  13.934  0.00  0.00    +0.000 A 
ATOM      4  N   UNL     1      46.166   5.122  13.002  0.00  0.00    +0.000 NA
ATOM      5  C   UNL     1      46.243   5.700  11.788  0.00  0.00    +0.000 A 
ATOM      6  N   UNL     1      45.251   5.330  10.885  0.00  0.00    +0.000 N 
ATOM      7  C   UNL     1      47.221   6.648  11.492  0.00  0.00    +0.000 A 
ATOM      8  H   UNL     1      44.780   4.526  11.299  0.00  0.00    +0.000 HD
ENDROOT
BRANCH   1   9
ATOM      9  C   UNL     1      49.248   8.000  12.131  0.00  0.00    +0.000 C 
BRANCH   9  10
ATOM     10  N   UNL     1      50.499   7.674  12.807  0.00  0.00    +0.000 NA
ATOM     11  H   UNL     1      50.697   8.392  13.501  0.00  0.00    +0.000 HD
ATOM     12  H   UNL     1      51.259   7.714  12.130  0.00  0.00    +0.000 HD
ENDBRANCH   9  10
ENDBRANCH   1   9
BRANCH   6  13
ATOM     13  C   UNL     1      45.620   5.206   9.482  0.00  0.00    +0.000 C 
BRANCH  13  14
ATOM     14  C   UNL     1      44.738   4.170   8.773  0.00  0.00    +0.000 C 
BRANCH  14  15
ATOM     15  C   UNL     1      45.577   3.143   8.048  0.00  0.00    +0.000 A 
ATOM     16  C   UNL     1      45.748   1.855   8.576  0.00  0.00    +0.000 A 
ATOM     17  C   UNL     1      46.557   0.919   7.923  0.00  0.00    +0.000 A 
ATOM     18  C   UNL     1      47.205   1.264   6.740  0.00  0.00    +0.000 A 
ATOM     19  C   UNL     1      47.041   2.541   6.217  0.00  0.00    +0.000 A 
ATOM     20  F   UNL     1      47.671   2.875   5.084  0.00  0.00    +0.000 F 
ATOM     21  C   UNL     1      46.238   3.480   6.858  0.00  0.00    +0.000 A 
ENDBRANCH  14  15
ENDBRANCH  13  14
ENDBRANCH   6  13
TORSDOF 5
ENDMDL
MODEL 7
REMARK VINA RESULT:    -5.984      4.076      7.507
REMARK INTER + INTRA:          -8.048
REMARK INTER:                  -7.754
REMARK INTRA:                  -0.294
REMARK UNBOUND:                -0.490
REMARK  Name = 
REMARK  5 active torsions:
REMARK  status: ('A' for Active; 'I' for Inactive)
REMARK    1  A    between atoms: N_1  and  C_2
REMARK    2  A    between atoms: C_2  and  C_3
REMARK    3  A    between atoms: N_8  and  C_9
REMARK    4  A    between atoms: C_9  and  C_10
REMARK    5  A    between atoms: C_10  and  C_11
REMARK                            x       y       z     vdW  Elec       q    Type
REMARK                         _______ _______ _______ _____ _____    ______ ____
ROOT
ATOM      1  C   UNL     1      44.547   4.265  11.777  0.00  0.00    +0.000 A 
ATOM      2  C   UNL     1      44.932   5.218  10.838  0.00  0.00    +0.000 A 
ATOM      3  C   UNL     1      45.933   6.109  11.182  0.00  0.00    +0.000 A 
ATOM      4  N   UNL     1      46.567   6.114  12.378  0.00  0.00    +0.000 NA
ATOM      5  C   UNL     1      46.188   5.200  13.292  0.00  0.00    +0.000 A 
ATOM      6  N   UNL     1      46.832   5.284  14.523  0.00  0.00    +0.000 N 
ATOM      7  C   UNL     1      45.177   4.279  13.026  0.00  0.00    +0.000 A 
ATOM      8  H   UNL     1      47.614   5.923  14.389  0.00  0.00    +0.000 HD
ENDROOT
BRANCH   1   9
ATOM      9  C   UNL     1      43.476   3.255  11.475  0.00  0.00    +0.000 C 
BRANCH   9  10
ATOM     10  N   UNL     1      43.496   2.156  12.433  0.00  0.00    +0.000 NA
ATOM     11  H   UNL     1      44.221   2.333  13.126  0.00  0.00    +0.000 HD
ATOM     12  H   UNL     1      43.769   1.302  11.948  0.00  0.00    +0.000 HD
ENDBRANCH   9  10
ENDBRANCH   1   9
BRANCH   6  13
ATOM     13  C   UNL     1      47.129   4.041  15.220  0.00  0.00    +0.000 C 
BRANCH  13  14
ATOM     14  C   UNL     1      47.371   4.295  16.714  0.00  0.00    +0.000 C 
BRANCH  14  15
ATOM     15  C   UNL     1      48.794   3.966  17.102  0.00  0.00    +0.000 A 
ATOM     16  C   UNL     1      49.707   4.985  17.411  0.00  0.00    +0.000 A 
ATOM     17  C   UNL     1      51.034   4.680  17.731  0.00  0.00    +0.000 A 
ATOM     18  C   UNL     1      51.461   3.354  17.741  0.00  0.00    +0.000 A 
ATOM     19  C   UNL     1      50.559   2.343  17.430  0.00  0.00    +0.000 A 
ATOM     20  F   UNL     1      50.971   1.069  17.432  0.00  0.00    +0.000 F 
ATOM     21  C   UNL     1      49.236   2.635  17.112  0.00  0.00    +0.000 A 
ENDBRANCH  14  15
ENDBRANCH  13  14
ENDBRANCH   6  13
TORSDOF 5
ENDMDL
MODEL 8
REMARK VINA RESULT:    -5.806      4.173      7.344
REMARK INTER + INTRA:          -7.823
REMARK INTER:                  -7.507
REMARK INTRA:                  -0.316
REMARK UNBOUND:                -0.490
REMARK  Name = 
REMARK  5 active torsions:
REMARK  status: ('A' for Active; 'I' for Inactive)
REMARK    1  A    between atoms: N_1  and  C_2
REMARK    2  A    between atoms: C_2  and  C_3
REMARK    3  A    between atoms: N_8  and  C_9
REMARK    4  A    between atoms: C_9  and  C_10
REMARK    5  A    between atoms: C_10  and  C_11
REMARK                            x       y       z     vdW  Elec       q    Type
REMARK                         _______ _______ _______ _____ _____    ______ ____
ROOT
ATOM      1  C   UNL     1      46.063   6.175  12.361  0.00  0.00    +0.000 A 
ATOM      2  C   UNL     1      45.236   5.415  11.538  0.00  0.00    +0.000 A 
ATOM      3  C   UNL     1      45.068   4.075  11.838  0.00  0.00    +0.000 A 
ATOM      4  N   UNL     1      45.658   3.451  12.885  0.00  0.00    +0.000 NA
ATOM      5  C   UNL     1      46.467   4.181  13.675  0.00  0.00    +0.000 A 
ATOM      6  N   UNL     1      47.091   3.481  14.702  0.00  0.00    +0.000 N 
ATOM      7  C   UNL     1      46.699   5.533  13.430  0.00  0.00    +0.000 A 
ATOM      8  H   UNL     1      46.629   2.573  14.745  0.00  0.00    +0.000 HD
ENDROOT
BRANCH   1   9
ATOM      9  C   UNL     1      46.288   7.639  12.109  0.00  0.00    +0.000 C 
BRANCH   9  10
ATOM     10  N   UNL     1      45.927   8.441  13.273  0.00  0.00    +0.000 NA
ATOM     11  H   UNL     1      46.232   7.958  14.115  0.00  0.00    +0.000 HD
ATOM     12  H   UNL     1      44.910   8.498  13.330  0.00  0.00    +0.000 HD
ENDBRANCH   9  10
ENDBRANCH   1   9
BRANCH   6  13
ATOM     13  C   UNL     1      47.285   4.165  15.973  0.00  0.00    +0.000 C 
BRANCH  13  14
ATOM     14  C   UNL     1      47.606   3.165  17.090  0.00  0.00    +0.000 C 
BRANCH  14  15
ATOM     15  C   UNL     1      49.090   3.112  17.368  0.00  0.00    +0.000 A 
ATOM     16  C   UNL     1      49.770   4.238  17.854  0.00  0.00    +0.000 A 
ATOM     17  C   UNL     1      51.151   4.199  18.071  0.00  0.00    +0.000 A 
ATOM     18  C   UNL     1      51.866   3.035  17.801  0.00  0.00    +0.000 A 
ATOM     19  C   UNL     1      51.196   1.918  17.315  0.00  0.00    +0.000 A 
ATOM     20  F   UNL     1      51.883   0.801  17.048  0.00  0.00    +0.000 F 
ATOM     21  C   UNL     1      49.821   1.946  17.096  0.00  0.00    +0.000 A 
ENDBRANCH  14  15
ENDBRANCH  13  14
ENDBRANCH   6  13
TORSDOF 5
ENDMDL
MODEL 9
REMARK VINA RESULT:    -5.784      4.151      6.167
REMARK INTER + INTRA:          -7.795
REMARK INTER:                  -7.527
REMARK INTRA:                  -0.268
REMARK UNBOUND:                -0.490
REMARK  Name = 
REMARK  5 active torsions:
REMARK  status: ('A' for Active; 'I' for Inactive)
REMARK    1  A    between atoms: N_1  and  C_2
REMARK    2  A    between atoms: C_2  and  C_3
REMARK    3  A    between atoms: N_8  and  C_9
REMARK    4  A    between atoms: C_9  and  C_10
REMARK    5  A    between atoms: C_10  and  C_11
REMARK                            x       y       z     vdW  Elec       q    Type
REMARK                         _______ _______ _______ _____ _____    ______ ____
ROOT
ATOM      1  C   UNL     1      49.085   3.705  18.319  0.00  0.00    +0.000 A 
ATOM      2  C   UNL     1      50.059   2.727  18.134  0.00  0.00    +0.000 A 
ATOM      3  C   UNL     1      50.038   1.997  16.958  0.00  0.00    +0.000 A 
ATOM      4  N   UNL     1      49.129   2.174  15.971  0.00  0.00    +0.000 NA
ATOM      5  C   UNL     1      48.180   3.111  16.154  0.00  0.00    +0.000 A 
ATOM      6  N   UNL     1      47.237   3.214  15.135  0.00  0.00    +0.000 N 
ATOM      7  C   UNL     1      48.124   3.876  17.317  0.00  0.00    +0.000 A 
ATOM      8  H   UNL     1      47.602   2.665  14.358  0.00  0.00    +0.000 HD
ENDROOT
BRANCH   1   9
ATOM      9  C   UNL     1      49.047   4.547  19.563  0.00  0.00    +0.000 C 
BRANCH   9  10
ATOM     10  N   UNL     1      48.480   3.810  20.687  0.00  0.00    +0.000 NA
ATOM     11  H   UNL     1      48.810   2.847  20.651  0.00  0.00    +0.000 HD
ATOM     12  H   UNL     1      47.468   3.769  20.576  0.00  0.00    +0.000 HD
ENDBRANCH   9  10
ENDBRANCH   1   9
BRANCH   6  13
ATOM     13  C   UNL     1      46.734   4.540  14.805  0.00  0.00    +0.000 C 
BRANCH  13  14
ATOM     14  C   UNL     1      46.823   4.800  13.296  0.00  0.00    +0.000 C 
BRANCH  14  15
ATOM     15  C   UNL     1      45.474   4.645  12.633  0.00  0.00    +0.000 A 
ATOM     16  C   UNL     1      44.945   3.373  12.370  0.00  0.00    +0.000 A 
ATOM     17  C   UNL     1      43.715   3.232  11.721  0.00  0.00    +0.000 A 
ATOM     18  C   UNL     1      43.003   4.361  11.325  0.00  0.00    +0.000 A 
ATOM     19  C   UNL     1      43.526   5.623  11.580  0.00  0.00    +0.000 A 
ATOM     20  F   UNL     1      42.846   6.710  11.193  0.00  0.00    +0.000 F 
ATOM     21  C   UNL     1      44.750   5.775  12.227  0.00  0.00    +0.000 A 
ENDBRANCH  14  15
ENDBRANCH  13  14
ENDBRANCH   6  13
TORSDOF 5
ENDMDL
