MODEL 1
REMARK VINA RESULT:    -8.052      0.000      0.000
REMARK INTER + INTRA:         -12.210
REMARK INTER:                 -11.348
REMARK INTRA:                  -0.862
REMARK UNBOUND:                -0.862
REMARK  Name = 
REMARK  9 active torsions:
REMARK  status: ('A' for Active; 'I' for Inactive)
REMARK    1  A    between atoms: C_1  and  C_2
REMARK    2  A    between atoms: C_5  and  C_6
REMARK    3  A    between atoms: N_8  and  C_9
REMARK    4  A    between atoms: C_9  and  C_10
REMARK    5  A    between atoms: C_13  and  C_14
REMARK    6  A    between atoms: C_14  and  N_15
REMARK    7  A    between atoms: N_15  and  C_16
REMARK    8  A    between atoms: C_16  and  C_17
REMARK    9  A    between atoms: C_29  and  C_30
REMARK                            x       y       z     vdW  Elec       q    Type
REMARK                         _______ _______ _______ _____ _____    ______ ____
ROOT
ATOM      1  C   UNL     1      47.786   6.840  13.560  0.00  0.00    +0.000 C 
ENDROOT
BRANCH   1   2
ATOM      2  C   UNL     1      46.719   6.156  12.744  0.00  0.00    +0.000 A 
ATOM      3  C   UNL     1      46.544   6.476  11.390  0.00  0.00    +0.000 A 
ATOM      4  C   UNL     1      45.548   5.851  10.631  0.00  0.00    +0.000 A 
ATOM      5  C   UNL     1      44.702   4.894  11.210  0.00  0.00    +0.000 A 
ATOM      6  C   UNL     1      44.867   4.586  12.565  0.00  0.00    +0.000 A 
ATOM      7  C   UNL     1      45.862   5.213  13.327  0.00  0.00    +0.000 A 
BRANCH   5   8
ATOM      8  C   UNL     1      43.628   4.210  10.388  0.00  0.00    +0.000 C 
BRANCH   8   9
ATOM      9  N   UNL     1      44.180   3.671   9.148  0.00  0.00    +0.000 NA
ATOM     10  H   UNL     1      44.703   4.406   8.673  0.00  0.00    +0.000 HD
BRANCH   9  11
ATOM     11  C   UNL     1      45.069   2.537   9.399  0.00  0.00    +0.000 C 
BRANCH  11  12
ATOM     12  C   UNL     1      45.914   2.244   8.189  0.00  0.00    +0.000 A 
ATOM     13  C   UNL     1      46.224   3.239   7.256  0.00  0.00    +0.000 A 
ATOM     14  C   UNL     1      47.025   2.936   6.160  0.00  0.00    +0.000 A 
ATOM     15  C   UNL     1      47.486   1.637   6.025  0.00  0.00    +0.000 A 
ATOM     16  N   UNL     1      47.199   0.645   6.895  0.00  0.00    +0.000 NA
ATOM     17  C   UNL     1      46.421   0.971   7.952  0.00  0.00    +0.000 A 
ENDBRANCH  11  12
ENDBRANCH   9  11
ENDBRANCH   8   9
ENDBRANCH   5   8
ENDBRANCH   1   2
BRANCH   1  20
ATOM     18  C   UNL     1      48.929   6.341  15.681  0.00  0.00    +0.000 C 
ATOM     19  O   UNL     1      50.017   6.693  15.235  0.00  0.00    +0.000 OA
ATOM     20  N   UNL     1      47.777   6.371  14.928  0.00  0.00    +0.000 N 
ATOM     21  H   UNL     1      46.887   6.326  15.402  0.00  0.00    +0.000 HD
BRANCH  18  26
ATOM     22  C   UNL     1      47.161   9.952  19.803  0.00  0.00    +0.000 C 
ATOM     23  C   UNL     1      47.558   8.513  19.641  0.00  0.00    +0.000 A 
ATOM     24  C   UNL     1      47.925   8.036  18.376  0.00  0.00    +0.000 A 
ATOM     25  C   UNL     1      48.327   6.692  18.218  0.00  0.00    +0.000 A 
ATOM     26  C   UNL     1      48.761   5.910  17.072  0.00  0.00    +0.000 A 
ATOM     27  C   UNL     1      48.987   4.591  17.439  0.00  0.00    +0.000 A 
ATOM     28  S   UNL     1      48.744   4.301  19.101  0.00  0.00    +0.000 S 
ATOM     29  C   UNL     1      48.290   5.918  19.374  0.00  0.00    +0.000 A 
ATOM     30  N   UNL     1      47.936   6.323  20.611  0.00  0.00    +0.000 NA
ATOM     31  C   UNL     1      47.577   7.620  20.716  0.00  0.00    +0.000 A 
ATOM     32  C   UNL     1      47.169   8.071  22.094  0.00  0.00    +0.000 C 
ENDBRANCH  18  26
ENDBRANCH   1  20
TORSDOF 7
ENDMDL
MODEL 2
REMARK VINA RESULT:    -7.762      1.684      2.581
REMARK INTER + INTRA:         -11.800
REMARK INTER:                 -10.636
REMARK INTRA:                  -1.164
REMARK UNBOUND:                -0.862
REMARK  Name = 
REMARK  9 active torsions:
REMARK  status: ('A' for Active; 'I' for Inactive)
REMARK    1  A    between atoms: C_1  and  C_2
REMARK    2  A    between atoms: C_5  and  C_6
REMARK    3  A    between atoms: N_8  and  C_9
REMARK    4  A    between atoms: C_9  and  C_10
REMARK    5  A    between atoms: C_13  and  C_14
REMARK    6  A    between atoms: C_14  and  N_15
REMARK    7  A    between atoms: N_15  and  C_16
REMARK    8  A    between atoms: C_16  and  C_17
REMARK    9  A    between atoms: C_29  and  C_30
REMARK                            x       y       z     vdW  Elec       q    Type
REMARK                         _______ _______ _______ _____ _____    ______ ____
ROOT
ATOM      1  C   UNL     1      47.563   7.507  12.713  0.00  0.00    +0.000 C 
ENDROOT
BRANCH   1   2
ATOM      2  C   UNL     1      46.608   6.422  12.283  0.00  0.00    +0.000 A 
ATOM      3  C   UNL     1      46.286   5.372  13.153  0.00  0.00    +0.000 A 
ATOM      4  C   UNL     1      45.408   4.357  12.754  0.00  0.00    +0.000 A 
ATOM      5  C   UNL     1      44.835   4.369  11.474  0.00  0.00    +0.000 A 
ATOM      6  C   UNL     1      45.169   5.410  10.600  0.00  0.00    +0.000 A 
ATOM      7  C   UNL     1      46.050   6.425  10.998  0.00  0.00    +0.000 A 
BRANCH   5   8
ATOM      8  C   UNL     1      43.878   3.277  11.043  0.00  0.00    +0.000 C 
BRANCH   8   9
ATOM      9  N   UNL     1      43.958   3.048   9.602  0.00  0.00    +0.000 NA
ATOM     10  H   UNL     1      44.426   3.842   9.168  0.00  0.00    +0.000 HD
BRANCH   9  11
ATOM     11  C   UNL     1      44.700   1.827   9.289  0.00  0.00    +0.000 C 
BRANCH  11  12
ATOM     12  C   UNL     1      45.800   2.110   8.303  0.00  0.00    +0.000 A 
ATOM     13  C   UNL     1      45.978   3.383   7.751  0.00  0.00    +0.000 A 
ATOM     14  C   UNL     1      47.019   3.613   6.858  0.00  0.00    +0.000 A 
ATOM     15  C   UNL     1      47.850   2.553   6.535  0.00  0.00    +0.000 A 
ATOM     16  N   UNL     1      47.705   1.307   7.033  0.00  0.00    +0.000 NA
ATOM     17  C   UNL     1      46.686   1.115   7.902  0.00  0.00    +0.000 A 
ENDBRANCH  11  12
ENDBRANCH   9  11
ENDBRANCH   8   9
ENDBRANCH   5   8
ENDBRANCH   1   2
BRANCH   1  20
ATOM     18  C   UNL     1      48.949   7.785  14.727  0.00  0.00    +0.000 C 
ATOM     19  O   UNL     1      49.955   8.016  14.063  0.00  0.00    +0.000 OA
ATOM     20  N   UNL     1      47.729   7.516  14.150  0.00  0.00    +0.000 N 
ATOM     21  H   UNL     1      46.897   7.591  14.717  0.00  0.00    +0.000 HD
BRANCH  18  26
ATOM     22  C   UNL     1      48.355   3.041  17.936  0.00  0.00    +0.000 C 
ATOM     23  C   UNL     1      48.551   4.519  18.112  0.00  0.00    +0.000 A 
ATOM     24  C   UNL     1      48.663   5.340  16.982  0.00  0.00    +0.000 A 
ATOM     25  C   UNL     1      48.820   6.735  17.135  0.00  0.00    +0.000 A 
ATOM     26  C   UNL     1      48.957   7.831  16.192  0.00  0.00    +0.000 A 
ATOM     27  C   UNL     1      49.151   9.031  16.863  0.00  0.00    +0.000 A 
ATOM     28  S   UNL     1      49.117   8.869  18.560  0.00  0.00    +0.000 S 
ATOM     29  C   UNL     1      48.885   7.187  18.451  0.00  0.00    +0.000 A 
ATOM     30  N   UNL     1      48.792   6.442  19.570  0.00  0.00    +0.000 NA
ATOM     31  C   UNL     1      48.625   5.116  19.373  0.00  0.00    +0.000 A 
ATOM     32  C   UNL     1      48.534   4.280  20.623  0.00  0.00    +0.000 C 
ENDBRANCH  18  26
ENDBRANCH   1  20
TORSDOF 7
ENDMDL
MODEL 3
REMARK VINA RESULT:    -7.599      2.360      3.053
REMARK INTER + INTRA:         -11.571
REMARK INTER:                 -10.682
REMARK INTRA:                  -0.890
REMARK UNBOUND:                -0.862
REMARK  Name = 
REMARK  9 active torsions:
REMARK  status: ('A' for Active; 'I' for Inactive)
REMARK    1  A    between atoms: C_1  and  C_2
REMARK    2  A    between atoms: C_5  and  C_6
REMARK    3  A    between atoms: N_8  and  C_9
REMARK    4  A    between atoms: C_9  and  C_10
REMARK    5  A    between atoms: C_13  and  C_14
REMARK    6  A    between atoms: C_14  and  N_15
REMARK    7  A    between atoms: N_15  and  C_16
REMARK    8  A    between atoms: C_16  and  C_17
REMARK    9  A    between atoms: C_29  and  C_30
REMARK                            x       y       z     vdW  Elec       q    Type
REMARK                         _______ _______ _______ _____ _____    ______ ____
ROOT
ATOM      1  C   UNL     1      47.679   5.321  14.539  0.00  0.00    +0.000 C 
ENDROOT
BRANCH   1   2
ATOM      2  C   UNL     1      46.613   5.119  13.492  0.00  0.00    +0.000 A 
ATOM      3  C   UNL     1      46.147   3.832  13.189  0.00  0.00    +0.000 A 
ATOM      4  C   UNL     1      45.165   3.638  12.211  0.00  0.00    +0.000 A 
ATOM      5  C   UNL     1      44.628   4.729  11.511  0.00  0.00    +0.000 A 
ATOM      6  C   UNL     1      45.103   6.012  11.803  0.00  0.00    +0.000 A 
ATOM      7  C   UNL     1      46.089   6.207  12.780  0.00  0.00    +0.000 A 
BRANCH   5   8
ATOM      8  C   UNL     1      43.559   4.524  10.458  0.00  0.00    +0.000 C 
BRANCH   8   9
ATOM      9  N   UNL     1      43.974   3.524   9.477  0.00  0.00    +0.000 NA
ATOM     10  H   UNL     1      43.144   3.137   9.029  0.00  0.00    +0.000 HD
BRANCH   9  11
ATOM     11  C   UNL     1      44.845   4.099   8.453  0.00  0.00    +0.000 C 
BRANCH  11  12
ATOM     12  C   UNL     1      45.790   3.061   7.913  0.00  0.00    +0.000 A 
ATOM     13  C   UNL     1      46.694   3.358   6.887  0.00  0.00    +0.000 A 
ATOM     14  C   UNL     1      47.566   2.379   6.426  0.00  0.00    +0.000 A 
ATOM     15  C   UNL     1      47.502   1.121   7.003  0.00  0.00    +0.000 A 
ATOM     16  N   UNL     1      46.636   0.789   7.984  0.00  0.00    +0.000 NA
ATOM     17  C   UNL     1      45.803   1.764   8.414  0.00  0.00    +0.000 A 
ENDBRANCH  11  12
ENDBRANCH   9  11
ENDBRANCH   8   9
ENDBRANCH   5   8
ENDBRANCH   1   2
BRANCH   1  20
ATOM     18  C   UNL     1      49.039   7.215  15.323  0.00  0.00    +0.000 C 
ATOM     19  O   UNL     1      50.017   6.499  15.512  0.00  0.00    +0.000 OA
ATOM     20  N   UNL     1      47.843   6.722  14.853  0.00  0.00    +0.000 N 
ATOM     21  H   UNL     1      47.169   7.370  14.472  0.00  0.00    +0.000 HD
BRANCH  18  26
ATOM     22  C   UNL     1      46.796   9.699  20.008  0.00  0.00    +0.000 C 
ATOM     23  C   UNL     1      47.522  10.083  18.752  0.00  0.00    +0.000 A 
ATOM     24  C   UNL     1      47.911   9.086  17.847  0.00  0.00    +0.000 A 
ATOM     25  C   UNL     1      48.571   9.438  16.649  0.00  0.00    +0.000 A 
ATOM     26  C   UNL     1      49.085   8.665  15.532  0.00  0.00    +0.000 A 
ATOM     27  C   UNL     1      49.716   9.494  14.614  0.00  0.00    +0.000 A 
ATOM     28  S   UNL     1      49.651  11.144  15.039  0.00  0.00    +0.000 S 
ATOM     29  C   UNL     1      48.816  10.798  16.481  0.00  0.00    +0.000 A 
ATOM     30  N   UNL     1      48.474  11.795  17.321  0.00  0.00    +0.000 NA
ATOM     31  C   UNL     1      47.830  11.411  18.445  0.00  0.00    +0.000 A 
ATOM     32  C   UNL     1      47.457  12.522  19.391  0.00  0.00    +0.000 C 
ENDBRANCH  18  26
ENDBRANCH   1  20
TORSDOF 7
ENDMDL
MODEL 4
REMARK VINA RESULT:    -7.580      1.928      2.616
REMARK INTER + INTRA:         -11.545
REMARK INTER:                 -10.637
REMARK INTRA:                  -0.908
REMARK UNBOUND:                -0.862
REMARK  Name = 
REMARK  9 active torsions:
REMARK  status: ('A' for Active; 'I' for Inactive)
REMARK    1  A    between atoms: C_1  and  C_2
REMARK    2  A    between atoms: C_5  and  C_6
REMARK    3  A    between atoms: N_8  and  C_9
REMARK    4  A    between atoms: C_9  and  C_10
REMARK    5  A    between atoms: C_13  and  C_14
REMARK    6  A    between atoms: C_14  and  N_15
REMARK    7  A    between atoms: N_15  and  C_16
REMARK    8  A    between atoms: C_16  and  C_17
REMARK    9  A    between atoms: C_29  and  C_30
REMARK                            x       y       z     vdW  Elec       q    Type
REMARK                         _______ _______ _______ _____ _____    ______ ____
ROOT
ATOM      1  C   UNL     1      47.382   3.896  15.252  0.00  0.00    +0.000 C 
ENDROOT
BRANCH   1   2
ATOM      2  C   UNL     1      46.720   4.379  13.987  0.00  0.00    +0.000 A 
ATOM      3  C   UNL     1      45.939   3.507  13.215  0.00  0.00    +0.000 A 
ATOM      4  C   UNL     1      45.331   3.947  12.034  0.00  0.00    +0.000 A 
ATOM      5  C   UNL     1      45.491   5.270  11.597  0.00  0.00    +0.000 A 
ATOM      6  C   UNL     1      46.282   6.137  12.360  0.00  0.00    +0.000 A 
ATOM      7  C   UNL     1      46.894   5.696  13.542  0.00  0.00    +0.000 A 
BRANCH   5   8
ATOM      8  C   UNL     1      44.827   5.753  10.324  0.00  0.00    +0.000 C 
BRANCH   8   9
ATOM      9  N   UNL     1      45.513   5.231   9.145  0.00  0.00    +0.000 NA
ATOM     10  H   UNL     1      46.435   4.894   9.421  0.00  0.00    +0.000 HD
BRANCH   9  11
ATOM     11  C   UNL     1      44.769   4.135   8.526  0.00  0.00    +0.000 C 
BRANCH  11  12
ATOM     12  C   UNL     1      45.708   3.096   7.976  0.00  0.00    +0.000 A 
ATOM     13  C   UNL     1      46.601   3.393   6.940  0.00  0.00    +0.000 A 
ATOM     14  C   UNL     1      47.468   2.413   6.471  0.00  0.00    +0.000 A 
ATOM     15  C   UNL     1      47.411   1.156   7.049  0.00  0.00    +0.000 A 
ATOM     16  N   UNL     1      46.556   0.825   8.040  0.00  0.00    +0.000 NA
ATOM     17  C   UNL     1      45.727   1.800   8.478  0.00  0.00    +0.000 A 
ENDBRANCH  11  12
ENDBRANCH   9  11
ENDBRANCH   8   9
ENDBRANCH   5   8
ENDBRANCH   1   2
BRANCH   1  20
ATOM     18  C   UNL     1      48.463   5.346  16.920  0.00  0.00    +0.000 C 
ATOM     19  O   UNL     1      49.577   4.909  16.652  0.00  0.00    +0.000 OA
ATOM     20  N   UNL     1      47.323   4.902  16.289  0.00  0.00    +0.000 N 
ATOM     21  H   UNL     1      46.485   5.462  16.351  0.00  0.00    +0.000 HD
BRANCH  18  26
ATOM     22  C   UNL     1      49.067  10.901  15.530  0.00  0.00    +0.000 C 
ATOM     23  C   UNL     1      48.718  10.056  16.720  0.00  0.00    +0.000 A 
ATOM     24  C   UNL     1      48.678   8.662  16.588  0.00  0.00    +0.000 A 
ATOM     25  C   UNL     1      48.377   7.855  17.708  0.00  0.00    +0.000 A 
ATOM     26  C   UNL     1      48.264   6.419  17.899  0.00  0.00    +0.000 A 
ATOM     27  C   UNL     1      47.878   6.129  19.200  0.00  0.00    +0.000 A 
ATOM     28  S   UNL     1      47.709   7.515  20.179  0.00  0.00    +0.000 S 
ATOM     29  C   UNL     1      48.104   8.546  18.885  0.00  0.00    +0.000 A 
ATOM     30  N   UNL     1      48.120   9.882  19.064  0.00  0.00    +0.000 NA
ATOM     31  C   UNL     1      48.430  10.611  17.969  0.00  0.00    +0.000 A 
ATOM     32  C   UNL     1      48.436  12.104  18.165  0.00  0.00    +0.000 C 
ENDBRANCH  18  26
ENDBRANCH   1  20
TORSDOF 7
ENDMDL
MODEL 5
REMARK VINA RESULT:    -7.408      4.296      6.884
REMARK INTER + INTRA:         -11.302
REMARK INTER:                 -10.441
REMARK INTRA:                  -0.861
REMARK UNBOUND:                -0.862
REMARK  Name = 
REMARK  9 active torsions:
REMARK  status: ('A' for Active; 'I' for Inactive)
REMARK    1  A    between atoms: C_1  and  C_2
REMARK    2  A    between atoms: C_5  and  C_6
REMARK    3  A    between atoms: N_8  and  C_9
REMARK    4  A    between atoms: C_9  and  C_10
REMARK    5  A    between atoms: C_13  and  C_14
REMARK    6  A    between atoms: C_14  and  N_15
REMARK    7  A    between atoms: N_15  and  C_16
REMARK    8  A    between atoms: C_16  and  C_17
REMARK    9  A    between atoms: C_29  and  C_30
REMARK                            x       y       z     vdW  Elec       q    Type
REMARK                         _______ _______ _______ _____ _____    ______ ____
ROOT
ATOM      1  C   UNL     1      48.198   6.449  13.572  0.00  0.00    +0.000 C 
ENDROOT
BRANCH   1   2
ATOM      2  C   UNL     1      46.984   5.908  12.859  0.00  0.00    +0.000 A 
ATOM      3  C   UNL     1      46.405   4.696  13.259  0.00  0.00    +0.000 A 
ATOM      4  C   UNL     1      45.285   4.185  12.593  0.00  0.00    +0.000 A 
ATOM      5  C   UNL     1      44.720   4.875  11.510  0.00  0.00    +0.000 A 
ATOM      6  C   UNL     1      45.308   6.077  11.101  0.00  0.00    +0.000 A 
ATOM      7  C   UNL     1      46.431   6.588  11.766  0.00  0.00    +0.000 A 
BRANCH   5   8
ATOM      8  C   UNL     1      43.503   4.328  10.793  0.00  0.00    +0.000 C 
BRANCH   8   9
ATOM      9  N   UNL     1      43.878   3.286   9.842  0.00  0.00    +0.000 NA
ATOM     10  H   UNL     1      43.051   2.738   9.609  0.00  0.00    +0.000 HD
BRANCH   9  11
ATOM     11  C   UNL     1      44.440   3.849   8.615  0.00  0.00    +0.000 C 
BRANCH  11  12
ATOM     12  C   UNL     1      45.533   2.967   8.075  0.00  0.00    +0.000 A 
ATOM     13  C   UNL     1      46.497   3.458   7.188  0.00  0.00    +0.000 A 
ATOM     14  C   UNL     1      47.504   2.618   6.725  0.00  0.00    +0.000 A 
ATOM     15  C   UNL     1      47.511   1.303   7.159  0.00  0.00    +0.000 A 
ATOM     16  N   UNL     1      46.592   0.786   8.002  0.00  0.00    +0.000 NA
ATOM     17  C   UNL     1      45.627   1.628   8.438  0.00  0.00    +0.000 A 
ENDBRANCH  11  12
ENDBRANCH   9  11
ENDBRANCH   8   9
ENDBRANCH   5   8
ENDBRANCH   1   2
BRANCH   1  20
ATOM     18  C   UNL     1      50.063   8.005  13.183  0.00  0.00    +0.000 C 
ATOM     19  O   UNL     1      50.574   7.742  14.268  0.00  0.00    +0.000 OA
ATOM     20  N   UNL     1      48.890   7.423  12.759  0.00  0.00    +0.000 N 
ATOM     21  H   UNL     1      48.655   7.467  11.778  0.00  0.00    +0.000 HD
BRANCH  18  26
ATOM     22  C   UNL     1      53.137   6.103   8.701  0.00  0.00    +0.000 C 
ATOM     23  C   UNL     1      52.691   7.401   9.308  0.00  0.00    +0.000 A 
ATOM     24  C   UNL     1      51.896   7.386  10.462  0.00  0.00    +0.000 A 
ATOM     25  C   UNL     1      51.493   8.602  11.057  0.00  0.00    +0.000 A 
ATOM     26  C   UNL     1      50.694   8.921  12.228  0.00  0.00    +0.000 A 
ATOM     27  C   UNL     1      50.535  10.294  12.351  0.00  0.00    +0.000 A 
ATOM     28  S   UNL     1      51.354  11.179  11.146  0.00  0.00    +0.000 S 
ATOM     29  C   UNL     1      51.911   9.756  10.399  0.00  0.00    +0.000 A 
ATOM     30  N   UNL     1      52.666   9.826   9.285  0.00  0.00    +0.000 NA
ATOM     31  C   UNL     1      53.041   8.638   8.762  0.00  0.00    +0.000 A 
ATOM     32  C   UNL     1      53.874   8.715   7.510  0.00  0.00    +0.000 C 
ENDBRANCH  18  26
ENDBRANCH   1  20
TORSDOF 7
ENDMDL
MODEL 6
REMARK VINA RESULT:    -6.755      4.690      5.882
REMARK INTER + INTRA:         -10.381
REMARK INTER:                  -9.492
REMARK INTRA:                  -0.889
REMARK UNBOUND:                -0.862
REMARK  Name = 
REMARK  9 active torsions:
REMARK  status: ('A' for Active; 'I' for Inactive)
REMARK    1  A    between atoms: C_1  and  C_2
REMARK    2  A    between atoms: C_5  and  C_6
REMARK    3  A    between atoms: N_8  and  C_9
REMARK    4  A    between atoms: C_9  and  C_10
REMARK    5  A    between atoms: C_13  and  C_14
REMARK    6  A    between atoms: C_14  and  N_15
REMARK    7  A    between atoms: N_15  and  C_16
REMARK    8  A    between atoms: C_16  and  C_17
REMARK    9  A    between atoms: C_29  and  C_30
REMARK                            x       y       z     vdW  Elec       q    Type
REMARK                         _______ _______ _______ _____ _____    ______ ____
ROOT
ATOM      1  C   UNL     1      45.653   8.972  12.118  0.00  0.00    +0.000 C 
ENDROOT
BRANCH   1   2
ATOM      2  C   UNL     1      45.270   7.514  12.078  0.00  0.00    +0.000 A 
ATOM      3  C   UNL     1      44.087   7.107  11.445  0.00  0.00    +0.000 A 
ATOM      4  C   UNL     1      43.722   5.756  11.414  0.00  0.00    +0.000 A 
ATOM      5  C   UNL     1      44.531   4.782  12.018  0.00  0.00    +0.000 A 
ATOM      6  C   UNL     1      45.703   5.191  12.663  0.00  0.00    +0.000 A 
ATOM      7  C   UNL     1      46.069   6.544  12.697  0.00  0.00    +0.000 A 
BRANCH   5   8
ATOM      8  C   UNL     1      44.142   3.318  11.979  0.00  0.00    +0.000 C 
BRANCH   8   9
ATOM      9  N   UNL     1      44.940   2.590  10.995  0.00  0.00    +0.000 NA
ATOM     10  H   UNL     1      45.025   1.619  11.294  0.00  0.00    +0.000 HD
BRANCH   9  11
ATOM     11  C   UNL     1      44.330   2.631   9.667  0.00  0.00    +0.000 C 
BRANCH  11  12
ATOM     12  C   UNL     1      45.386   2.669   8.596  0.00  0.00    +0.000 A 
ATOM     13  C   UNL     1      46.156   1.541   8.289  0.00  0.00    +0.000 A 
ATOM     14  C   UNL     1      47.109   1.608   7.279  0.00  0.00    +0.000 A 
ATOM     15  C   UNL     1      47.271   2.809   6.609  0.00  0.00    +0.000 A 
ATOM     16  N   UNL     1      46.560   3.923   6.884  0.00  0.00    +0.000 NA
ATOM     17  C   UNL     1      45.637   3.827   7.869  0.00  0.00    +0.000 A 
ENDBRANCH  11  12
ENDBRANCH   9  11
ENDBRANCH   8   9
ENDBRANCH   5   8
ENDBRANCH   1   2
BRANCH   1  20
ATOM     18  C   UNL     1      47.672  10.349  12.404  0.00  0.00    +0.000 C 
ATOM     19  O   UNL     1      47.125  11.339  11.928  0.00  0.00    +0.000 OA
ATOM     20  N   UNL     1      47.028   9.139  12.531  0.00  0.00    +0.000 N 
ATOM     21  H   UNL     1      47.419   8.445  13.153  0.00  0.00    +0.000 HD
BRANCH  18  26
ATOM     22  C   UNL     1      51.915   7.185  10.137  0.00  0.00    +0.000 C 
ATOM     23  C   UNL     1      51.702   8.188  11.232  0.00  0.00    +0.000 A 
ATOM     24  C   UNL     1      50.428   8.739  11.426  0.00  0.00    +0.000 A 
ATOM     25  C   UNL     1      50.211   9.664  12.471  0.00  0.00    +0.000 A 
ATOM     26  C   UNL     1      49.040  10.393  12.928  0.00  0.00    +0.000 A 
ATOM     27  C   UNL     1      49.371  11.241  13.976  0.00  0.00    +0.000 A 
ATOM     28  S   UNL     1      51.009  11.135  14.438  0.00  0.00    +0.000 S 
ATOM     29  C   UNL     1      51.335   9.985  13.228  0.00  0.00    +0.000 A 
ATOM     30  N   UNL     1      52.581   9.494  13.078  0.00  0.00    +0.000 NA
ATOM     31  C   UNL     1      52.736   8.600  12.076  0.00  0.00    +0.000 A 
ATOM     32  C   UNL     1      54.131   8.059  11.900  0.00  0.00    +0.000 C 
ENDBRANCH  18  26
ENDBRANCH   1  20
TORSDOF 7
ENDMDL
MODEL 7
REMARK VINA RESULT:    -6.676      2.794      3.818
REMARK INTER + INTRA:         -10.271
REMARK INTER:                  -9.460
REMARK INTRA:                  -0.811
REMARK UNBOUND:                -0.862
REMARK  Name = 
REMARK  9 active torsions:
REMARK  status: ('A' for Active; 'I' for Inactive)
REMARK    1  A    between atoms: C_1  and  C_2
REMARK    2  A    between atoms: C_5  and  C_6
REMARK    3  A    between atoms: N_8  and  C_9
REMARK    4  A    between atoms: C_9  and  C_10
REMARK    5  A    between atoms: C_13  and  C_14
REMARK    6  A    between atoms: C_14  and  N_15
REMARK    7  A    between atoms: N_15  and  C_16
REMARK    8  A    between atoms: C_16  and  C_17
REMARK    9  A    between atoms: C_29  and  C_30
REMARK                            x       y       z     vdW  Elec       q    Type
REMARK                         _______ _______ _______ _____ _____    ______ ____
ROOT
ATOM      1  C   UNL     1      47.310   4.370  15.295  0.00  0.00    +0.000 C 
ENDROOT
BRANCH   1   2
ATOM      2  C   UNL     1      46.635   4.656  13.977  0.00  0.00    +0.000 A 
ATOM      3  C   UNL     1      46.669   5.943  13.425  0.00  0.00    +0.000 A 
ATOM      4  C   UNL     1      46.034   6.216  12.207  0.00  0.00    +0.000 A 
ATOM      5  C   UNL     1      45.350   5.206  11.516  0.00  0.00    +0.000 A 
ATOM      6  C   UNL     1      45.304   3.924  12.074  0.00  0.00    +0.000 A 
ATOM      7  C   UNL     1      45.936   3.651  13.295  0.00  0.00    +0.000 A 
BRANCH   5   8
ATOM      8  C   UNL     1      44.670   5.496  10.193  0.00  0.00    +0.000 C 
BRANCH   8   9
ATOM      9  N   UNL     1      45.489   5.045   9.072  0.00  0.00    +0.000 NA
ATOM     10  H   UNL     1      46.363   4.663   9.434  0.00  0.00    +0.000 HD
BRANCH   9  11
ATOM     11  C   UNL     1      44.810   4.017   8.284  0.00  0.00    +0.000 C 
BRANCH  11  12
ATOM     12  C   UNL     1      45.801   3.035   7.720  0.00  0.00    +0.000 A 
ATOM     13  C   UNL     1      45.938   1.748   8.252  0.00  0.00    +0.000 A 
ATOM     14  C   UNL     1      46.850   0.861   7.693  0.00  0.00    +0.000 A 
ATOM     15  C   UNL     1      47.608   1.292   6.617  0.00  0.00    +0.000 A 
ATOM     16  N   UNL     1      47.517   2.529   6.083  0.00  0.00    +0.000 NA
ATOM     17  C   UNL     1      46.618   3.368   6.646  0.00  0.00    +0.000 A 
ENDBRANCH  11  12
ENDBRANCH   9  11
ENDBRANCH   8   9
ENDBRANCH   5   8
ENDBRANCH   1   2
BRANCH   1  20
ATOM     18  C   UNL     1      48.617   5.535  17.024  0.00  0.00    +0.000 C 
ATOM     19  O   UNL     1      48.649   4.539  17.740  0.00  0.00    +0.000 OA
ATOM     20  N   UNL     1      47.975   5.548  15.807  0.00  0.00    +0.000 N 
ATOM     21  H   UNL     1      48.193   6.285  15.152  0.00  0.00    +0.000 HD
BRANCH  18  26
ATOM     22  C   UNL     1      54.142   6.454  15.691  0.00  0.00    +0.000 C 
ATOM     23  C   UNL     1      53.003   7.154  16.372  0.00  0.00    +0.000 A 
ATOM     24  C   UNL     1      51.757   6.519  16.461  0.00  0.00    +0.000 A 
ATOM     25  C   UNL     1      50.685   7.157  17.124  0.00  0.00    +0.000 A 
ATOM     26  C   UNL     1      49.308   6.776  17.385  0.00  0.00    +0.000 A 
ATOM     27  C   UNL     1      48.633   7.801  18.034  0.00  0.00    +0.000 A 
ATOM     28  S   UNL     1      49.618   9.152  18.370  0.00  0.00    +0.000 S 
ATOM     29  C   UNL     1      50.964   8.427  17.624  0.00  0.00    +0.000 A 
ATOM     30  N   UNL     1      52.138   9.085  17.558  0.00  0.00    +0.000 NA
ATOM     31  C   UNL     1      53.138   8.428  16.929  0.00  0.00    +0.000 A 
ATOM     32  C   UNL     1      54.447   9.167  16.844  0.00  0.00    +0.000 C 
ENDBRANCH  18  26
ENDBRANCH   1  20
TORSDOF 7
ENDMDL
MODEL 8
REMARK VINA RESULT:    -6.660      4.820      6.837
REMARK INTER + INTRA:         -10.248
REMARK INTER:                  -9.361
REMARK INTRA:                  -0.887
REMARK UNBOUND:                -0.862
REMARK  Name = 
REMARK  9 active torsions:
REMARK  status: ('A' for Active; 'I' for Inactive)
REMARK    1  A    between atoms: C_1  and  C_2
REMARK    2  A    between atoms: C_5  and  C_6
REMARK    3  A    between atoms: N_8  and  C_9
REMARK    4  A    between atoms: C_9  and  C_10
REMARK    5  A    between atoms: C_13  and  C_14
REMARK    6  A    between atoms: C_14  and  N_15
REMARK    7  A    between atoms: N_15  and  C_16
REMARK    8  A    between atoms: C_16  and  C_17
REMARK    9  A    between atoms: C_29  and  C_30
REMARK                            x       y       z     vdW  Elec       q    Type
REMARK                         _______ _______ _______ _____ _____    ______ ____
ROOT
ATOM      1  C   UNL     1      45.854   8.800  13.047  0.00  0.00    +0.000 C 
ENDROOT
BRANCH   1   2
ATOM      2  C   UNL     1      45.624   7.377  12.605  0.00  0.00    +0.000 A 
ATOM      3  C   UNL     1      46.229   6.313  13.288  0.00  0.00    +0.000 A 
ATOM      4  C   UNL     1      46.027   4.991  12.876  0.00  0.00    +0.000 A 
ATOM      5  C   UNL     1      45.216   4.703  11.768  0.00  0.00    +0.000 A 
ATOM      6  C   UNL     1      44.624   5.766  11.077  0.00  0.00    +0.000 A 
ATOM      7  C   UNL     1      44.828   7.091  11.488  0.00  0.00    +0.000 A 
BRANCH   5   8
ATOM      8  C   UNL     1      44.989   3.273  11.324  0.00  0.00    +0.000 C 
BRANCH   8   9
ATOM      9  N   UNL     1      44.111   3.219  10.158  0.00  0.00    +0.000 NA
ATOM     10  H   UNL     1      44.246   4.064   9.605  0.00  0.00    +0.000 HD
BRANCH   9  11
ATOM     11  C   UNL     1      44.392   2.052   9.323  0.00  0.00    +0.000 C 
BRANCH  11  12
ATOM     12  C   UNL     1      45.527   2.335   8.376  0.00  0.00    +0.000 A 
ATOM     13  C   UNL     1      46.445   1.342   8.018  0.00  0.00    +0.000 A 
ATOM     14  C   UNL     1      47.469   1.635   7.123  0.00  0.00    +0.000 A 
ATOM     15  C   UNL     1      47.549   2.922   6.618  0.00  0.00    +0.000 A 
ATOM     16  N   UNL     1      46.693   3.912   6.949  0.00  0.00    +0.000 NA
ATOM     17  C   UNL     1      45.706   3.596   7.818  0.00  0.00    +0.000 A 
ENDBRANCH  11  12
ENDBRANCH   9  11
ENDBRANCH   8   9
ENDBRANCH   5   8
ENDBRANCH   1   2
BRANCH   1  20
ATOM     18  C   UNL     1      47.975   9.947  12.557  0.00  0.00    +0.000 C 
ATOM     19  O   UNL     1      48.373   9.809  13.709  0.00  0.00    +0.000 OA
ATOM     20  N   UNL     1      46.745   9.490  12.141  0.00  0.00    +0.000 N 
ATOM     21  H   UNL     1      46.574   9.392  11.150  0.00  0.00    +0.000 HD
BRANCH  18  26
ATOM     22  C   UNL     1      53.297   8.088  11.386  0.00  0.00    +0.000 C 
ATOM     23  C   UNL     1      52.326   9.133  10.918  0.00  0.00    +0.000 A 
ATOM     24  C   UNL     1      51.063   9.219  11.518  0.00  0.00    +0.000 A 
ATOM     25  C   UNL     1      50.151  10.215  11.104  0.00  0.00    +0.000 A 
ATOM     26  C   UNL     1      48.803  10.565  11.516  0.00  0.00    +0.000 A 
ATOM     27  C   UNL     1      48.309  11.605  10.741  0.00  0.00    +0.000 A 
ATOM     28  S   UNL     1      49.432  12.185   9.596  0.00  0.00    +0.000 S 
ATOM     29  C   UNL     1      50.595  11.038  10.072  0.00  0.00    +0.000 A 
ATOM     30  N   UNL     1      51.793  10.992   9.456  0.00  0.00    +0.000 NA
ATOM     31  C   UNL     1      52.637  10.034   9.897  0.00  0.00    +0.000 A 
ATOM     32  C   UNL     1      53.971   9.974   9.201  0.00  0.00    +0.000 C 
ENDBRANCH  18  26
ENDBRANCH   1  20
TORSDOF 7
ENDMDL
MODEL 9
REMARK VINA RESULT:    -6.468      3.999      9.255
REMARK INTER + INTRA:          -9.977
REMARK INTER:                  -8.203
REMARK INTRA:                  -1.774
REMARK UNBOUND:                -0.862
REMARK  Name = 
REMARK  9 active torsions:
REMARK  status: ('A' for Active; 'I' for Inactive)
REMARK    1  A    between atoms: C_1  and  C_2
REMARK    2  A    between atoms: C_5  and  C_6
REMARK    3  A    between atoms: N_8  and  C_9
REMARK    4  A    between atoms: C_9  and  C_10
REMARK    5  A    between atoms: C_13  and  C_14
REMARK    6  A    between atoms: C_14  and  N_15
REMARK    7  A    between atoms: N_15  and  C_16
REMARK    8  A    between atoms: C_16  and  C_17
REMARK    9  A    between atoms: C_29  and  C_30
REMARK                            x       y       z     vdW  Elec       q    Type
REMARK                         _______ _______ _______ _____ _____    ______ ____
ROOT
ATOM      1  C   UNL     1      47.571   3.777  16.408  0.00  0.00    +0.000 C 
ENDROOT
BRANCH   1   2
ATOM      2  C   UNL     1      47.979   4.750  17.485  0.00  0.00    +0.000 A 
ATOM      3  C   UNL     1      47.025   5.279  18.364  0.00  0.00    +0.000 A 
ATOM      4  C   UNL     1      47.398   6.191  19.359  0.00  0.00    +0.000 A 
ATOM      5  C   UNL     1      48.734   6.594  19.495  0.00  0.00    +0.000 A 
ATOM      6  C   UNL     1      49.684   6.077  18.608  0.00  0.00    +0.000 A 
ATOM      7  C   UNL     1      49.311   5.166  17.609  0.00  0.00    +0.000 A 
BRANCH   5   8
ATOM      8  C   UNL     1      49.142   7.574  20.576  0.00  0.00    +0.000 C 
BRANCH   8   9
ATOM      9  N   UNL     1      48.436   8.844  20.427  0.00  0.00    +0.000 NA
ATOM     10  H   UNL     1      48.166   9.181  21.351  0.00  0.00    +0.000 HD
BRANCH   9  11
ATOM     11  C   UNL     1      49.269   9.853  19.775  0.00  0.00    +0.000 C 
BRANCH  11  12
ATOM     12  C   UNL     1      49.282   9.649  18.284  0.00  0.00    +0.000 A 
ATOM     13  C   UNL     1      48.098   9.474  17.559  0.00  0.00    +0.000 A 
ATOM     14  C   UNL     1      48.148   9.309  16.180  0.00  0.00    +0.000 A 
ATOM     15  C   UNL     1      49.389   9.316  15.563  0.00  0.00    +0.000 A 
ATOM     16  N   UNL     1      50.555   9.468  16.227  0.00  0.00    +0.000 NA
ATOM     17  C   UNL     1      50.474   9.630  17.567  0.00  0.00    +0.000 A 
ENDBRANCH  11  12
ENDBRANCH   9  11
ENDBRANCH   8   9
ENDBRANCH   5   8
ENDBRANCH   1   2
BRANCH   1  20
ATOM     18  C   UNL     1      46.735   4.122  14.120  0.00  0.00    +0.000 C 
ATOM     19  O   UNL     1      47.575   3.364  13.645  0.00  0.00    +0.000 OA
ATOM     20  N   UNL     1      46.661   4.392  15.467  0.00  0.00    +0.000 N 
ATOM     21  H   UNL     1      45.813   4.801  15.834  0.00  0.00    +0.000 HD
BRANCH  18  26
ATOM     22  C   UNL     1      47.028   9.673  12.616  0.00  0.00    +0.000 C 
ATOM     23  C   UNL     1      46.135   8.484  12.415  0.00  0.00    +0.000 A 
ATOM     24  C   UNL     1      46.482   7.254  12.990  0.00  0.00    +0.000 A 
ATOM     25  C   UNL     1      45.636   6.135  12.830  0.00  0.00    +0.000 A 
ATOM     26  C   UNL     1      45.706   4.759  13.292  0.00  0.00    +0.000 A 
ATOM     27  C   UNL     1      44.634   4.025  12.803  0.00  0.00    +0.000 A 
ATOM     28  S   UNL     1      43.550   4.953  11.870  0.00  0.00    +0.000 S 
ATOM     29  C   UNL     1      44.499   6.352  12.056  0.00  0.00    +0.000 A 
ATOM     30  N   UNL     1      44.123   7.509  11.474  0.00  0.00    +0.000 NA
ATOM     31  C   UNL     1      44.956   8.555  11.669  0.00  0.00    +0.000 A 
ATOM     32  C   UNL     1      44.543   9.844  11.008  0.00  0.00    +0.000 C 
ENDBRANCH  18  26
ENDBRANCH   1  20
TORSDOF 7
ENDMDL
