MODEL 1
REMARK VINA RESULT:    -8.013      0.000      0.000
REMARK INTER + INTRA:         -11.855
REMARK INTER:                 -10.823
REMARK INTRA:                  -1.031
REMARK UNBOUND:                -1.031
REMARK  Name = 
REMARK  6 active torsions:
REMARK  status: ('A' for Active; 'I' for Inactive)
REMARK    1  A    between atoms: C_2  and  C_4
REMARK    2  A    between atoms: C_7  and  S_8
REMARK    3  A    between atoms: S_8  and  C_9
REMARK    4  A    between atoms: C_9  and  C_10
REMARK    5  A    between atoms: C_10  and  C_11
REMARK    6  A    between atoms: C_15  and  C_16
REMARK                            x       y       z     vdW  Elec       q    Type
REMARK                         _______ _______ _______ _____ _____    ______ ____
ROOT
ATOM      1  C   UNL     1      43.606   5.823  11.956  0.00  0.00    +0.000 C 
ENDROOT
BRANCH   1   2
ATOM      2  C   UNL     1      45.093   5.989  12.180  0.00  0.00    +0.000 A 
ATOM      3  C   UNL     1      45.881   6.660  11.241  0.00  0.00    +0.000 A 
ATOM      4  C   UNL     1      47.231   6.879  11.490  0.00  0.00    +0.000 A 
ATOM      5  C   UNL     1      47.800   6.445  12.688  0.00  0.00    +0.000 A 
ATOM      6  C   UNL     1      47.036   5.789  13.671  0.00  0.00    +0.000 A 
ATOM      7  C   UNL     1      45.680   5.547  13.378  0.00  0.00    +0.000 A 
BRANCH   6   8
ATOM      8  C   UNL     1      47.624   5.433  14.985  0.00  0.00    +0.000 A 
ATOM      9  C   UNL     1      47.187   4.298  15.679  0.00  0.00    +0.000 A 
ATOM     10  C   UNL     1      47.776   3.974  16.887  0.00  0.00    +0.000 A 
ATOM     11 CL   UNL     1      47.264   2.590  17.763  0.00  0.00    +0.000 Cl
ATOM     12  N   UNL     1      48.766   4.671  17.464  0.00  0.00    +0.000 NA
ATOM     13  C   UNL     1      49.177   5.755  16.785  0.00  0.00    +0.000 A 
ATOM     14 CL   UNL     1      50.460   6.617  17.530  0.00  0.00    +0.000 Cl
ATOM     15  C   UNL     1      48.653   6.179  15.571  0.00  0.00    +0.000 A 
ENDBRANCH   6   8
ENDBRANCH   1   2
BRANCH   1  16
ATOM     16  C   UNL     1      43.347   5.041  10.664  0.00  0.00    +0.000 C 
BRANCH  16  17
ATOM     17  S   UNL     1      43.775   3.279  10.870  0.00  0.00    +0.000 S 
BRANCH  17  21
ATOM     18  C   UNL     1      46.527   2.610   7.229  0.00  0.00    +0.000 A 
ATOM     19  C   UNL     1      46.066   1.498   7.941  0.00  0.00    +0.000 A 
ATOM     20  C   UNL     1      45.231   1.668   9.050  0.00  0.00    +0.000 A 
ATOM     21  C   UNL     1      44.845   2.946   9.471  0.00  0.00    +0.000 A 
ATOM     22  C   UNL     1      45.329   4.056   8.760  0.00  0.00    +0.000 A 
ATOM     23  C   UNL     1      46.170   3.893   7.650  0.00  0.00    +0.000 A 
BRANCH  18  25
ATOM     24  N   UNL     1      48.738   2.741   6.224  0.00  0.00    +0.000 N 
ATOM     25  C   UNL     1      47.412   2.458   6.046  0.00  0.00    +0.000 C 
ATOM     26  O   UNL     1      46.983   2.065   4.967  0.00  0.00    +0.000 OA
ATOM     27  H   UNL     1      49.349   2.544   5.441  0.00  0.00    +0.000 HD
ATOM     28  H   UNL     1      49.157   2.812   7.138  0.00  0.00    +0.000 HD
ENDBRANCH  18  25
ENDBRANCH  17  21
ENDBRANCH  16  17
ENDBRANCH   1  16
TORSDOF 6
ENDMDL
MODEL 2
REMARK VINA RESULT:    -7.929      3.643      4.621
REMARK INTER + INTRA:         -11.742
REMARK INTER:                 -10.967
REMARK INTRA:                  -0.775
REMARK UNBOUND:                -1.031
REMARK  Name = 
REMARK  6 active torsions:
REMARK  status: ('A' for Active; 'I' for Inactive)
REMARK    1  A    between atoms: C_2  and  C_4
REMARK    2  A    between atoms: C_7  and  S_8
REMARK    3  A    between atoms: S_8  and  C_9
REMARK    4  A    between atoms: C_9  and  C_10
REMARK    5  A    between atoms: C_10  and  C_11
REMARK    6  A    between atoms: C_15  and  C_16
REMARK                            x       y       z     vdW  Elec       q    Type
REMARK                         _______ _______ _______ _____ _____    ______ ____
ROOT
ATOM      1  C   UNL     1      43.641   4.567  13.099  0.00  0.00    +0.000 C 
ENDROOT
BRANCH   1   2
ATOM      2  C   UNL     1      44.944   5.333  13.157  0.00  0.00    +0.000 A 
ATOM      3  C   UNL     1      46.143   4.673  13.436  0.00  0.00    +0.000 A 
ATOM      4  C   UNL     1      47.347   5.369  13.410  0.00  0.00    +0.000 A 
ATOM      5  C   UNL     1      47.363   6.727  13.086  0.00  0.00    +0.000 A 
ATOM      6  C   UNL     1      46.181   7.423  12.773  0.00  0.00    +0.000 A 
ATOM      7  C   UNL     1      44.972   6.703  12.843  0.00  0.00    +0.000 A 
BRANCH   6   8
ATOM      8  C   UNL     1      46.221   8.834  12.322  0.00  0.00    +0.000 A 
ATOM      9  C   UNL     1      45.038   9.529  12.043  0.00  0.00    +0.000 A 
ATOM     10  C   UNL     1      45.106  10.855  11.655  0.00  0.00    +0.000 A 
ATOM     11 CL   UNL     1      43.675  11.735  11.306  0.00  0.00    +0.000 Cl
ATOM     12  N   UNL     1      46.243  11.554  11.527  0.00  0.00    +0.000 NA
ATOM     13  C   UNL     1      47.369  10.875  11.802  0.00  0.00    +0.000 A 
ATOM     14 CL   UNL     1      48.810  11.798  11.654  0.00  0.00    +0.000 Cl
ATOM     15  C   UNL     1      47.421   9.544  12.190  0.00  0.00    +0.000 A 
ENDBRANCH   6   8
ENDBRANCH   1   2
BRANCH   1  16
ATOM     16  C   UNL     1      43.646   3.599  11.911  0.00  0.00    +0.000 C 
BRANCH  16  17
ATOM     17  S   UNL     1      43.561   4.506  10.329  0.00  0.00    +0.000 S 
BRANCH  17  21
ATOM     18  C   UNL     1      46.559   2.383   7.539  0.00  0.00    +0.000 A 
ATOM     19  C   UNL     1      45.839   1.620   8.463  0.00  0.00    +0.000 A 
ATOM     20  C   UNL     1      44.923   2.235   9.323  0.00  0.00    +0.000 A 
ATOM     21  C   UNL     1      44.713   3.618   9.281  0.00  0.00    +0.000 A 
ATOM     22  C   UNL     1      45.455   4.376   8.362  0.00  0.00    +0.000 A 
ATOM     23  C   UNL     1      46.377   3.767   7.500  0.00  0.00    +0.000 A 
BRANCH  18  25
ATOM     24  N   UNL     1      48.697   2.438   6.381  0.00  0.00    +0.000 N 
ATOM     25  C   UNL     1      47.535   1.756   6.612  0.00  0.00    +0.000 C 
ATOM     26  O   UNL     1      47.326   0.661   6.101  0.00  0.00    +0.000 OA
ATOM     27  H   UNL     1      49.397   1.961   5.826  0.00  0.00    +0.000 HD
ATOM     28  H   UNL     1      49.006   3.195   6.972  0.00  0.00    +0.000 HD
ENDBRANCH  18  25
ENDBRANCH  17  21
ENDBRANCH  16  17
ENDBRANCH   1  16
TORSDOF 6
ENDMDL
MODEL 3
REMARK VINA RESULT:    -7.886      0.331      1.965
REMARK INTER + INTRA:         -11.683
REMARK INTER:                 -10.660
REMARK INTRA:                  -1.023
REMARK UNBOUND:                -1.031
REMARK  Name = 
REMARK  6 active torsions:
REMARK  status: ('A' for Active; 'I' for Inactive)
REMARK    1  A    between atoms: C_2  and  C_4
REMARK    2  A    between atoms: C_7  and  S_8
REMARK    3  A    between atoms: S_8  and  C_9
REMARK    4  A    between atoms: C_9  and  C_10
REMARK    5  A    between atoms: C_10  and  C_11
REMARK    6  A    between atoms: C_15  and  C_16
REMARK                            x       y       z     vdW  Elec       q    Type
REMARK                         _______ _______ _______ _____ _____    ______ ____
ROOT
ATOM      1  C   UNL     1      43.490   5.609  12.362  0.00  0.00    +0.000 C 
ENDROOT
BRANCH   1   2
ATOM      2  C   UNL     1      44.980   5.843  12.479  0.00  0.00    +0.000 A 
ATOM      3  C   UNL     1      45.665   6.560  11.495  0.00  0.00    +0.000 A 
ATOM      4  C   UNL     1      47.019   6.840  11.647  0.00  0.00    +0.000 A 
ATOM      5  C   UNL     1      47.694   6.421  12.795  0.00  0.00    +0.000 A 
ATOM      6  C   UNL     1      47.036   5.719  13.821  0.00  0.00    +0.000 A 
ATOM      7  C   UNL     1      45.675   5.417  13.625  0.00  0.00    +0.000 A 
BRANCH   6   8
ATOM      8  C   UNL     1      47.735   5.378  15.083  0.00  0.00    +0.000 A 
ATOM      9  C   UNL     1      48.747   6.205  15.586  0.00  0.00    +0.000 A 
ATOM     10  C   UNL     1      49.358   5.877  16.782  0.00  0.00    +0.000 A 
ATOM     11 CL   UNL     1      50.602   6.868  17.426  0.00  0.00    +0.000 Cl
ATOM     12  N   UNL     1      49.048   4.806  17.528  0.00  0.00    +0.000 NA
ATOM     13  C   UNL     1      48.073   4.025  17.035  0.00  0.00    +0.000 A 
ATOM     14 CL   UNL     1      47.678   2.675  18.019  0.00  0.00    +0.000 Cl
ATOM     15  C   UNL     1      47.399   4.252  15.844  0.00  0.00    +0.000 A 
ENDBRANCH   6   8
ENDBRANCH   1   2
BRANCH   1  16
ATOM     16  C   UNL     1      43.157   4.973  11.009  0.00  0.00    +0.000 C 
BRANCH  16  17
ATOM     17  S   UNL     1      43.656   3.218  10.971  0.00  0.00    +0.000 S 
BRANCH  17  21
ATOM     18  C   UNL     1      46.471   2.798   7.340  0.00  0.00    +0.000 A 
ATOM     19  C   UNL     1      46.010   4.070   7.695  0.00  0.00    +0.000 A 
ATOM     20  C   UNL     1      45.155   4.230   8.791  0.00  0.00    +0.000 A 
ATOM     21  C   UNL     1      44.741   3.127   9.547  0.00  0.00    +0.000 A 
ATOM     22  C   UNL     1      45.195   1.853   9.171  0.00  0.00    +0.000 A 
ATOM     23  C   UNL     1      46.049   1.686   8.071  0.00  0.00    +0.000 A 
BRANCH  18  25
ATOM     24  N   UNL     1      48.647   2.163   6.459  0.00  0.00    +0.000 N 
ATOM     25  C   UNL     1      47.382   2.601   6.184  0.00  0.00    +0.000 C 
ATOM     26  O   UNL     1      47.009   2.790   5.031  0.00  0.00    +0.000 OA
ATOM     27  H   UNL     1      49.230   1.940   5.662  0.00  0.00    +0.000 HD
ATOM     28  H   UNL     1      48.898   1.759   7.349  0.00  0.00    +0.000 HD
ENDBRANCH  18  25
ENDBRANCH  17  21
ENDBRANCH  16  17
ENDBRANCH   1  16
TORSDOF 6
ENDMDL
MODEL 4
REMARK VINA RESULT:    -7.633      3.183      4.213
REMARK INTER + INTRA:         -11.342
REMARK INTER:                 -10.503
REMARK INTRA:                  -0.838
REMARK UNBOUND:                -1.031
REMARK  Name = 
REMARK  6 active torsions:
REMARK  status: ('A' for Active; 'I' for Inactive)
REMARK    1  A    between atoms: C_2  and  C_4
REMARK    2  A    between atoms: C_7  and  S_8
REMARK    3  A    between atoms: S_8  and  C_9
REMARK    4  A    between atoms: C_9  and  C_10
REMARK    5  A    between atoms: C_10  and  C_11
REMARK    6  A    between atoms: C_15  and  C_16
REMARK                            x       y       z     vdW  Elec       q    Type
REMARK                         _______ _______ _______ _____ _____    ______ ____
ROOT
ATOM      1  C   UNL     1      43.715   5.700  12.408  0.00  0.00    +0.000 C 
ENDROOT
BRANCH   1   2
ATOM      2  C   UNL     1      45.157   5.826  12.849  0.00  0.00    +0.000 A 
ATOM      3  C   UNL     1      45.758   4.816  13.605  0.00  0.00    +0.000 A 
ATOM      4  C   UNL     1      47.105   4.901  13.940  0.00  0.00    +0.000 A 
ATOM      5  C   UNL     1      47.866   5.987  13.505  0.00  0.00    +0.000 A 
ATOM      6  C   UNL     1      47.306   7.011  12.720  0.00  0.00    +0.000 A 
ATOM      7  C   UNL     1      45.932   6.920  12.427  0.00  0.00    +0.000 A 
BRANCH   6   8
ATOM      8  C   UNL     1      48.148   8.101  12.171  0.00  0.00    +0.000 A 
ATOM      9  C   UNL     1      47.605   9.368  11.924  0.00  0.00    +0.000 A 
ATOM     10  C   UNL     1      48.424  10.373  11.441  0.00  0.00    +0.000 A 
ATOM     11 CL   UNL     1      47.791  11.936  11.128  0.00  0.00    +0.000 Cl
ATOM     12  N   UNL     1      49.734  10.234  11.190  0.00  0.00    +0.000 NA
ATOM     13  C   UNL     1      50.240   9.015  11.435  0.00  0.00    +0.000 A 
ATOM     14 CL   UNL     1      51.923   8.869  11.128  0.00  0.00    +0.000 Cl
ATOM     15  C   UNL     1      49.513   7.933  11.910  0.00  0.00    +0.000 A 
ENDBRANCH   6   8
ENDBRANCH   1   2
BRANCH   1  16
ATOM     16  C   UNL     1      43.644   5.211  10.958  0.00  0.00    +0.000 C 
BRANCH  16  17
ATOM     17  S   UNL     1      43.705   3.389  10.879  0.00  0.00    +0.000 S 
BRANCH  17  21
ATOM     18  C   UNL     1      46.510   2.758   7.272  0.00  0.00    +0.000 A 
ATOM     19  C   UNL     1      46.108   1.646   8.018  0.00  0.00    +0.000 A 
ATOM     20  C   UNL     1      45.259   1.804   9.118  0.00  0.00    +0.000 A 
ATOM     21  C   UNL     1      44.800   3.072   9.496  0.00  0.00    +0.000 A 
ATOM     22  C   UNL     1      45.224   4.183   8.750  0.00  0.00    +0.000 A 
ATOM     23  C   UNL     1      46.079   4.031   7.649  0.00  0.00    +0.000 A 
BRANCH  18  25
ATOM     24  N   UNL     1      48.752   2.574   6.347  0.00  0.00    +0.000 N 
ATOM     25  C   UNL     1      47.409   2.617   6.098  0.00  0.00    +0.000 C 
ATOM     26  O   UNL     1      46.968   2.511   4.958  0.00  0.00    +0.000 OA
ATOM     27  H   UNL     1      49.352   2.382   5.554  0.00  0.00    +0.000 HD
ATOM     28  H   UNL     1      49.125   2.400   7.268  0.00  0.00    +0.000 HD
ENDBRANCH  18  25
ENDBRANCH  17  21
ENDBRANCH  16  17
ENDBRANCH   1  16
TORSDOF 6
ENDMDL
MODEL 5
REMARK VINA RESULT:    -7.590      3.703      4.474
REMARK INTER + INTRA:         -11.284
REMARK INTER:                 -10.302
REMARK INTRA:                  -0.982
REMARK UNBOUND:                -1.031
REMARK  Name = 
REMARK  6 active torsions:
REMARK  status: ('A' for Active; 'I' for Inactive)
REMARK    1  A    between atoms: C_2  and  C_4
REMARK    2  A    between atoms: C_7  and  S_8
REMARK    3  A    between atoms: S_8  and  C_9
REMARK    4  A    between atoms: C_9  and  C_10
REMARK    5  A    between atoms: C_10  and  C_11
REMARK    6  A    between atoms: C_15  and  C_16
REMARK                            x       y       z     vdW  Elec       q    Type
REMARK                         _______ _______ _______ _____ _____    ______ ____
ROOT
ATOM      1  C   UNL     1      45.843   4.954  12.184  0.00  0.00    +0.000 C 
ENDROOT
BRANCH   1   2
ATOM      2  C   UNL     1      46.185   6.427  12.227  0.00  0.00    +0.000 A 
ATOM      3  C   UNL     1      45.277   7.351  12.750  0.00  0.00    +0.000 A 
ATOM      4  C   UNL     1      45.628   8.692  12.859  0.00  0.00    +0.000 A 
ATOM      5  C   UNL     1      46.898   9.116  12.464  0.00  0.00    +0.000 A 
ATOM      6  C   UNL     1      47.851   8.214  11.957  0.00  0.00    +0.000 A 
ATOM      7  C   UNL     1      47.456   6.869  11.822  0.00  0.00    +0.000 A 
BRANCH   6   8
ATOM      8  C   UNL     1      49.232   8.655  11.645  0.00  0.00    +0.000 A 
ATOM      9  C   UNL     1      50.197   7.733  11.223  0.00  0.00    +0.000 A 
ATOM     10  C   UNL     1      51.468   8.180  10.910  0.00  0.00    +0.000 A 
ATOM     11 CL   UNL     1      52.675   7.077  10.389  0.00  0.00    +0.000 Cl
ATOM     12  N   UNL     1      51.863   9.460  10.969  0.00  0.00    +0.000 NA
ATOM     13  C   UNL     1      50.924  10.332  11.372  0.00  0.00    +0.000 A 
ATOM     14 CL   UNL     1      51.446  11.967  11.417  0.00  0.00    +0.000 Cl
ATOM     15  C   UNL     1      49.623   9.997  11.720  0.00  0.00    +0.000 A 
ENDBRANCH   6   8
ENDBRANCH   1   2
BRANCH   1  16
ATOM     16  C   UNL     1      44.327   4.757  12.283  0.00  0.00    +0.000 C 
BRANCH  16  17
ATOM     17  S   UNL     1      43.544   4.884  10.639  0.00  0.00    +0.000 S 
BRANCH  17  21
ATOM     18  C   UNL     1      46.365   2.528   7.852  0.00  0.00    +0.000 A 
ATOM     19  C   UNL     1      45.560   1.823   8.752  0.00  0.00    +0.000 A 
ATOM     20  C   UNL     1      44.695   2.509   9.611  0.00  0.00    +0.000 A 
ATOM     21  C   UNL     1      44.620   3.907   9.591  0.00  0.00    +0.000 A 
ATOM     22  C   UNL     1      45.445   4.605   8.695  0.00  0.00    +0.000 A 
ATOM     23  C   UNL     1      46.318   3.923   7.835  0.00  0.00    +0.000 A 
BRANCH  18  25
ATOM     24  N   UNL     1      48.361   2.535   6.463  0.00  0.00    +0.000 N 
ATOM     25  C   UNL     1      47.290   1.825   6.927  0.00  0.00    +0.000 C 
ATOM     26  O   UNL     1      47.121   0.650   6.618  0.00  0.00    +0.000 OA
ATOM     27  H   UNL     1      49.038   2.022   5.911  0.00  0.00    +0.000 HD
ATOM     28  H   UNL     1      48.665   3.396   6.891  0.00  0.00    +0.000 HD
ENDBRANCH  18  25
ENDBRANCH  17  21
ENDBRANCH  16  17
ENDBRANCH   1  16
TORSDOF 6
ENDMDL
MODEL 6
REMARK VINA RESULT:    -7.498      3.291      4.484
REMARK INTER + INTRA:         -11.159
REMARK INTER:                 -10.384
REMARK INTRA:                  -0.775
REMARK UNBOUND:                -1.031
REMARK  Name = 
REMARK  6 active torsions:
REMARK  status: ('A' for Active; 'I' for Inactive)
REMARK    1  A    between atoms: C_2  and  C_4
REMARK    2  A    between atoms: C_7  and  S_8
REMARK    3  A    between atoms: S_8  and  C_9
REMARK    4  A    between atoms: C_9  and  C_10
REMARK    5  A    between atoms: C_10  and  C_11
REMARK    6  A    between atoms: C_15  and  C_16
REMARK                            x       y       z     vdW  Elec       q    Type
REMARK                         _______ _______ _______ _____ _____    ______ ____
ROOT
ATOM      1  C   UNL     1      43.880   5.292  12.780  0.00  0.00    +0.000 C 
ENDROOT
BRANCH   1   2
ATOM      2  C   UNL     1      45.294   5.675  13.158  0.00  0.00    +0.000 A 
ATOM      3  C   UNL     1      46.094   4.798  13.896  0.00  0.00    +0.000 A 
ATOM      4  C   UNL     1      47.418   5.122  14.172  0.00  0.00    +0.000 A 
ATOM      5  C   UNL     1      47.958   6.318  13.695  0.00  0.00    +0.000 A 
ATOM      6  C   UNL     1      47.195   7.216  12.927  0.00  0.00    +0.000 A 
ATOM      7  C   UNL     1      45.847   6.881  12.694  0.00  0.00    +0.000 A 
BRANCH   6   8
ATOM      8  C   UNL     1      47.809   8.427  12.332  0.00  0.00    +0.000 A 
ATOM      9  C   UNL     1      49.142   8.414  11.901  0.00  0.00    +0.000 A 
ATOM     10  C   UNL     1      49.677   9.549  11.321  0.00  0.00    +0.000 A 
ATOM     11 CL   UNL     1      51.306   9.566  10.782  0.00  0.00    +0.000 Cl
ATOM     12  N   UNL     1      49.006  10.694  11.124  0.00  0.00    +0.000 NA
ATOM     13  C   UNL     1      47.729  10.690  11.539  0.00  0.00    +0.000 A 
ATOM     14 CL   UNL     1      46.884  12.157  11.255  0.00  0.00    +0.000 Cl
ATOM     15  C   UNL     1      47.092   9.614  12.141  0.00  0.00    +0.000 A 
ENDBRANCH   6   8
ENDBRANCH   1   2
BRANCH   1  16
ATOM     16  C   UNL     1      43.779   5.052  11.271  0.00  0.00    +0.000 C 
BRANCH  16  17
ATOM     17  S   UNL     1      43.768   3.267  10.891  0.00  0.00    +0.000 S 
BRANCH  17  21
ATOM     18  C   UNL     1      46.555   2.752   7.252  0.00  0.00    +0.000 A 
ATOM     19  C   UNL     1      46.164   4.041   7.627  0.00  0.00    +0.000 A 
ATOM     20  C   UNL     1      45.319   4.230   8.726  0.00  0.00    +0.000 A 
ATOM     21  C   UNL     1      44.845   3.140   9.465  0.00  0.00    +0.000 A 
ATOM     22  C   UNL     1      45.229   1.849   9.068  0.00  0.00    +0.000 A 
ATOM     23  C   UNL     1      46.073   1.652   7.965  0.00  0.00    +0.000 A 
BRANCH  18  25
ATOM     24  N   UNL     1      48.798   2.580   6.328  0.00  0.00    +0.000 N 
ATOM     25  C   UNL     1      47.453   2.523   6.091  0.00  0.00    +0.000 C 
ATOM     26  O   UNL     1      47.012   2.263   4.977  0.00  0.00    +0.000 OA
ATOM     27  H   UNL     1      49.402   2.329   5.556  0.00  0.00    +0.000 HD
ATOM     28  H   UNL     1      49.185   2.534   7.258  0.00  0.00    +0.000 HD
ENDBRANCH  18  25
ENDBRANCH  17  21
ENDBRANCH  16  17
ENDBRANCH   1  16
TORSDOF 6
ENDMDL
MODEL 7
REMARK VINA RESULT:    -7.283      4.316      8.031
REMARK INTER + INTRA:         -10.869
REMARK INTER:                  -9.608
REMARK INTRA:                  -1.261
REMARK UNBOUND:                -1.031
REMARK  Name = 
REMARK  6 active torsions:
REMARK  status: ('A' for Active; 'I' for Inactive)
REMARK    1  A    between atoms: C_2  and  C_4
REMARK    2  A    between atoms: C_7  and  S_8
REMARK    3  A    between atoms: S_8  and  C_9
REMARK    4  A    between atoms: C_9  and  C_10
REMARK    5  A    between atoms: C_10  and  C_11
REMARK    6  A    between atoms: C_15  and  C_16
REMARK                            x       y       z     vdW  Elec       q    Type
REMARK                         _______ _______ _______ _____ _____    ______ ____
ROOT
ATOM      1  C   UNL     1      49.225   8.573  11.951  0.00  0.00    +0.000 C 
ENDROOT
BRANCH   1   2
ATOM      2  C   UNL     1      47.754   8.223  12.023  0.00  0.00    +0.000 A 
ATOM      3  C   UNL     1      46.827   9.152  12.501  0.00  0.00    +0.000 A 
ATOM      4  C   UNL     1      45.468   8.853  12.490  0.00  0.00    +0.000 A 
ATOM      5  C   UNL     1      45.026   7.630  11.984  0.00  0.00    +0.000 A 
ATOM      6  C   UNL     1      45.925   6.677  11.470  0.00  0.00    +0.000 A 
ATOM      7  C   UNL     1      47.297   6.990  11.527  0.00  0.00    +0.000 A 
BRANCH   6   8
ATOM      8  C   UNL     1      45.436   5.431  10.834  0.00  0.00    +0.000 A 
ATOM      9  C   UNL     1      44.638   4.529  11.549  0.00  0.00    +0.000 A 
ATOM     10  C   UNL     1      44.171   3.390  10.918  0.00  0.00    +0.000 A 
ATOM     11 CL   UNL     1      43.191   2.265  11.765  0.00  0.00    +0.000 Cl
ATOM     12  N   UNL     1      44.418   3.071   9.639  0.00  0.00    +0.000 NA
ATOM     13  C   UNL     1      45.181   3.947   8.966  0.00  0.00    +0.000 A 
ATOM     14 CL   UNL     1      45.464   3.530   7.325  0.00  0.00    +0.000 Cl
ATOM     15  C   UNL     1      45.711   5.115   9.498  0.00  0.00    +0.000 A 
ENDBRANCH   6   8
ENDBRANCH   1   2
BRANCH   1  16
ATOM     16  C   UNL     1      50.041   7.620  12.830  0.00  0.00    +0.000 C 
BRANCH  16  17
ATOM     17  S   UNL     1      50.029   8.167  14.572  0.00  0.00    +0.000 S 
BRANCH  17  21
ATOM     18  C   UNL     1      48.195   4.641  16.913  0.00  0.00    +0.000 A 
ATOM     19  C   UNL     1      47.617   5.018  15.697  0.00  0.00    +0.000 A 
ATOM     20  C   UNL     1      48.150   6.084  14.964  0.00  0.00    +0.000 A 
ATOM     21  C   UNL     1      49.262   6.794  15.431  0.00  0.00    +0.000 A 
ATOM     22  C   UNL     1      49.823   6.418  16.662  0.00  0.00    +0.000 A 
ATOM     23  C   UNL     1      49.291   5.354  17.404  0.00  0.00    +0.000 A 
BRANCH  18  25
ATOM     24  N   UNL     1      48.339   3.161  18.838  0.00  0.00    +0.000 N 
ATOM     25  C   UNL     1      47.651   3.512  17.710  0.00  0.00    +0.000 C 
ATOM     26  O   UNL     1      46.615   2.939  17.391  0.00  0.00    +0.000 OA
ATOM     27  H   UNL     1      47.912   2.457  19.426  0.00  0.00    +0.000 HD
ATOM     28  H   UNL     1      49.030   3.764  19.259  0.00  0.00    +0.000 HD
ENDBRANCH  18  25
ENDBRANCH  17  21
ENDBRANCH  16  17
ENDBRANCH   1  16
TORSDOF 6
ENDMDL
MODEL 8
REMARK VINA RESULT:    -7.239      4.325      8.107
REMARK INTER + INTRA:         -10.809
REMARK INTER:                  -9.550
REMARK INTRA:                  -1.259
REMARK UNBOUND:                -1.031
REMARK  Name = 
REMARK  6 active torsions:
REMARK  status: ('A' for Active; 'I' for Inactive)
REMARK    1  A    between atoms: C_2  and  C_4
REMARK    2  A    between atoms: C_7  and  S_8
REMARK    3  A    between atoms: S_8  and  C_9
REMARK    4  A    between atoms: C_9  and  C_10
REMARK    5  A    between atoms: C_10  and  C_11
REMARK    6  A    between atoms: C_15  and  C_16
REMARK                            x       y       z     vdW  Elec       q    Type
REMARK                         _______ _______ _______ _____ _____    ______ ____
ROOT
ATOM      1  C   UNL     1      49.249   8.668  12.030  0.00  0.00    +0.000 C 
ENDROOT
BRANCH   1   2
ATOM      2  C   UNL     1      47.771   8.351  12.099  0.00  0.00    +0.000 A 
ATOM      3  C   UNL     1      46.864   9.300  12.578  0.00  0.00    +0.000 A 
ATOM      4  C   UNL     1      45.500   9.031  12.566  0.00  0.00    +0.000 A 
ATOM      5  C   UNL     1      45.030   7.820  12.056  0.00  0.00    +0.000 A 
ATOM      6  C   UNL     1      45.908   6.849  11.540  0.00  0.00    +0.000 A 
ATOM      7  C   UNL     1      47.287   7.130  11.599  0.00  0.00    +0.000 A 
BRANCH   6   8
ATOM      8  C   UNL     1      45.392   5.615  10.900  0.00  0.00    +0.000 A 
ATOM      9  C   UNL     1      45.743   5.293   9.583  0.00  0.00    +0.000 A 
ATOM     10  C   UNL     1      45.272   4.119   9.024  0.00  0.00    +0.000 A 
ATOM     11 CL   UNL     1      45.684   3.695   7.413  0.00  0.00    +0.000 Cl
ATOM     12  N   UNL     1      44.491   3.232   9.658  0.00  0.00    +0.000 NA
ATOM     13  C   UNL     1      44.166   3.553  10.921  0.00  0.00    +0.000 A 
ATOM     14 CL   UNL     1      43.186   2.392  11.720  0.00  0.00    +0.000 Cl
ATOM     15  C   UNL     1      44.573   4.705  11.579  0.00  0.00    +0.000 A 
ENDBRANCH   6   8
ENDBRANCH   1   2
BRANCH   1  16
ATOM     16  C   UNL     1      50.041   7.706  12.921  0.00  0.00    +0.000 C 
BRANCH  16  17
ATOM     17  S   UNL     1      49.966   8.224  14.670  0.00  0.00    +0.000 S 
BRANCH  17  21
ATOM     18  C   UNL     1      48.161   4.617  16.908  0.00  0.00    +0.000 A 
ATOM     19  C   UNL     1      47.631   4.975  15.665  0.00  0.00    +0.000 A 
ATOM     20  C   UNL     1      48.156   6.065  14.962  0.00  0.00    +0.000 A 
ATOM     21  C   UNL     1      49.213   6.818  15.486  0.00  0.00    +0.000 A 
ATOM     22  C   UNL     1      49.725   6.460  16.743  0.00  0.00    +0.000 A 
ATOM     23  C   UNL     1      49.200   5.372  17.455  0.00  0.00    +0.000 A 
BRANCH  18  25
ATOM     24  N   UNL     1      48.327   3.071  18.778  0.00  0.00    +0.000 N 
ATOM     25  C   UNL     1      47.624   3.464  17.674  0.00  0.00    +0.000 C 
ATOM     26  O   UNL     1      46.580   2.907  17.351  0.00  0.00    +0.000 OA
ATOM     27  H   UNL     1      47.906   2.349  19.348  0.00  0.00    +0.000 HD
ATOM     28  H   UNL     1      49.028   3.656  19.208  0.00  0.00    +0.000 HD
ENDBRANCH  18  25
ENDBRANCH  17  21
ENDBRANCH  16  17
ENDBRANCH   1  16
TORSDOF 6
ENDMDL
MODEL 9
REMARK VINA RESULT:    -6.836      5.234      6.702
REMARK INTER + INTRA:         -10.265
REMARK INTER:                  -9.544
REMARK INTRA:                  -0.721
REMARK UNBOUND:                -1.031
REMARK  Name = 
REMARK  6 active torsions:
REMARK  status: ('A' for Active; 'I' for Inactive)
REMARK    1  A    between atoms: C_2  and  C_4
REMARK    2  A    between atoms: C_7  and  S_8
REMARK    3  A    between atoms: S_8  and  C_9
REMARK    4  A    between atoms: C_9  and  C_10
REMARK    5  A    between atoms: C_10  and  C_11
REMARK    6  A    between atoms: C_15  and  C_16
REMARK                            x       y       z     vdW  Elec       q    Type
REMARK                         _______ _______ _______ _____ _____    ______ ____
ROOT
ATOM      1  C   UNL     1      45.181   5.667  11.964  0.00  0.00    +0.000 C 
ENDROOT
BRANCH   1   2
ATOM      2  C   UNL     1      45.253   7.177  12.005  0.00  0.00    +0.000 A 
ATOM      3  C   UNL     1      46.329   7.820  12.622  0.00  0.00    +0.000 A 
ATOM      4  C   UNL     1      46.429   9.207  12.587  0.00  0.00    +0.000 A 
ATOM      5  C   UNL     1      45.463   9.961  11.918  0.00  0.00    +0.000 A 
ATOM      6  C   UNL     1      44.378   9.351  11.262  0.00  0.00    +0.000 A 
ATOM      7  C   UNL     1      44.281   7.949  11.344  0.00  0.00    +0.000 A 
BRANCH   6   8
ATOM      8  C   UNL     1      43.421  10.152  10.461  0.00  0.00    +0.000 A 
ATOM      9  C   UNL     1      42.124  10.392  10.929  0.00  0.00    +0.000 A 
ATOM     10  C   UNL     1      41.264  11.169  10.174  0.00  0.00    +0.000 A 
ATOM     11 CL   UNL     1      39.668  11.483  10.719  0.00  0.00    +0.000 Cl
ATOM     12  N   UNL     1      41.581  11.737   9.001  0.00  0.00    +0.000 NA
ATOM     13  C   UNL     1      42.830  11.501   8.568  0.00  0.00    +0.000 A 
ATOM     14 CL   UNL     1      43.220  12.256   7.076  0.00  0.00    +0.000 Cl
ATOM     15  C   UNL     1      43.772  10.731   9.235  0.00  0.00    +0.000 A 
ENDBRANCH   6   8
ENDBRANCH   1   2
BRANCH   1  16
ATOM     16  C   UNL     1      43.981   5.214  11.127  0.00  0.00    +0.000 C 
BRANCH  16  17
ATOM     17  S   UNL     1      43.967   3.399  10.933  0.00  0.00    +0.000 S 
BRANCH  17  21
ATOM     18  C   UNL     1      46.573   2.524   7.228  0.00  0.00    +0.000 A 
ATOM     19  C   UNL     1      46.227   3.849   7.514  0.00  0.00    +0.000 A 
ATOM     20  C   UNL     1      45.437   4.146   8.630  0.00  0.00    +0.000 A 
ATOM     21  C   UNL     1      44.975   3.131   9.476  0.00  0.00    +0.000 A 
ATOM     22  C   UNL     1      45.314   1.804   9.169  0.00  0.00    +0.000 A 
ATOM     23  C   UNL     1      46.101   1.498   8.049  0.00  0.00    +0.000 A 
BRANCH  18  25
ATOM     24  N   UNL     1      46.879   2.426   4.817  0.00  0.00    +0.000 N 
ATOM     25  C   UNL     1      47.412   2.181   6.052  0.00  0.00    +0.000 C 
ATOM     26  O   UNL     1      48.544   1.728   6.179  0.00  0.00    +0.000 OA
ATOM     27  H   UNL     1      47.491   2.280   4.025  0.00  0.00    +0.000 HD
ATOM     28  H   UNL     1      46.077   3.024   4.684  0.00  0.00    +0.000 HD
ENDBRANCH  18  25
ENDBRANCH  17  21
ENDBRANCH  16  17
ENDBRANCH   1  16
TORSDOF 6
ENDMDL
