MODEL 1
REMARK VINA RESULT:    -7.384      0.000      0.000
REMARK INTER + INTRA:         -10.708
REMARK INTER:                  -9.975
REMARK INTRA:                  -0.734
REMARK UNBOUND:                -0.734
REMARK  Name = 
REMARK  8 active torsions:
REMARK  status: ('A' for Active; 'I' for Inactive)
REMARK    1  A    between atoms: C_1  and  N_2
REMARK    2  A    between atoms: N_2  and  C_3
REMARK    3  A    between atoms: N_2  and  C_4
REMARK    4  A    between atoms: C_8  and  C_9
REMARK    5  A    between atoms: C_9  and  C_10
REMARK    6  A    between atoms: C_10  and  O_11
REMARK    7  A    between atoms: O_11  and  C_12
REMARK    8  A    between atoms: C_15  and  C_16
REMARK                            x       y       z     vdW  Elec       q    Type
REMARK                         _______ _______ _______ _____ _____    ______ ____
ROOT
ATOM      1  O   UNL     1      43.726   4.584  10.006  0.00  0.00    +0.000 OA
ENDROOT
BRANCH   1   2
ATOM      2  C   UNL     1      44.669   3.913   9.247  0.00  0.00    +0.000 A 
ATOM      3  C   UNL     1      44.767   2.540   9.406  0.00  0.00    +0.000 A 
ATOM      4  C   UNL     1      45.705   1.849   8.631  0.00  0.00    +0.000 A 
ATOM      5  C   UNL     1      46.513   2.549   7.725  0.00  0.00    +0.000 A 
ATOM      6  C   UNL     1      46.339   3.920   7.651  0.00  0.00    +0.000 A 
ATOM      7  N   UNL     1      45.440   4.615   8.388  0.00  0.00    +0.000 NA
BRANCH   5   8
ATOM      8  C   UNL     1      47.499   1.813   6.900  0.00  0.00    +0.000 C 
ATOM      9  N   UNL     1      48.556   2.493   6.359  0.00  0.00    +0.000 N 
ATOM     10  O   UNL     1      47.374   0.612   6.690  0.00  0.00    +0.000 OA
ATOM     11  H   UNL     1      48.742   3.480   6.450  0.00  0.00    +0.000 HD
ATOM     12  H   UNL     1      49.198   1.952   5.791  0.00  0.00    +0.000 HD
ENDBRANCH   5   8
ENDBRANCH   1   2
BRANCH   1  13
ATOM     13  C   UNL     1      43.332   3.817  11.153  0.00  0.00    +0.000 C 
BRANCH  13  14
ATOM     14  C   UNL     1      43.283   4.705  12.395  0.00  0.00    +0.000 C 
BRANCH  14  19
ATOM     15  C   UNL     1      46.079   7.291  12.930  0.00  0.00    +0.000 A 
ATOM     16  C   UNL     1      47.113   6.428  13.328  0.00  0.00    +0.000 A 
ATOM     17  C   UNL     1      46.923   5.045  13.438  0.00  0.00    +0.000 A 
ATOM     18  C   UNL     1      45.692   4.475  13.130  0.00  0.00    +0.000 A 
ATOM     19  C   UNL     1      44.644   5.288  12.695  0.00  0.00    +0.000 A 
ATOM     20  C   UNL     1      44.854   6.677  12.600  0.00  0.00    +0.000 A 
BRANCH  15  22
ATOM     21  C   UNL     1      45.198   9.506  12.258  0.00  0.00    +0.000 C 
ATOM     22  N   UNL     1      46.246   8.677  12.846  0.00  0.00    +0.000 N 
ATOM     23  C   UNL     1      47.607   9.203  12.779  0.00  0.00    +0.000 C 
ENDBRANCH  15  22
ENDBRANCH  14  19
ENDBRANCH  13  14
ENDBRANCH   1  13
TORSDOF 6
ENDMDL
MODEL 2
REMARK VINA RESULT:    -7.257      1.506      2.255
REMARK INTER + INTRA:         -10.536
REMARK INTER:                  -9.973
REMARK INTRA:                  -0.563
REMARK UNBOUND:                -0.734
REMARK  Name = 
REMARK  8 active torsions:
REMARK  status: ('A' for Active; 'I' for Inactive)
REMARK    1  A    between atoms: C_1  and  N_2
REMARK    2  A    between atoms: N_2  and  C_3
REMARK    3  A    between atoms: N_2  and  C_4
REMARK    4  A    between atoms: C_8  and  C_9
REMARK    5  A    between atoms: C_9  and  C_10
REMARK    6  A    between atoms: C_10  and  O_11
REMARK    7  A    between atoms: O_11  and  C_12
REMARK    8  A    between atoms: C_15  and  C_16
REMARK                            x       y       z     vdW  Elec       q    Type
REMARK                         _______ _______ _______ _____ _____    ______ ____
ROOT
ATOM      1  O   UNL     1      43.752   4.062   9.891  0.00  0.00    +0.000 OA
ENDROOT
BRANCH   1   2
ATOM      2  C   UNL     1      44.717   3.517   9.064  0.00  0.00    +0.000 A 
ATOM      3  C   UNL     1      44.997   2.166   9.203  0.00  0.00    +0.000 A 
ATOM      4  C   UNL     1      45.961   1.600   8.360  0.00  0.00    +0.000 A 
ATOM      5  C   UNL     1      46.611   2.397   7.409  0.00  0.00    +0.000 A 
ATOM      6  C   UNL     1      46.262   3.735   7.360  0.00  0.00    +0.000 A 
ATOM      7  N   UNL     1      45.335   4.311   8.162  0.00  0.00    +0.000 NA
BRANCH   5   8
ATOM      8  C   UNL     1      47.623   1.793   6.512  0.00  0.00    +0.000 C 
ATOM      9  N   UNL     1      48.809   2.444   6.309  0.00  0.00    +0.000 N 
ATOM     10  O   UNL     1      47.407   0.727   5.946  0.00  0.00    +0.000 OA
ATOM     11  H   UNL     1      49.080   3.331   6.705  0.00  0.00    +0.000 HD
ATOM     12  H   UNL     1      49.466   2.000   5.678  0.00  0.00    +0.000 HD
ENDBRANCH   5   8
ENDBRANCH   1   2
BRANCH   1  13
ATOM     13  C   UNL     1      43.877   3.580  11.237  0.00  0.00    +0.000 C 
BRANCH  13  14
ATOM     14  C   UNL     1      43.780   4.737  12.228  0.00  0.00    +0.000 C 
BRANCH  14  19
ATOM     15  C   UNL     1      47.136   5.592  13.901  0.00  0.00    +0.000 A 
ATOM     16  C   UNL     1      47.683   6.415  12.903  0.00  0.00    +0.000 A 
ATOM     17  C   UNL     1      47.003   6.686  11.709  0.00  0.00    +0.000 A 
ATOM     18  C   UNL     1      45.737   6.155  11.484  0.00  0.00    +0.000 A 
ATOM     19  C   UNL     1      45.136   5.362  12.462  0.00  0.00    +0.000 A 
ATOM     20  C   UNL     1      45.840   5.096  13.650  0.00  0.00    +0.000 A 
BRANCH  15  22
ATOM     21  C   UNL     1      47.292   4.273  15.991  0.00  0.00    +0.000 C 
ATOM     22  N   UNL     1      47.816   5.289  15.084  0.00  0.00    +0.000 N 
ATOM     23  C   UNL     1      48.650   6.328  15.683  0.00  0.00    +0.000 C 
ENDBRANCH  15  22
ENDBRANCH  14  19
ENDBRANCH  13  14
ENDBRANCH   1  13
TORSDOF 6
ENDMDL
MODEL 3
REMARK VINA RESULT:    -6.559      1.252      2.069
REMARK INTER + INTRA:          -9.593
REMARK INTER:                  -9.449
REMARK INTRA:                  -0.144
REMARK UNBOUND:                -0.734
REMARK  Name = 
REMARK  8 active torsions:
REMARK  status: ('A' for Active; 'I' for Inactive)
REMARK    1  A    between atoms: C_1  and  N_2
REMARK    2  A    between atoms: N_2  and  C_3
REMARK    3  A    between atoms: N_2  and  C_4
REMARK    4  A    between atoms: C_8  and  C_9
REMARK    5  A    between atoms: C_9  and  C_10
REMARK    6  A    between atoms: C_10  and  O_11
REMARK    7  A    between atoms: O_11  and  C_12
REMARK    8  A    between atoms: C_15  and  C_16
REMARK                            x       y       z     vdW  Elec       q    Type
REMARK                         _______ _______ _______ _____ _____    ______ ____
ROOT
ATOM      1  O   UNL     1      43.670   4.641   9.873  0.00  0.00    +0.000 OA
ENDROOT
BRANCH   1   2
ATOM      2  C   UNL     1      44.620   3.941   9.151  0.00  0.00    +0.000 A 
ATOM      3  C   UNL     1      44.670   2.566   9.315  0.00  0.00    +0.000 A 
ATOM      4  C   UNL     1      45.616   1.845   8.576  0.00  0.00    +0.000 A 
ATOM      5  C   UNL     1      46.478   2.518   7.700  0.00  0.00    +0.000 A 
ATOM      6  C   UNL     1      46.348   3.894   7.618  0.00  0.00    +0.000 A 
ATOM      7  N   UNL     1      45.444   4.618   8.321  0.00  0.00    +0.000 NA
BRANCH   5   8
ATOM      8  C   UNL     1      47.471   1.752   6.912  0.00  0.00    +0.000 C 
ATOM      9  N   UNL     1      48.562   2.402   6.401  0.00  0.00    +0.000 N 
ATOM     10  O   UNL     1      47.323   0.553   6.708  0.00  0.00    +0.000 OA
ATOM     11  H   UNL     1      48.769   3.384   6.490  0.00  0.00    +0.000 HD
ATOM     12  H   UNL     1      49.207   1.840   5.858  0.00  0.00    +0.000 HD
ENDBRANCH   5   8
ENDBRANCH   1   2
BRANCH   1  13
ATOM     13  C   UNL     1      43.883   4.511  11.287  0.00  0.00    +0.000 C 
BRANCH  13  14
ATOM     14  C   UNL     1      45.375   4.562  11.608  0.00  0.00    +0.000 C 
BRANCH  14  19
ATOM     15  C   UNL     1      47.417   7.289  13.392  0.00  0.00    +0.000 A 
ATOM     16  C   UNL     1      46.547   8.377  13.213  0.00  0.00    +0.000 A 
ATOM     17  C   UNL     1      45.334   8.251  12.524  0.00  0.00    +0.000 A 
ATOM     18  C   UNL     1      44.940   7.021  12.008  0.00  0.00    +0.000 A 
ATOM     19  C   UNL     1      45.754   5.902  12.193  0.00  0.00    +0.000 A 
ATOM     20  C   UNL     1      46.972   6.053  12.881  0.00  0.00    +0.000 A 
BRANCH  15  22
ATOM     21  C   UNL     1      49.860   7.680  13.291  0.00  0.00    +0.000 C 
ATOM     22  N   UNL     1      48.645   7.407  14.051  0.00  0.00    +0.000 N 
ATOM     23  C   UNL     1      48.814   6.703  15.320  0.00  0.00    +0.000 C 
ENDBRANCH  15  22
ENDBRANCH  14  19
ENDBRANCH  13  14
ENDBRANCH   1  13
TORSDOF 6
ENDMDL
MODEL 4
REMARK VINA RESULT:    -6.017      3.423      6.890
REMARK INTER + INTRA:          -8.862
REMARK INTER:                  -7.983
REMARK INTRA:                  -0.879
REMARK UNBOUND:                -0.734
REMARK  Name = 
REMARK  8 active torsions:
REMARK  status: ('A' for Active; 'I' for Inactive)
REMARK    1  A    between atoms: C_1  and  N_2
REMARK    2  A    between atoms: N_2  and  C_3
REMARK    3  A    between atoms: N_2  and  C_4
REMARK    4  A    between atoms: C_8  and  C_9
REMARK    5  A    between atoms: C_9  and  C_10
REMARK    6  A    between atoms: C_10  and  O_11
REMARK    7  A    between atoms: O_11  and  C_12
REMARK    8  A    between atoms: C_15  and  C_16
REMARK                            x       y       z     vdW  Elec       q    Type
REMARK                         _______ _______ _______ _____ _____    ______ ____
ROOT
ATOM      1  O   UNL     1      47.285   6.515  12.699  0.00  0.00    +0.000 OA
ENDROOT
BRANCH   1   2
ATOM      2  C   UNL     1      47.442   5.762  13.849  0.00  0.00    +0.000 A 
ATOM      3  C   UNL     1      46.809   4.530  13.904  0.00  0.00    +0.000 A 
ATOM      4  C   UNL     1      46.974   3.752  15.056  0.00  0.00    +0.000 A 
ATOM      5  C   UNL     1      47.763   4.226  16.112  0.00  0.00    +0.000 A 
ATOM      6  C   UNL     1      48.343   5.473  15.957  0.00  0.00    +0.000 A 
ATOM      7  N   UNL     1      48.201   6.249  14.855  0.00  0.00    +0.000 NA
BRANCH   5   8
ATOM      8  C   UNL     1      47.943   3.396  17.326  0.00  0.00    +0.000 C 
ATOM      9  N   UNL     1      46.900   2.632  17.772  0.00  0.00    +0.000 N 
ATOM     10  O   UNL     1      49.007   3.395  17.935  0.00  0.00    +0.000 OA
ATOM     11  H   UNL     1      45.981   2.575  17.362  0.00  0.00    +0.000 HD
ATOM     12  H   UNL     1      47.065   2.091  18.613  0.00  0.00    +0.000 HD
ENDBRANCH   5   8
ENDBRANCH   1   2
BRANCH   1  13
ATOM     13  C   UNL     1      46.324   7.564  12.884  0.00  0.00    +0.000 C 
BRANCH  13  14
ATOM     14  C   UNL     1      45.351   7.607  11.708  0.00  0.00    +0.000 C 
BRANCH  14  19
ATOM     15  C   UNL     1      44.625   4.116  10.268  0.00  0.00    +0.000 A 
ATOM     16  C   UNL     1      43.589   3.725  11.131  0.00  0.00    +0.000 A 
ATOM     17  C   UNL     1      43.134   4.552  12.166  0.00  0.00    +0.000 A 
ATOM     18  C   UNL     1      43.690   5.813  12.356  0.00  0.00    +0.000 A 
ATOM     19  C   UNL     1      44.697   6.261  11.500  0.00  0.00    +0.000 A 
ATOM     20  C   UNL     1      45.145   5.410  10.473  0.00  0.00    +0.000 A 
BRANCH  15  22
ATOM     21  C   UNL     1      45.644   3.871   8.024  0.00  0.00    +0.000 C 
ATOM     22  N   UNL     1      45.110   3.288   9.250  0.00  0.00    +0.000 N 
ATOM     23  C   UNL     1      44.566   1.936   9.146  0.00  0.00    +0.000 C 
ENDBRANCH  15  22
ENDBRANCH  14  19
ENDBRANCH  13  14
ENDBRANCH   1  13
TORSDOF 6
ENDMDL
MODEL 5
REMARK VINA RESULT:    -6.007      5.355      7.554
REMARK INTER + INTRA:          -8.848
REMARK INTER:                  -8.433
REMARK INTRA:                  -0.416
REMARK UNBOUND:                -0.734
REMARK  Name = 
REMARK  8 active torsions:
REMARK  status: ('A' for Active; 'I' for Inactive)
REMARK    1  A    between atoms: C_1  and  N_2
REMARK    2  A    between atoms: N_2  and  C_3
REMARK    3  A    between atoms: N_2  and  C_4
REMARK    4  A    between atoms: C_8  and  C_9
REMARK    5  A    between atoms: C_9  and  C_10
REMARK    6  A    between atoms: C_10  and  O_11
REMARK    7  A    between atoms: O_11  and  C_12
REMARK    8  A    between atoms: C_15  and  C_16
REMARK                            x       y       z     vdW  Elec       q    Type
REMARK                         _______ _______ _______ _____ _____    ______ ____
ROOT
ATOM      1  O   UNL     1      47.543   3.217  14.456  0.00  0.00    +0.000 OA
ENDROOT
BRANCH   1   2
ATOM      2  C   UNL     1      46.592   3.873  13.695  0.00  0.00    +0.000 A 
ATOM      3  C   UNL     1      46.565   5.258  13.750  0.00  0.00    +0.000 A 
ATOM      4  C   UNL     1      45.618   5.933  12.970  0.00  0.00    +0.000 A 
ATOM      5  C   UNL     1      44.733   5.207  12.163  0.00  0.00    +0.000 A 
ATOM      6  C   UNL     1      44.841   3.827  12.188  0.00  0.00    +0.000 A 
ATOM      7  N   UNL     1      45.745   3.147  12.932  0.00  0.00    +0.000 NA
BRANCH   5   8
ATOM      8  C   UNL     1      43.738   5.925  11.332  0.00  0.00    +0.000 C 
ATOM      9  N   UNL     1      43.754   7.293  11.304  0.00  0.00    +0.000 N 
ATOM     10  O   UNL     1      42.902   5.310  10.681  0.00  0.00    +0.000 OA
ATOM     11  H   UNL     1      44.382   7.894  11.816  0.00  0.00    +0.000 HD
ATOM     12  H   UNL     1      43.048   7.741  10.733  0.00  0.00    +0.000 HD
ENDBRANCH   5   8
ENDBRANCH   1   2
BRANCH   1  13
ATOM     13  C   UNL     1      47.532   3.672  15.817  0.00  0.00    +0.000 C 
BRANCH  13  14
ATOM     14  C   UNL     1      48.157   2.622  16.733  0.00  0.00    +0.000 C 
BRANCH  14  19
ATOM     15  C   UNL     1      51.847   2.789  17.805  0.00  0.00    +0.000 A 
ATOM     16  C   UNL     1      51.860   4.073  18.374  0.00  0.00    +0.000 A 
ATOM     17  C   UNL     1      50.717   4.882  18.406  0.00  0.00    +0.000 A 
ATOM     18  C   UNL     1      49.512   4.420  17.886  0.00  0.00    +0.000 A 
ATOM     19  C   UNL     1      49.440   3.136  17.344  0.00  0.00    +0.000 A 
ATOM     20  C   UNL     1      50.603   2.344  17.314  0.00  0.00    +0.000 A 
BRANCH  15  22
ATOM     21  C   UNL     1      52.861   0.530  17.774  0.00  0.00    +0.000 C 
ATOM     22  N   UNL     1      52.988   1.983  17.739  0.00  0.00    +0.000 N 
ATOM     23  C   UNL     1      54.250   2.539  18.220  0.00  0.00    +0.000 C 
ENDBRANCH  15  22
ENDBRANCH  14  19
ENDBRANCH  13  14
ENDBRANCH   1  13
TORSDOF 6
ENDMDL
MODEL 6
REMARK VINA RESULT:    -5.982      4.949      6.835
REMARK INTER + INTRA:          -8.814
REMARK INTER:                  -8.370
REMARK INTRA:                  -0.445
REMARK UNBOUND:                -0.734
REMARK  Name = 
REMARK  8 active torsions:
REMARK  status: ('A' for Active; 'I' for Inactive)
REMARK    1  A    between atoms: C_1  and  N_2
REMARK    2  A    between atoms: N_2  and  C_3
REMARK    3  A    between atoms: N_2  and  C_4
REMARK    4  A    between atoms: C_8  and  C_9
REMARK    5  A    between atoms: C_9  and  C_10
REMARK    6  A    between atoms: C_10  and  O_11
REMARK    7  A    between atoms: O_11  and  C_12
REMARK    8  A    between atoms: C_15  and  C_16
REMARK                            x       y       z     vdW  Elec       q    Type
REMARK                         _______ _______ _______ _____ _____    ______ ____
ROOT
ATOM      1  O   UNL     1      47.588   3.539  14.580  0.00  0.00    +0.000 OA
ENDROOT
BRANCH   1   2
ATOM      2  C   UNL     1      46.619   4.008  13.711  0.00  0.00    +0.000 A 
ATOM      3  C   UNL     1      46.410   5.377  13.656  0.00  0.00    +0.000 A 
ATOM      4  C   UNL     1      45.444   5.864  12.768  0.00  0.00    +0.000 A 
ATOM      5  C   UNL     1      44.721   4.972  11.965  0.00  0.00    +0.000 A 
ATOM      6  C   UNL     1      45.003   3.624  12.105  0.00  0.00    +0.000 A 
ATOM      7  N   UNL     1      45.931   3.124  12.956  0.00  0.00    +0.000 NA
BRANCH   5   8
ATOM      8  C   UNL     1      43.706   5.491  11.019  0.00  0.00    +0.000 C 
ATOM      9  N   UNL     1      43.215   6.756  11.195  0.00  0.00    +0.000 N 
ATOM     10  O   UNL     1      43.298   4.801  10.092  0.00  0.00    +0.000 OA
ATOM     11  H   UNL     1      43.464   7.397  11.932  0.00  0.00    +0.000 HD
ATOM     12  H   UNL     1      42.513   7.064  10.532  0.00  0.00    +0.000 HD
ENDBRANCH   5   8
ENDBRANCH   1   2
BRANCH   1  13
ATOM     13  C   UNL     1      47.354   3.990  15.922  0.00  0.00    +0.000 C 
BRANCH  13  14
ATOM     14  C   UNL     1      47.777   2.919  16.925  0.00  0.00    +0.000 C 
BRANCH  14  19
ATOM     15  C   UNL     1      51.029   4.403  18.343  0.00  0.00    +0.000 A 
ATOM     16  C   UNL     1      51.907   3.346  18.053  0.00  0.00    +0.000 A 
ATOM     17  C   UNL     1      51.471   2.171  17.427  0.00  0.00    +0.000 A 
ATOM     18  C   UNL     1      50.140   2.026  17.050  0.00  0.00    +0.000 A 
ATOM     19  C   UNL     1      49.238   3.064  17.284  0.00  0.00    +0.000 A 
ATOM     20  C   UNL     1      49.695   4.232  17.921  0.00  0.00    +0.000 A 
BRANCH  15  22
ATOM     21  C   UNL     1      50.489   6.639  19.261  0.00  0.00    +0.000 C 
ATOM     22  N   UNL     1      51.445   5.569  18.995  0.00  0.00    +0.000 N 
ATOM     23  C   UNL     1      52.846   5.963  18.872  0.00  0.00    +0.000 C 
ENDBRANCH  15  22
ENDBRANCH  14  19
ENDBRANCH  13  14
ENDBRANCH   1  13
TORSDOF 6
ENDMDL
MODEL 7
REMARK VINA RESULT:    -5.572      4.002      6.486
REMARK INTER + INTRA:          -8.260
REMARK INTER:                  -7.653
REMARK INTRA:                  -0.607
REMARK UNBOUND:                -0.734
REMARK  Name = 
REMARK  8 active torsions:
REMARK  status: ('A' for Active; 'I' for Inactive)
REMARK    1  A    between atoms: C_1  and  N_2
REMARK    2  A    between atoms: N_2  and  C_3
REMARK    3  A    between atoms: N_2  and  C_4
REMARK    4  A    between atoms: C_8  and  C_9
REMARK    5  A    between atoms: C_9  and  C_10
REMARK    6  A    between atoms: C_10  and  O_11
REMARK    7  A    between atoms: O_11  and  C_12
REMARK    8  A    between atoms: C_15  and  C_16
REMARK                            x       y       z     vdW  Elec       q    Type
REMARK                         _______ _______ _______ _____ _____    ______ ____
ROOT
ATOM      1  O   UNL     1      48.427   5.965  13.257  0.00  0.00    +0.000 OA
ENDROOT
BRANCH   1   2
ATOM      2  C   UNL     1      47.111   5.742  12.894  0.00  0.00    +0.000 A 
ATOM      3  C   UNL     1      46.629   6.404  11.776  0.00  0.00    +0.000 A 
ATOM      4  C   UNL     1      45.304   6.173  11.389  0.00  0.00    +0.000 A 
ATOM      5  C   UNL     1      44.506   5.290  12.128  0.00  0.00    +0.000 A 
ATOM      6  C   UNL     1      45.084   4.687  13.232  0.00  0.00    +0.000 A 
ATOM      7  N   UNL     1      46.362   4.892  13.630  0.00  0.00    +0.000 NA
BRANCH   5   8
ATOM      8  C   UNL     1      43.106   5.039  11.711  0.00  0.00    +0.000 C 
ATOM      9  N   UNL     1      42.206   6.069  11.744  0.00  0.00    +0.000 N 
ATOM     10  O   UNL     1      42.747   3.925  11.348  0.00  0.00    +0.000 OA
ATOM     11  H   UNL     1      42.388   7.014  12.044  0.00  0.00    +0.000 HD
ATOM     12  H   UNL     1      41.258   5.848  11.462  0.00  0.00    +0.000 HD
ENDBRANCH   5   8
ENDBRANCH   1   2
BRANCH   1  13
ATOM     13  C   UNL     1      48.711   7.367  13.371  0.00  0.00    +0.000 C 
BRANCH  13  14
ATOM     14  C   UNL     1      48.553   7.826  14.820  0.00  0.00    +0.000 C 
BRANCH  14  19
ATOM     15  C   UNL     1      49.438   5.087  17.371  0.00  0.00    +0.000 A 
ATOM     16  C   UNL     1      50.831   5.263  17.418  0.00  0.00    +0.000 A 
ATOM     17  C   UNL     1      51.484   6.229  16.641  0.00  0.00    +0.000 A 
ATOM     18  C   UNL     1      50.756   7.069  15.804  0.00  0.00    +0.000 A 
ATOM     19  C   UNL     1      49.366   6.957  15.751  0.00  0.00    +0.000 A 
ATOM     20  C   UNL     1      48.732   5.974  16.533  0.00  0.00    +0.000 A 
BRANCH  15  22
ATOM     21  C   UNL     1      47.732   3.298  17.500  0.00  0.00    +0.000 C 
ATOM     22  N   UNL     1      48.778   4.107  18.117  0.00  0.00    +0.000 N 
ATOM     23  C   UNL     1      48.694   4.285  19.565  0.00  0.00    +0.000 C 
ENDBRANCH  15  22
ENDBRANCH  14  19
ENDBRANCH  13  14
ENDBRANCH   1  13
TORSDOF 6
ENDMDL
MODEL 8
REMARK VINA RESULT:    -5.546      1.521      2.301
REMARK INTER + INTRA:          -8.224
REMARK INTER:                  -7.690
REMARK INTRA:                  -0.535
REMARK UNBOUND:                -0.734
REMARK  Name = 
REMARK  8 active torsions:
REMARK  status: ('A' for Active; 'I' for Inactive)
REMARK    1  A    between atoms: C_1  and  N_2
REMARK    2  A    between atoms: N_2  and  C_3
REMARK    3  A    between atoms: N_2  and  C_4
REMARK    4  A    between atoms: C_8  and  C_9
REMARK    5  A    between atoms: C_9  and  C_10
REMARK    6  A    between atoms: C_10  and  O_11
REMARK    7  A    between atoms: O_11  and  C_12
REMARK    8  A    between atoms: C_15  and  C_16
REMARK                            x       y       z     vdW  Elec       q    Type
REMARK                         _______ _______ _______ _____ _____    ______ ____
ROOT
ATOM      1  O   UNL     1      44.532   5.116  10.526  0.00  0.00    +0.000 OA
ENDROOT
BRANCH   1   2
ATOM      2  C   UNL     1      45.165   4.385   9.537  0.00  0.00    +0.000 A 
ATOM      3  C   UNL     1      45.003   3.009   9.549  0.00  0.00    +0.000 A 
ATOM      4  C   UNL     1      45.625   2.260   8.543  0.00  0.00    +0.000 A 
ATOM      5  C   UNL     1      46.385   2.907   7.560  0.00  0.00    +0.000 A 
ATOM      6  C   UNL     1      46.489   4.285   7.647  0.00  0.00    +0.000 A 
ATOM      7  N   UNL     1      45.900   5.035   8.608  0.00  0.00    +0.000 NA
BRANCH   5   8
ATOM      8  C   UNL     1      47.035   2.113   6.491  0.00  0.00    +0.000 C 
ATOM      9  N   UNL     1      47.393   2.732   5.324  0.00  0.00    +0.000 N 
ATOM     10  O   UNL     1      47.245   0.915   6.637  0.00  0.00    +0.000 OA
ATOM     11  H   UNL     1      47.248   3.702   5.093  0.00  0.00    +0.000 HD
ATOM     12  H   UNL     1      47.822   2.147   4.617  0.00  0.00    +0.000 HD
ENDBRANCH   5   8
ENDBRANCH   1   2
BRANCH   1  13
ATOM     13  C   UNL     1      45.244   5.046  11.770  0.00  0.00    +0.000 C 
BRANCH  13  14
ATOM     14  C   UNL     1      45.143   6.374  12.517  0.00  0.00    +0.000 C 
BRANCH  14  19
ATOM     15  C   UNL     1      48.033   8.680  13.575  0.00  0.00    +0.000 A 
ATOM     16  C   UNL     1      48.917   8.439  12.510  0.00  0.00    +0.000 A 
ATOM     17  C   UNL     1      48.606   7.547  11.475  0.00  0.00    +0.000 A 
ATOM     18  C   UNL     1      47.385   6.880  11.463  0.00  0.00    +0.000 A 
ATOM     19  C   UNL     1      46.459   7.115  12.480  0.00  0.00    +0.000 A 
ATOM     20  C   UNL     1      46.795   8.009  13.514  0.00  0.00    +0.000 A 
BRANCH  15  22
ATOM     21  C   UNL     1      49.279  10.645  14.423  0.00  0.00    +0.000 C 
ATOM     22  N   UNL     1      48.343   9.544  14.629  0.00  0.00    +0.000 N 
ATOM     23  C   UNL     1      48.229   9.033  15.993  0.00  0.00    +0.000 C 
ENDBRANCH  15  22
ENDBRANCH  14  19
ENDBRANCH  13  14
ENDBRANCH   1  13
TORSDOF 6
ENDMDL
MODEL 9
REMARK VINA RESULT:    -5.389      3.766      5.673
REMARK INTER + INTRA:          -8.012
REMARK INTER:                  -7.145
REMARK INTRA:                  -0.867
REMARK UNBOUND:                -0.734
REMARK  Name = 
REMARK  8 active torsions:
REMARK  status: ('A' for Active; 'I' for Inactive)
REMARK    1  A    between atoms: C_1  and  N_2
REMARK    2  A    between atoms: N_2  and  C_3
REMARK    3  A    between atoms: N_2  and  C_4
REMARK    4  A    between atoms: C_8  and  C_9
REMARK    5  A    between atoms: C_9  and  C_10
REMARK    6  A    between atoms: C_10  and  O_11
REMARK    7  A    between atoms: O_11  and  C_12
REMARK    8  A    between atoms: C_15  and  C_16
REMARK                            x       y       z     vdW  Elec       q    Type
REMARK                         _______ _______ _______ _____ _____    ______ ____
ROOT
ATOM      1  O   UNL     1      48.413   6.121  13.126  0.00  0.00    +0.000 OA
ENDROOT
BRANCH   1   2
ATOM      2  C   UNL     1      47.097   5.868  12.782  0.00  0.00    +0.000 A 
ATOM      3  C   UNL     1      46.629   6.398  11.590  0.00  0.00    +0.000 A 
ATOM      4  C   UNL     1      45.303   6.134  11.224  0.00  0.00    +0.000 A 
ATOM      5  C   UNL     1      44.492   5.352  12.056  0.00  0.00    +0.000 A 
ATOM      6  C   UNL     1      45.057   4.879  13.228  0.00  0.00    +0.000 A 
ATOM      7  N   UNL     1      46.335   5.118  13.608  0.00  0.00    +0.000 NA
BRANCH   5   8
ATOM      8  C   UNL     1      43.093   5.067  11.661  0.00  0.00    +0.000 C 
ATOM      9  N   UNL     1      42.163   6.069  11.726  0.00  0.00    +0.000 N 
ATOM     10  O   UNL     1      42.760   3.948  11.288  0.00  0.00    +0.000 OA
ATOM     11  H   UNL     1      42.324   7.015  12.037  0.00  0.00    +0.000 HD
ATOM     12  H   UNL     1      41.217   5.824  11.459  0.00  0.00    +0.000 HD
ENDBRANCH   5   8
ENDBRANCH   1   2
BRANCH   1  13
ATOM     13  C   UNL     1      48.503   6.860  14.353  0.00  0.00    +0.000 C 
BRANCH  13  14
ATOM     14  C   UNL     1      49.512   7.998  14.215  0.00  0.00    +0.000 C 
BRANCH  14  19
ATOM     15  C   UNL     1      47.408  10.391  12.061  0.00  0.00    +0.000 A 
ATOM     16  C   UNL     1      48.371  10.737  11.099  0.00  0.00    +0.000 A 
ATOM     17  C   UNL     1      49.676  10.228  11.139  0.00  0.00    +0.000 A 
ATOM     18  C   UNL     1      50.053   9.335  12.137  0.00  0.00    +0.000 A 
ATOM     19  C   UNL     1      49.121   8.933  13.094  0.00  0.00    +0.000 A 
ATOM     20  C   UNL     1      47.818   9.463  13.040  0.00  0.00    +0.000 A 
BRANCH  15  22
ATOM     21  C   UNL     1      44.961  10.020  11.991  0.00  0.00    +0.000 C 
ATOM     22  N   UNL     1      46.112  10.915  12.051  0.00  0.00    +0.000 N 
ATOM     23  C   UNL     1      45.919  12.262  11.517  0.00  0.00    +0.000 C 
ENDBRANCH  15  22
ENDBRANCH  14  19
ENDBRANCH  13  14
ENDBRANCH   1  13
TORSDOF 6
ENDMDL
