MODEL 1
REMARK VINA RESULT:    -7.269      0.000      0.000
REMARK INTER + INTRA:         -10.155
REMARK INTER:                  -9.394
REMARK INTRA:                  -0.761
REMARK UNBOUND:                -0.761
REMARK  Name = 
REMARK  5 active torsions:
REMARK  status: ('A' for Active; 'I' for Inactive)
REMARK    1  A    between atoms: C_2  and  C_5
REMARK    2  A    between atoms: C_7  and  S_8
REMARK    3  A    between atoms: S_8  and  C_9
REMARK    4  A    between atoms: C_9  and  C_10
REMARK    5  A    between atoms: C_14  and  C_15
REMARK                            x       y       z     vdW  Elec       q    Type
REMARK                         _______ _______ _______ _____ _____    ______ ____
ROOT
ATOM      1  C   UNL     1      43.727   4.609  11.759  0.00  0.00    +0.000 C 
ENDROOT
BRANCH   1   2
ATOM      2  C   UNL     1      45.027   5.015  12.429  0.00  0.00    +0.000 A 
ATOM      3  C   UNL     1      45.736   4.156  13.278  0.00  0.00    +0.000 A 
ATOM      4  C   UNL     1      46.938   4.556  13.854  0.00  0.00    +0.000 A 
ATOM      5  C   UNL     1      47.476   5.804  13.549  0.00  0.00    +0.000 A 
ATOM      6  C   UNL     1      46.842   6.677  12.649  0.00  0.00    +0.000 A 
ATOM      7  C   UNL     1      45.603   6.262  12.113  0.00  0.00    +0.000 A 
BRANCH   6   8
ATOM      8  C   UNL     1      47.478   7.947  12.246  0.00  0.00    +0.000 A 
ATOM      9  C   UNL     1      48.781   8.020  11.735  0.00  0.00    +0.000 A 
ATOM     10  C   UNL     1      49.347   9.252  11.399  0.00  0.00    +0.000 A 
ATOM     11  C   UNL     1      48.587  10.397  11.573  0.00  0.00    +0.000 A 
ATOM     12  N   UNL     1      47.329  10.386  12.054  0.00  0.00    +0.000 NA
ATOM     13  C   UNL     1      46.816   9.174  12.378  0.00  0.00    +0.000 A 
ENDBRANCH   6   8
ENDBRANCH   1   2
BRANCH   1  14
ATOM     14  S   UNL     1      43.744   2.921  11.055  0.00  0.00    +0.000 S 
BRANCH  14  17
ATOM     15  C   UNL     1      46.264   2.221   7.893  0.00  0.00    +0.000 A 
ATOM     16  C   UNL     1      45.429   1.974   8.988  0.00  0.00    +0.000 A 
ATOM     17  C   UNL     1      44.784   3.042   9.610  0.00  0.00    +0.000 A 
ATOM     18  C   UNL     1      44.977   4.326   9.100  0.00  0.00    +0.000 A 
ATOM     19  C   UNL     1      45.809   4.494   8.010  0.00  0.00    +0.000 A 
ATOM     20  N   UNL     1      46.455   3.479   7.403  0.00  0.00    +0.000 NA
BRANCH  15  22
ATOM     21  F   UNL     1      48.367   1.183   7.325  0.00  0.00    +0.000 F 
ATOM     22  C   UNL     1      47.007   1.064   7.237  0.00  0.00    +0.000 C 
ATOM     23  F   UNL     1      46.744   0.947   5.903  0.00  0.00    +0.000 F 
ATOM     24  F   UNL     1      46.714  -0.147   7.790  0.00  0.00    +0.000 F 
ENDBRANCH  15  22
ENDBRANCH  14  17
ENDBRANCH   1  14
TORSDOF 5
ENDMDL
MODEL 2
REMARK VINA RESULT:    -7.069      1.621      2.190
REMARK INTER + INTRA:          -9.896
REMARK INTER:                  -8.793
REMARK INTRA:                  -1.102
REMARK UNBOUND:                -0.761
REMARK  Name = 
REMARK  5 active torsions:
REMARK  status: ('A' for Active; 'I' for Inactive)
REMARK    1  A    between atoms: C_2  and  C_5
REMARK    2  A    between atoms: C_7  and  S_8
REMARK    3  A    between atoms: S_8  and  C_9
REMARK    4  A    between atoms: C_9  and  C_10
REMARK    5  A    between atoms: C_14  and  C_15
REMARK                            x       y       z     vdW  Elec       q    Type
REMARK                         _______ _______ _______ _____ _____    ______ ____
ROOT
ATOM      1  C   UNL     1      43.565   5.624  12.770  0.00  0.00    +0.000 C 
ENDROOT
BRANCH   1   2
ATOM      2  C   UNL     1      45.052   5.688  13.069  0.00  0.00    +0.000 A 
ATOM      3  C   UNL     1      45.748   4.623  13.654  0.00  0.00    +0.000 A 
ATOM      4  C   UNL     1      47.117   4.711  13.890  0.00  0.00    +0.000 A 
ATOM      5  C   UNL     1      47.821   5.847  13.496  0.00  0.00    +0.000 A 
ATOM      6  C   UNL     1      47.185   6.914  12.841  0.00  0.00    +0.000 A 
ATOM      7  C   UNL     1      45.789   6.816  12.653  0.00  0.00    +0.000 A 
BRANCH   6   8
ATOM      8  C   UNL     1      47.960   8.061  12.326  0.00  0.00    +0.000 A 
ATOM      9  C   UNL     1      47.434   9.357  12.233  0.00  0.00    +0.000 A 
ATOM     10  C   UNL     1      48.200  10.400  11.709  0.00  0.00    +0.000 A 
ATOM     11  C   UNL     1      49.492  10.127  11.294  0.00  0.00    +0.000 A 
ATOM     12  N   UNL     1      50.051   8.904  11.367  0.00  0.00    +0.000 NA
ATOM     13  C   UNL     1      49.276   7.913  11.871  0.00  0.00    +0.000 A 
ENDBRANCH   6   8
ENDBRANCH   1   2
BRANCH   1  14
ATOM     14  S   UNL     1      43.154   5.743  10.992  0.00  0.00    +0.000 S 
BRANCH  14  17
ATOM     15  C   UNL     1      45.504   3.340   8.639  0.00  0.00    +0.000 A 
ATOM     16  C   UNL     1      44.934   4.497   9.179  0.00  0.00    +0.000 A 
ATOM     17  C   UNL     1      44.027   4.386  10.231  0.00  0.00    +0.000 A 
ATOM     18  C   UNL     1      43.735   3.115  10.728  0.00  0.00    +0.000 A 
ATOM     19  C   UNL     1      44.342   2.016  10.151  0.00  0.00    +0.000 A 
ATOM     20  N   UNL     1      45.209   2.099   9.124  0.00  0.00    +0.000 NA
BRANCH  15  22
ATOM     21  F   UNL     1      47.435   2.490   7.467  0.00  0.00    +0.000 F 
ATOM     22  C   UNL     1      46.462   3.452   7.459  0.00  0.00    +0.000 C 
ATOM     23  F   UNL     1      47.133   4.639   7.426  0.00  0.00    +0.000 F 
ATOM     24  F   UNL     1      45.844   3.331   6.250  0.00  0.00    +0.000 F 
ENDBRANCH  15  22
ENDBRANCH  14  17
ENDBRANCH   1  14
TORSDOF 5
ENDMDL
MODEL 3
REMARK VINA RESULT:    -7.014      4.118      7.291
REMARK INTER + INTRA:          -9.825
REMARK INTER:                  -9.038
REMARK INTRA:                  -0.787
REMARK UNBOUND:                -0.761
REMARK  Name = 
REMARK  5 active torsions:
REMARK  status: ('A' for Active; 'I' for Inactive)
REMARK    1  A    between atoms: C_2  and  C_5
REMARK    2  A    between atoms: C_7  and  S_8
REMARK    3  A    between atoms: S_8  and  C_9
REMARK    4  A    between atoms: C_9  and  C_10
REMARK    5  A    between atoms: C_14  and  C_15
REMARK                            x       y       z     vdW  Elec       q    Type
REMARK                         _______ _______ _______ _____ _____    ______ ____
ROOT
ATOM      1  C   UNL     1      45.041   6.461  12.901  0.00  0.00    +0.000 C 
ENDROOT
BRANCH   1   2
ATOM      2  C   UNL     1      44.631   5.164  12.227  0.00  0.00    +0.000 A 
ATOM      3  C   UNL     1      43.565   4.381  12.689  0.00  0.00    +0.000 A 
ATOM      4  C   UNL     1      43.205   3.209  12.029  0.00  0.00    +0.000 A 
ATOM      5  C   UNL     1      43.872   2.830  10.866  0.00  0.00    +0.000 A 
ATOM      6  C   UNL     1      44.900   3.616  10.321  0.00  0.00    +0.000 A 
ATOM      7  C   UNL     1      45.274   4.776  11.034  0.00  0.00    +0.000 A 
BRANCH   6   8
ATOM      8  C   UNL     1      45.522   3.264   9.028  0.00  0.00    +0.000 A 
ATOM      9  C   UNL     1      45.870   1.952   8.681  0.00  0.00    +0.000 A 
ATOM     10  C   UNL     1      46.485   1.678   7.458  0.00  0.00    +0.000 A 
ATOM     11  C   UNL     1      46.734   2.731   6.593  0.00  0.00    +0.000 A 
ATOM     12  N   UNL     1      46.416   4.009   6.871  0.00  0.00    +0.000 NA
ATOM     13  C   UNL     1      45.829   4.239   8.071  0.00  0.00    +0.000 A 
ENDBRANCH   6   8
ENDBRANCH   1   2
BRANCH   1  14
ATOM     14  S   UNL     1      46.770   6.959  12.575  0.00  0.00    +0.000 S 
BRANCH  14  17
ATOM     15  C   UNL     1      48.182   4.919  15.843  0.00  0.00    +0.000 A 
ATOM     16  C   UNL     1      47.419   5.219  14.710  0.00  0.00    +0.000 A 
ATOM     17  C   UNL     1      47.684   6.385  13.996  0.00  0.00    +0.000 A 
ATOM     18  C   UNL     1      48.727   7.207  14.426  0.00  0.00    +0.000 A 
ATOM     19  C   UNL     1      49.445   6.844  15.549  0.00  0.00    +0.000 A 
ATOM     20  N   UNL     1      49.195   5.730  16.263  0.00  0.00    +0.000 NA
BRANCH  15  22
ATOM     21  F   UNL     1      48.570   3.600  17.826  0.00  0.00    +0.000 F 
ATOM     22  C   UNL     1      47.867   3.668  16.655  0.00  0.00    +0.000 C 
ATOM     23  F   UNL     1      48.163   2.513  15.992  0.00  0.00    +0.000 F 
ATOM     24  F   UNL     1      46.556   3.576  17.014  0.00  0.00    +0.000 F 
ENDBRANCH  15  22
ENDBRANCH  14  17
ENDBRANCH   1  14
TORSDOF 5
ENDMDL
MODEL 4
REMARK VINA RESULT:    -7.002      2.136      3.775
REMARK INTER + INTRA:          -9.809
REMARK INTER:                  -9.357
REMARK INTRA:                  -0.452
REMARK UNBOUND:                -0.761
REMARK  Name = 
REMARK  5 active torsions:
REMARK  status: ('A' for Active; 'I' for Inactive)
REMARK    1  A    between atoms: C_2  and  C_5
REMARK    2  A    between atoms: C_7  and  S_8
REMARK    3  A    between atoms: S_8  and  C_9
REMARK    4  A    between atoms: C_9  and  C_10
REMARK    5  A    between atoms: C_14  and  C_15
REMARK                            x       y       z     vdW  Elec       q    Type
REMARK                         _______ _______ _______ _____ _____    ______ ____
ROOT
ATOM      1  C   UNL     1      43.951   4.883  11.862  0.00  0.00    +0.000 C 
ENDROOT
BRANCH   1   2
ATOM      2  C   UNL     1      45.302   5.372  12.355  0.00  0.00    +0.000 A 
ATOM      3  C   UNL     1      45.995   6.418  11.734  0.00  0.00    +0.000 A 
ATOM      4  C   UNL     1      47.220   6.855  12.231  0.00  0.00    +0.000 A 
ATOM      5  C   UNL     1      47.746   6.285  13.388  0.00  0.00    +0.000 A 
ATOM      6  C   UNL     1      47.058   5.281  14.090  0.00  0.00    +0.000 A 
ATOM      7  C   UNL     1      45.839   4.828  13.540  0.00  0.00    +0.000 A 
BRANCH   6   8
ATOM      8  C   UNL     1      47.569   4.765  15.376  0.00  0.00    +0.000 A 
ATOM      9  C   UNL     1      47.273   3.482  15.856  0.00  0.00    +0.000 A 
ATOM     10  C   UNL     1      47.757   3.055  17.094  0.00  0.00    +0.000 A 
ATOM     11  C   UNL     1      48.544   3.924  17.831  0.00  0.00    +0.000 A 
ATOM     12  N   UNL     1      48.866   5.165  17.417  0.00  0.00    +0.000 NA
ATOM     13  C   UNL     1      48.371   5.549  16.215  0.00  0.00    +0.000 A 
ENDBRANCH   6   8
ENDBRANCH   1   2
BRANCH   1  14
ATOM     14  S   UNL     1      43.961   3.163  11.241  0.00  0.00    +0.000 S 
BRANCH  14  17
ATOM     15  C   UNL     1      46.247   2.347   7.932  0.00  0.00    +0.000 A 
ATOM     16  C   UNL     1      45.487   2.140   9.088  0.00  0.00    +0.000 A 
ATOM     17  C   UNL     1      44.901   3.232   9.726  0.00  0.00    +0.000 A 
ATOM     18  C   UNL     1      45.076   4.500   9.170  0.00  0.00    +0.000 A 
ATOM     19  C   UNL     1      45.833   4.629   8.022  0.00  0.00    +0.000 A 
ATOM     20  N   UNL     1      46.421   3.590   7.398  0.00  0.00    +0.000 NA
BRANCH  15  22
ATOM     21  F   UNL     1      46.584  -0.040   7.811  0.00  0.00    +0.000 F 
ATOM     22  C   UNL     1      46.927   1.162   7.256  0.00  0.00    +0.000 C 
ATOM     23  F   UNL     1      48.288   1.215   7.329  0.00  0.00    +0.000 F 
ATOM     24  F   UNL     1      46.621   1.050   5.932  0.00  0.00    +0.000 F 
ENDBRANCH  15  22
ENDBRANCH  14  17
ENDBRANCH   1  14
TORSDOF 5
ENDMDL
MODEL 5
REMARK VINA RESULT:    -6.887      3.259      5.066
REMARK INTER + INTRA:          -9.661
REMARK INTER:                  -8.905
REMARK INTRA:                  -0.756
REMARK UNBOUND:                -0.761
REMARK  Name = 
REMARK  5 active torsions:
REMARK  status: ('A' for Active; 'I' for Inactive)
REMARK    1  A    between atoms: C_2  and  C_5
REMARK    2  A    between atoms: C_7  and  S_8
REMARK    3  A    between atoms: S_8  and  C_9
REMARK    4  A    between atoms: C_9  and  C_10
REMARK    5  A    between atoms: C_14  and  C_15
REMARK                            x       y       z     vdW  Elec       q    Type
REMARK                         _______ _______ _______ _____ _____    ______ ____
ROOT
ATOM      1  C   UNL     1      46.997   6.913  11.681  0.00  0.00    +0.000 C 
ENDROOT
BRANCH   1   2
ATOM      2  C   UNL     1      47.813   7.028  12.957  0.00  0.00    +0.000 A 
ATOM      3  C   UNL     1      48.605   8.147  13.243  0.00  0.00    +0.000 A 
ATOM      4  C   UNL     1      49.320   8.226  14.435  0.00  0.00    +0.000 A 
ATOM      5  C   UNL     1      49.213   7.209  15.381  0.00  0.00    +0.000 A 
ATOM      6  C   UNL     1      48.378   6.099  15.175  0.00  0.00    +0.000 A 
ATOM      7  C   UNL     1      47.698   6.024  13.940  0.00  0.00    +0.000 A 
BRANCH   6   8
ATOM      8  C   UNL     1      48.184   5.086  16.232  0.00  0.00    +0.000 A 
ATOM      9  C   UNL     1      49.077   4.917  17.299  0.00  0.00    +0.000 A 
ATOM     10  C   UNL     1      48.864   3.922  18.255  0.00  0.00    +0.000 A 
ATOM     11  C   UNL     1      47.746   3.114  18.129  0.00  0.00    +0.000 A 
ATOM     12  N   UNL     1      46.852   3.235  17.129  0.00  0.00    +0.000 NA
ATOM     13  C   UNL     1      47.096   4.205  16.214  0.00  0.00    +0.000 A 
ENDBRANCH   6   8
ENDBRANCH   1   2
BRANCH   1  14
ATOM     14  S   UNL     1      45.188   6.970  11.945  0.00  0.00    +0.000 S 
BRANCH  14  17
ATOM     15  C   UNL     1      44.426   3.325  10.223  0.00  0.00    +0.000 A 
ATOM     16  C   UNL     1      44.997   4.583  10.436  0.00  0.00    +0.000 A 
ATOM     17  C   UNL     1      44.619   5.325  11.554  0.00  0.00    +0.000 A 
ATOM     18  C   UNL     1      43.694   4.770  12.440  0.00  0.00    +0.000 A 
ATOM     19  C   UNL     1      43.178   3.518  12.171  0.00  0.00    +0.000 A 
ATOM     20  N   UNL     1      43.517   2.790  11.089  0.00  0.00    +0.000 NA
BRANCH  15  22
ATOM     21  F   UNL     1      44.298   1.257   8.986  0.00  0.00    +0.000 F 
ATOM     22  C   UNL     1      44.802   2.528   8.979  0.00  0.00    +0.000 C 
ATOM     23  F   UNL     1      46.149   2.378   8.827  0.00  0.00    +0.000 F 
ATOM     24  F   UNL     1      44.349   3.090   7.823  0.00  0.00    +0.000 F 
ENDBRANCH  15  22
ENDBRANCH  14  17
ENDBRANCH   1  14
TORSDOF 5
ENDMDL
MODEL 6
REMARK VINA RESULT:    -6.881      1.749      2.456
REMARK INTER + INTRA:          -9.653
REMARK INTER:                  -8.927
REMARK INTRA:                  -0.726
REMARK UNBOUND:                -0.761
REMARK  Name = 
REMARK  5 active torsions:
REMARK  status: ('A' for Active; 'I' for Inactive)
REMARK    1  A    between atoms: C_2  and  C_5
REMARK    2  A    between atoms: C_7  and  S_8
REMARK    3  A    between atoms: S_8  and  C_9
REMARK    4  A    between atoms: C_9  and  C_10
REMARK    5  A    between atoms: C_14  and  C_15
REMARK                            x       y       z     vdW  Elec       q    Type
REMARK                         _______ _______ _______ _____ _____    ______ ____
ROOT
ATOM      1  C   UNL     1      45.159   3.443  12.496  0.00  0.00    +0.000 C 
ENDROOT
BRANCH   1   2
ATOM      2  C   UNL     1      45.564   4.896  12.669  0.00  0.00    +0.000 A 
ATOM      3  C   UNL     1      44.702   5.957  12.365  0.00  0.00    +0.000 A 
ATOM      4  C   UNL     1      45.102   7.277  12.559  0.00  0.00    +0.000 A 
ATOM      5  C   UNL     1      46.351   7.553  13.110  0.00  0.00    +0.000 A 
ATOM      6  C   UNL     1      47.226   6.524  13.498  0.00  0.00    +0.000 A 
ATOM      7  C   UNL     1      46.812   5.197  13.250  0.00  0.00    +0.000 A 
BRANCH   6   8
ATOM      8  C   UNL     1      48.498   6.827  14.185  0.00  0.00    +0.000 A 
ATOM      9  C   UNL     1      48.757   6.453  15.510  0.00  0.00    +0.000 A 
ATOM     10  C   UNL     1      49.966   6.792  16.123  0.00  0.00    +0.000 A 
ATOM     11  C   UNL     1      50.904   7.497  15.387  0.00  0.00    +0.000 A 
ATOM     12  N   UNL     1      50.712   7.876  14.109  0.00  0.00    +0.000 NA
ATOM     13  C   UNL     1      49.524   7.538  13.550  0.00  0.00    +0.000 A 
ENDBRANCH   6   8
ENDBRANCH   1   2
BRANCH   1  14
ATOM     14  S   UNL     1      43.958   3.157  11.147  0.00  0.00    +0.000 S 
BRANCH  14  17
ATOM     15  C   UNL     1      46.296   2.314   7.883  0.00  0.00    +0.000 A 
ATOM     16  C   UNL     1      45.508   2.115   9.021  0.00  0.00    +0.000 A 
ATOM     17  C   UNL     1      44.930   3.215   9.653  0.00  0.00    +0.000 A 
ATOM     18  C   UNL     1      45.142   4.482   9.109  0.00  0.00    +0.000 A 
ATOM     19  C   UNL     1      45.925   4.603   7.977  0.00  0.00    +0.000 A 
ATOM     20  N   UNL     1      46.506   3.556   7.360  0.00  0.00    +0.000 NA
BRANCH  15  22
ATOM     21  F   UNL     1      48.329   1.130   7.343  0.00  0.00    +0.000 F 
ATOM     22  C   UNL     1      46.968   1.120   7.214  0.00  0.00    +0.000 C 
ATOM     23  F   UNL     1      46.736   1.060   5.871  0.00  0.00    +0.000 F 
ATOM     24  F   UNL     1      46.565  -0.079   7.723  0.00  0.00    +0.000 F 
ENDBRANCH  15  22
ENDBRANCH  14  17
ENDBRANCH   1  14
TORSDOF 5
ENDMDL
MODEL 7
REMARK VINA RESULT:    -6.745      4.968      7.882
REMARK INTER + INTRA:          -9.477
REMARK INTER:                  -8.508
REMARK INTRA:                  -0.970
REMARK UNBOUND:                -0.761
REMARK  Name = 
REMARK  5 active torsions:
REMARK  status: ('A' for Active; 'I' for Inactive)
REMARK    1  A    between atoms: C_2  and  C_5
REMARK    2  A    between atoms: C_7  and  S_8
REMARK    3  A    between atoms: S_8  and  C_9
REMARK    4  A    between atoms: C_9  and  C_10
REMARK    5  A    between atoms: C_14  and  C_15
REMARK                            x       y       z     vdW  Elec       q    Type
REMARK                         _______ _______ _______ _____ _____    ______ ____
ROOT
ATOM      1  C   UNL     1      49.202   7.309  13.993  0.00  0.00    +0.000 C 
ENDROOT
BRANCH   1   2
ATOM      2  C   UNL     1      47.768   7.458  13.514  0.00  0.00    +0.000 A 
ATOM      3  C   UNL     1      47.166   8.708  13.323  0.00  0.00    +0.000 A 
ATOM      4  C   UNL     1      45.856   8.804  12.860  0.00  0.00    +0.000 A 
ATOM      5  C   UNL     1      45.147   7.651  12.531  0.00  0.00    +0.000 A 
ATOM      6  C   UNL     1      45.729   6.376  12.636  0.00  0.00    +0.000 A 
ATOM      7  C   UNL     1      47.042   6.306  13.149  0.00  0.00    +0.000 A 
BRANCH   6   8
ATOM      8  C   UNL     1      45.008   5.172  12.177  0.00  0.00    +0.000 A 
ATOM      9  C   UNL     1      44.900   4.815  10.826  0.00  0.00    +0.000 A 
ATOM     10  C   UNL     1      44.179   3.682  10.443  0.00  0.00    +0.000 A 
ATOM     11  C   UNL     1      43.583   2.914  11.430  0.00  0.00    +0.000 A 
ATOM     12  N   UNL     1      43.659   3.205  12.743  0.00  0.00    +0.000 NA
ATOM     13  C   UNL     1      44.359   4.317  13.077  0.00  0.00    +0.000 A 
ENDBRANCH   6   8
ENDBRANCH   1   2
BRANCH   1  14
ATOM     14  S   UNL     1      49.499   7.961  15.675  0.00  0.00    +0.000 S 
BRANCH  14  17
ATOM     15  C   UNL     1      48.099   4.511  17.398  0.00  0.00    +0.000 A 
ATOM     16  C   UNL     1      48.691   5.366  16.463  0.00  0.00    +0.000 A 
ATOM     17  C   UNL     1      48.835   6.718  16.769  0.00  0.00    +0.000 A 
ATOM     18  C   UNL     1      48.401   7.169  18.016  0.00  0.00    +0.000 A 
ATOM     19  C   UNL     1      47.833   6.266  18.894  0.00  0.00    +0.000 A 
ATOM     20  N   UNL     1      47.670   4.958  18.613  0.00  0.00    +0.000 NA
BRANCH  15  22
ATOM     21  F   UNL     1      48.982   2.265  17.361  0.00  0.00    +0.000 F 
ATOM     22  C   UNL     1      47.898   3.040  17.052  0.00  0.00    +0.000 C 
ATOM     23  F   UNL     1      47.675   2.830  15.722  0.00  0.00    +0.000 F 
ATOM     24  F   UNL     1      46.848   2.471  17.708  0.00  0.00    +0.000 F 
ENDBRANCH  15  22
ENDBRANCH  14  17
ENDBRANCH   1  14
TORSDOF 5
ENDMDL
MODEL 8
REMARK VINA RESULT:    -6.421      2.712      4.095
REMARK INTER + INTRA:          -9.058
REMARK INTER:                  -8.403
REMARK INTRA:                  -0.655
REMARK UNBOUND:                -0.761
REMARK  Name = 
REMARK  5 active torsions:
REMARK  status: ('A' for Active; 'I' for Inactive)
REMARK    1  A    between atoms: C_2  and  C_5
REMARK    2  A    between atoms: C_7  and  S_8
REMARK    3  A    between atoms: S_8  and  C_9
REMARK    4  A    between atoms: C_9  and  C_10
REMARK    5  A    between atoms: C_14  and  C_15
REMARK                            x       y       z     vdW  Elec       q    Type
REMARK                         _______ _______ _______ _____ _____    ______ ____
ROOT
ATOM      1  C   UNL     1      46.640   6.224  13.237  0.00  0.00    +0.000 C 
ENDROOT
BRANCH   1   2
ATOM      2  C   UNL     1      47.409   7.406  12.674  0.00  0.00    +0.000 A 
ATOM      3  C   UNL     1      46.869   8.697  12.623  0.00  0.00    +0.000 A 
ATOM      4  C   UNL     1      47.614   9.761  12.122  0.00  0.00    +0.000 A 
ATOM      5  C   UNL     1      48.930   9.558  11.712  0.00  0.00    +0.000 A 
ATOM      6  C   UNL     1      49.543   8.298  11.809  0.00  0.00    +0.000 A 
ATOM      7  C   UNL     1      48.751   7.229  12.281  0.00  0.00    +0.000 A 
BRANCH   6   8
ATOM      8  C   UNL     1      50.972   8.121  11.479  0.00  0.00    +0.000 A 
ATOM      9  C   UNL     1      51.415   7.346  10.399  0.00  0.00    +0.000 A 
ATOM     10  C   UNL     1      52.779   7.184  10.149  0.00  0.00    +0.000 A 
ATOM     11  C   UNL     1      53.683   7.815  10.988  0.00  0.00    +0.000 A 
ATOM     12  N   UNL     1      53.314   8.577  12.036  0.00  0.00    +0.000 NA
ATOM     13  C   UNL     1      51.982   8.703  12.254  0.00  0.00    +0.000 A 
ENDBRANCH   6   8
ENDBRANCH   1   2
BRANCH   1  14
ATOM     14  S   UNL     1      44.848   6.256  12.874  0.00  0.00    +0.000 S 
BRANCH  14  17
ATOM     15  C   UNL     1      44.830   3.573   9.770  0.00  0.00    +0.000 A 
ATOM     16  C   UNL     1      45.177   4.685  10.543  0.00  0.00    +0.000 A 
ATOM     17  C   UNL     1      44.579   4.865  11.789  0.00  0.00    +0.000 A 
ATOM     18  C   UNL     1      43.665   3.910  12.234  0.00  0.00    +0.000 A 
ATOM     19  C   UNL     1      43.375   2.831  11.420  0.00  0.00    +0.000 A 
ATOM     20  N   UNL     1      43.930   2.645  10.207  0.00  0.00    +0.000 NA
BRANCH  15  22
ATOM     21  F   UNL     1      44.517   3.379   7.385  0.00  0.00    +0.000 F 
ATOM     22  C   UNL     1      45.447   3.393   8.388  0.00  0.00    +0.000 C 
ATOM     23  F   UNL     1      46.132   2.221   8.257  0.00  0.00    +0.000 F 
ATOM     24  F   UNL     1      46.321   4.385   8.056  0.00  0.00    +0.000 F 
ENDBRANCH  15  22
ENDBRANCH  14  17
ENDBRANCH   1  14
TORSDOF 5
ENDMDL
MODEL 9
REMARK VINA RESULT:    -5.882      5.131      8.175
REMARK INTER + INTRA:          -8.363
REMARK INTER:                  -7.341
REMARK INTRA:                  -1.021
REMARK UNBOUND:                -0.761
REMARK  Name = 
REMARK  5 active torsions:
REMARK  status: ('A' for Active; 'I' for Inactive)
REMARK    1  A    between atoms: C_2  and  C_5
REMARK    2  A    between atoms: C_7  and  S_8
REMARK    3  A    between atoms: S_8  and  C_9
REMARK    4  A    between atoms: C_9  and  C_10
REMARK    5  A    between atoms: C_14  and  C_15
REMARK                            x       y       z     vdW  Elec       q    Type
REMARK                         _______ _______ _______ _____ _____    ______ ____
ROOT
ATOM      1  C   UNL     1      49.554   7.584  12.197  0.00  0.00    +0.000 C 
ENDROOT
BRANCH   1   2
ATOM      2  C   UNL     1      48.039   7.682  12.220  0.00  0.00    +0.000 A 
ATOM      3  C   UNL     1      47.364   8.909  12.211  0.00  0.00    +0.000 A 
ATOM      4  C   UNL     1      45.973   8.956  12.208  0.00  0.00    +0.000 A 
ATOM      5  C   UNL     1      45.235   7.776  12.162  0.00  0.00    +0.000 A 
ATOM      6  C   UNL     1      45.862   6.520  12.097  0.00  0.00    +0.000 A 
ATOM      7  C   UNL     1      47.273   6.500  12.145  0.00  0.00    +0.000 A 
BRANCH   6   8
ATOM      8  C   UNL     1      45.072   5.284  11.933  0.00  0.00    +0.000 A 
ATOM      9  C   UNL     1      44.694   4.779  10.681  0.00  0.00    +0.000 A 
ATOM     10  C   UNL     1      43.919   3.622  10.583  0.00  0.00    +0.000 A 
ATOM     11  C   UNL     1      43.541   2.980  11.750  0.00  0.00    +0.000 A 
ATOM     12  N   UNL     1      43.881   3.414  12.979  0.00  0.00    +0.000 NA
ATOM     13  C   UNL     1      44.625   4.546  13.036  0.00  0.00    +0.000 A 
ENDBRANCH   6   8
ENDBRANCH   1   2
BRANCH   1  14
ATOM     14  S   UNL     1      50.391   8.683  13.395  0.00  0.00    +0.000 S 
BRANCH  14  17
ATOM     15  C   UNL     1      49.281   6.674  16.796  0.00  0.00    +0.000 A 
ATOM     16  C   UNL     1      49.889   6.936  15.564  0.00  0.00    +0.000 A 
ATOM     17  C   UNL     1      49.747   8.196  14.986  0.00  0.00    +0.000 A 
ATOM     18  C   UNL     1      49.017   9.166  15.674  0.00  0.00    +0.000 A 
ATOM     19  C   UNL     1      48.451   8.839  16.891  0.00  0.00    +0.000 A 
ATOM     20  N   UNL     1      48.562   7.624  17.460  0.00  0.00    +0.000 NA
BRANCH  15  22
ATOM     21  F   UNL     1      49.300   5.294  18.776  0.00  0.00    +0.000 F 
ATOM     22  C   UNL     1      49.395   5.284  17.412  0.00  0.00    +0.000 C 
ATOM     23  F   UNL     1      50.585   4.675  17.140  0.00  0.00    +0.000 F 
ATOM     24  F   UNL     1      48.424   4.427  16.988  0.00  0.00    +0.000 F 
ENDBRANCH  15  22
ENDBRANCH  14  17
ENDBRANCH   1  14
TORSDOF 5
ENDMDL
