MODEL 1
REMARK VINA RESULT:    -8.284      0.000      0.000
REMARK INTER + INTRA:         -12.825
REMARK INTER:                 -11.674
REMARK INTRA:                  -1.151
REMARK UNBOUND:                -1.151
REMARK  Name = 
REMARK  7 active torsions:
REMARK  status: ('A' for Active; 'I' for Inactive)
REMARK    1  A    between atoms: C_2  and  C_21
REMARK    2  A    between atoms: N_3  and  C_4
REMARK    3  A    between atoms: C_4  and  C_5
REMARK    4  A    between atoms: C_8  and  C_9
REMARK    5  A    between atoms: C_9  and  N_10
REMARK    6  A    between atoms: N_10  and  C_11
REMARK    7  A    between atoms: C_11  and  C_12
REMARK                            x       y       z     vdW  Elec       q    Type
REMARK                         _______ _______ _______ _____ _____    ______ ____
ROOT
ATOM      1  C   UNL     1      46.166   6.193  12.370  0.00  0.00    +0.000 A 
ATOM      2  C   UNL     1      45.729   6.303  11.044  0.00  0.00    +0.000 A 
ATOM      3  C   UNL     1      45.004   5.267  10.452  0.00  0.00    +0.000 A 
ATOM      4  C   UNL     1      44.695   4.104  11.170  0.00  0.00    +0.000 A 
ATOM      5  C   UNL     1      45.115   4.004  12.503  0.00  0.00    +0.000 A 
ATOM      6  C   UNL     1      45.837   5.043  13.099  0.00  0.00    +0.000 A 
ENDROOT
BRANCH   1   7
ATOM      7  C   UNL     1      46.934   7.321  13.006  0.00  0.00    +0.000 C 
BRANCH   7  10
ATOM      8  O   UNL     1      49.593   6.877  13.833  0.00  0.00    +0.000 OA
ATOM      9  C   UNL     1      48.692   6.832  14.667  0.00  0.00    +0.000 C 
ATOM     10  N   UNL     1      47.371   6.969  14.333  0.00  0.00    +0.000 N 
ATOM     11  H   UNL     1      46.693   7.125  15.071  0.00  0.00    +0.000 HD
BRANCH   9  12
ATOM     12  C   UNL     1      48.973   6.560  16.082  0.00  0.00    +0.000 A 
ATOM     13  C   UNL     1      49.557   7.542  16.870  0.00  0.00    +0.000 A 
ATOM     14  S   UNL     1      49.857   7.041  18.473  0.00  0.00    +0.000 S 
ATOM     15  C   UNL     1      49.170   5.512  18.184  0.00  0.00    +0.000 A 
ATOM     16  N   UNL     1      49.091   4.581  19.171  0.00  0.00    +0.000 NA
ATOM     17  C   UNL     1      48.504   3.485  18.823  0.00  0.00    +0.000 A 
ATOM     18  N   UNL     1      47.996   3.230  17.580  0.00  0.00    +0.000 N 
ATOM     19  C   UNL     1      48.117   4.113  16.533  0.00  0.00    +0.000 A 
ATOM     20  O   UNL     1      47.757   3.799  15.401  0.00  0.00    +0.000 OA
ATOM     21  C   UNL     1      48.735   5.378  16.877  0.00  0.00    +0.000 A 
ATOM     22  H   UNL     1      47.569   2.340  17.368  0.00  0.00    +0.000 HD
ENDBRANCH   9  12
ENDBRANCH   7  10
ENDBRANCH   1   7
BRANCH   4  23
ATOM     23  C   UNL     1      43.920   2.985  10.511  0.00  0.00    +0.000 C 
BRANCH  23  24
ATOM     24  N   UNL     1      44.341   2.826   9.123  0.00  0.00    +0.000 NA
ATOM     25  H   UNL     1      44.677   3.725   8.781  0.00  0.00    +0.000 HD
BRANCH  24  26
ATOM     26  C   UNL     1      45.407   1.832   8.973  0.00  0.00    +0.000 C 
BRANCH  26  27
ATOM     27  C   UNL     1      46.174   2.021   7.678  0.00  0.00    +0.000 A 
ATOM     28  C   UNL     1      46.186   3.279   7.043  0.00  0.00    +0.000 A 
ATOM     29  C   UNL     1      46.915   3.496   5.872  0.00  0.00    +0.000 A 
ATOM     30  C   UNL     1      47.625   2.451   5.294  0.00  0.00    +0.000 A 
ATOM     31  C   UNL     1      47.583   1.183   5.874  0.00  0.00    +0.000 A 
ATOM     32  C   UNL     1      46.853   0.964   7.049  0.00  0.00    +0.000 A 
ATOM     33 CL   UNL     1      46.820  -0.649   7.670  0.00  0.00    +0.000 Cl
ENDBRANCH  26  27
ENDBRANCH  24  26
ENDBRANCH  23  24
ENDBRANCH   4  23
TORSDOF 7
ENDMDL
MODEL 2
REMARK VINA RESULT:    -7.681      2.484      3.308
REMARK INTER + INTRA:         -11.975
REMARK INTER:                 -10.804
REMARK INTRA:                  -1.171
REMARK UNBOUND:                -1.151
REMARK  Name = 
REMARK  7 active torsions:
REMARK  status: ('A' for Active; 'I' for Inactive)
REMARK    1  A    between atoms: C_2  and  C_21
REMARK    2  A    between atoms: N_3  and  C_4
REMARK    3  A    between atoms: C_4  and  C_5
REMARK    4  A    between atoms: C_8  and  C_9
REMARK    5  A    between atoms: C_9  and  N_10
REMARK    6  A    between atoms: N_10  and  C_11
REMARK    7  A    between atoms: C_11  and  C_12
REMARK                            x       y       z     vdW  Elec       q    Type
REMARK                         _______ _______ _______ _____ _____    ______ ____
ROOT
ATOM      1  C   UNL     1      47.359   6.001  13.619  0.00  0.00    +0.000 A 
ATOM      2  C   UNL     1      47.061   4.675  13.956  0.00  0.00    +0.000 A 
ATOM      3  C   UNL     1      46.099   3.963  13.237  0.00  0.00    +0.000 A 
ATOM      4  C   UNL     1      45.418   4.557  12.165  0.00  0.00    +0.000 A 
ATOM      5  C   UNL     1      45.732   5.877  11.816  0.00  0.00    +0.000 A 
ATOM      6  C   UNL     1      46.699   6.590  12.533  0.00  0.00    +0.000 A 
ENDROOT
BRANCH   1   7
ATOM      7  C   UNL     1      48.409   6.756  14.391  0.00  0.00    +0.000 C 
BRANCH   7  10
ATOM      8  O   UNL     1      50.010   5.574  16.388  0.00  0.00    +0.000 OA
ATOM      9  C   UNL     1      48.998   6.187  16.718  0.00  0.00    +0.000 C 
ATOM     10  N   UNL     1      48.134   6.730  15.804  0.00  0.00    +0.000 N 
ATOM     11  H   UNL     1      47.434   7.390  16.126  0.00  0.00    +0.000 HD
BRANCH   9  12
ATOM     12  C   UNL     1      48.612   6.322  18.128  0.00  0.00    +0.000 A 
ATOM     13  C   UNL     1      48.733   5.235  18.983  0.00  0.00    +0.000 A 
ATOM     14  S   UNL     1      48.195   5.553  20.571  0.00  0.00    +0.000 S 
ATOM     15  C   UNL     1      47.829   7.168  20.183  0.00  0.00    +0.000 A 
ATOM     16  N   UNL     1      47.336   8.019  21.122  0.00  0.00    +0.000 NA
ATOM     17  C   UNL     1      47.149   9.226  20.700  0.00  0.00    +0.000 A 
ATOM     18  N   UNL     1      47.402   9.658  19.428  0.00  0.00    +0.000 N 
ATOM     19  C   UNL     1      47.832   8.817  18.430  0.00  0.00    +0.000 A 
ATOM     20  O   UNL     1      47.931   9.214  17.271  0.00  0.00    +0.000 OA
ATOM     21  C   UNL     1      48.096   7.457  18.856  0.00  0.00    +0.000 A 
ATOM     22  H   UNL     1      47.211  10.612  19.158  0.00  0.00    +0.000 HD
ENDBRANCH   9  12
ENDBRANCH   7  10
ENDBRANCH   1   7
BRANCH   4  23
ATOM     23  C   UNL     1      44.369   3.778  11.403  0.00  0.00    +0.000 C 
BRANCH  23  24
ATOM     24  N   UNL     1      44.956   2.579  10.814  0.00  0.00    +0.000 NA
ATOM     25  H   UNL     1      44.707   1.778  11.393  0.00  0.00    +0.000 HD
BRANCH  24  26
ATOM     26  C   UNL     1      44.489   2.342   9.447  0.00  0.00    +0.000 C 
BRANCH  26  27
ATOM     27  C   UNL     1      45.644   2.208   8.472  0.00  0.00    +0.000 A 
ATOM     28  C   UNL     1      46.123   0.931   8.118  0.00  0.00    +0.000 A 
ATOM     29  C   UNL     1      47.157   0.773   7.193  0.00  0.00    +0.000 A 
ATOM     30  C   UNL     1      47.755   1.890   6.624  0.00  0.00    +0.000 A 
ATOM     31  C   UNL     1      47.336   3.166   7.002  0.00  0.00    +0.000 A 
ATOM     32  C   UNL     1      46.298   3.326   7.928  0.00  0.00    +0.000 A 
ATOM     33 CL   UNL     1      45.875   4.943   8.370  0.00  0.00    +0.000 Cl
ENDBRANCH  26  27
ENDBRANCH  24  26
ENDBRANCH  23  24
ENDBRANCH   4  23
TORSDOF 7
ENDMDL
MODEL 3
REMARK VINA RESULT:    -7.636      1.608      2.170
REMARK INTER + INTRA:         -11.912
REMARK INTER:                 -10.904
REMARK INTRA:                  -1.008
REMARK UNBOUND:                -1.151
REMARK  Name = 
REMARK  7 active torsions:
REMARK  status: ('A' for Active; 'I' for Inactive)
REMARK    1  A    between atoms: C_2  and  C_21
REMARK    2  A    between atoms: N_3  and  C_4
REMARK    3  A    between atoms: C_4  and  C_5
REMARK    4  A    between atoms: C_8  and  C_9
REMARK    5  A    between atoms: C_9  and  N_10
REMARK    6  A    between atoms: N_10  and  C_11
REMARK    7  A    between atoms: C_11  and  C_12
REMARK                            x       y       z     vdW  Elec       q    Type
REMARK                         _______ _______ _______ _____ _____    ______ ____
ROOT
ATOM      1  C   UNL     1      47.124   6.282  13.125  0.00  0.00    +0.000 A 
ATOM      2  C   UNL     1      46.729   5.112  13.787  0.00  0.00    +0.000 A 
ATOM      3  C   UNL     1      45.793   4.254  13.206  0.00  0.00    +0.000 A 
ATOM      4  C   UNL     1      45.236   4.541  11.953  0.00  0.00    +0.000 A 
ATOM      5  C   UNL     1      45.648   5.701  11.282  0.00  0.00    +0.000 A 
ATOM      6  C   UNL     1      46.588   6.559  11.861  0.00  0.00    +0.000 A 
ENDROOT
BRANCH   1   7
ATOM      7  C   UNL     1      48.144   7.194  13.752  0.00  0.00    +0.000 C 
BRANCH   7  10
ATOM      8  O   UNL     1      50.391   7.131  15.455  0.00  0.00    +0.000 OA
ATOM      9  C   UNL     1      49.265   7.124  15.948  0.00  0.00    +0.000 C 
ATOM     10  N   UNL     1      48.127   7.084  15.188  0.00  0.00    +0.000 N 
ATOM     11  H   UNL     1      47.236   7.283  15.630  0.00  0.00    +0.000 HD
BRANCH   9  12
ATOM     12  C   UNL     1      49.069   7.091  17.403  0.00  0.00    +0.000 A 
ATOM     13  C   UNL     1      48.853   8.274  18.096  0.00  0.00    +0.000 A 
ATOM     14  S   UNL     1      48.693   8.058  19.781  0.00  0.00    +0.000 S 
ATOM     15  C   UNL     1      48.857   6.371  19.637  0.00  0.00    +0.000 A 
ATOM     16  N   UNL     1      48.794   5.565  20.730  0.00  0.00    +0.000 NA
ATOM     17  C   UNL     1      48.887   4.304  20.467  0.00  0.00    +0.000 A 
ATOM     18  N   UNL     1      49.044   3.775  19.216  0.00  0.00    +0.000 N 
ATOM     19  C   UNL     1      49.184   4.554  18.092  0.00  0.00    +0.000 A 
ATOM     20  O   UNL     1      49.446   4.048  17.004  0.00  0.00    +0.000 OA
ATOM     21  C   UNL     1      49.049   5.979  18.323  0.00  0.00    +0.000 A 
ATOM     22  H   UNL     1      49.133   2.778  19.083  0.00  0.00    +0.000 HD
ENDBRANCH   9  12
ENDBRANCH   7  10
ENDBRANCH   1   7
BRANCH   4  23
ATOM     23  C   UNL     1      44.214   3.608  11.341  0.00  0.00    +0.000 C 
BRANCH  23  24
ATOM     24  N   UNL     1      44.880   2.498  10.668  0.00  0.00    +0.000 NA
ATOM     25  H   UNL     1      44.643   1.634  11.155  0.00  0.00    +0.000 HD
BRANCH  24  26
ATOM     26  C   UNL     1      44.483   2.376   9.264  0.00  0.00    +0.000 C 
BRANCH  26  27
ATOM     27  C   UNL     1      45.679   2.152   8.358  0.00  0.00    +0.000 A 
ATOM     28  C   UNL     1      46.136   0.844   8.105  0.00  0.00    +0.000 A 
ATOM     29  C   UNL     1      47.208   0.601   7.244  0.00  0.00    +0.000 A 
ATOM     30  C   UNL     1      47.865   1.666   6.639  0.00  0.00    +0.000 A 
ATOM     31  C   UNL     1      47.466   2.972   6.918  0.00  0.00    +0.000 A 
ATOM     32  C   UNL     1      46.390   3.217   7.780  0.00  0.00    +0.000 A 
ATOM     33 CL   UNL     1      45.995   4.869   8.102  0.00  0.00    +0.000 Cl
ENDBRANCH  26  27
ENDBRANCH  24  26
ENDBRANCH  23  24
ENDBRANCH   4  23
TORSDOF 7
ENDMDL
MODEL 4
REMARK VINA RESULT:    -7.430      4.240      8.562
REMARK INTER + INTRA:         -11.622
REMARK INTER:                  -9.897
REMARK INTRA:                  -1.726
REMARK UNBOUND:                -1.151
REMARK  Name = 
REMARK  7 active torsions:
REMARK  status: ('A' for Active; 'I' for Inactive)
REMARK    1  A    between atoms: C_2  and  C_21
REMARK    2  A    between atoms: N_3  and  C_4
REMARK    3  A    between atoms: C_4  and  C_5
REMARK    4  A    between atoms: C_8  and  C_9
REMARK    5  A    between atoms: C_9  and  N_10
REMARK    6  A    between atoms: N_10  and  C_11
REMARK    7  A    between atoms: C_11  and  C_12
REMARK                            x       y       z     vdW  Elec       q    Type
REMARK                         _______ _______ _______ _____ _____    ______ ____
ROOT
ATOM      1  C   UNL     1      48.502   7.957  13.551  0.00  0.00    +0.000 A 
ATOM      2  C   UNL     1      47.960   8.992  14.323  0.00  0.00    +0.000 A 
ATOM      3  C   UNL     1      48.065   8.965  15.715  0.00  0.00    +0.000 A 
ATOM      4  C   UNL     1      48.716   7.908  16.366  0.00  0.00    +0.000 A 
ATOM      5  C   UNL     1      49.276   6.883  15.591  0.00  0.00    +0.000 A 
ATOM      6  C   UNL     1      49.175   6.912  14.196  0.00  0.00    +0.000 A 
ENDROOT
BRANCH   1   7
ATOM      7  C   UNL     1      48.397   8.003  12.050  0.00  0.00    +0.000 C 
BRANCH   7  10
ATOM      8  O   UNL     1      45.593   7.869  11.779  0.00  0.00    +0.000 OA
ATOM      9  C   UNL     1      46.278   6.925  11.390  0.00  0.00    +0.000 C 
ATOM     10  N   UNL     1      47.638   6.886  11.548  0.00  0.00    +0.000 N 
ATOM     11  H   UNL     1      48.170   6.191  11.036  0.00  0.00    +0.000 HD
BRANCH   9  12
ATOM     12  C   UNL     1      45.667   5.737  10.781  0.00  0.00    +0.000 A 
ATOM     13  C   UNL     1      45.852   5.482   9.430  0.00  0.00    +0.000 A 
ATOM     14  S   UNL     1      45.034   4.090   8.879  0.00  0.00    +0.000 S 
ATOM     15  C   UNL     1      44.445   3.752  10.439  0.00  0.00    +0.000 A 
ATOM     16  N   UNL     1      43.671   2.659  10.673  0.00  0.00    +0.000 NA
ATOM     17  C   UNL     1      43.334   2.501  11.910  0.00  0.00    +0.000 A 
ATOM     18  N   UNL     1      43.693   3.336  12.931  0.00  0.00    +0.000 N 
ATOM     19  C   UNL     1      44.413   4.490  12.729  0.00  0.00    +0.000 A 
ATOM     20  O   UNL     1      44.611   5.277  13.651  0.00  0.00    +0.000 OA
ATOM     21  C   UNL     1      44.851   4.698  11.363  0.00  0.00    +0.000 A 
ATOM     22  H   UNL     1      43.375   3.166  13.875  0.00  0.00    +0.000 HD
ENDBRANCH   9  12
ENDBRANCH   7  10
ENDBRANCH   1   7
BRANCH   4  23
ATOM     23  C   UNL     1      48.811   7.884  17.875  0.00  0.00    +0.000 C 
BRANCH  23  24
ATOM     24  N   UNL     1      47.633   7.242  18.446  0.00  0.00    +0.000 NA
ATOM     25  H   UNL     1      47.027   6.937  17.684  0.00  0.00    +0.000 HD
BRANCH  24  26
ATOM     26  C   UNL     1      47.974   6.082  19.274  0.00  0.00    +0.000 C 
BRANCH  26  27
ATOM     27  C   UNL     1      48.268   4.856  18.431  0.00  0.00    +0.000 A 
ATOM     28  C   UNL     1      47.260   4.302  17.617  0.00  0.00    +0.000 A 
ATOM     29  C   UNL     1      47.509   3.199  16.799  0.00  0.00    +0.000 A 
ATOM     30  C   UNL     1      48.766   2.607  16.799  0.00  0.00    +0.000 A 
ATOM     31  C   UNL     1      49.763   3.102  17.638  0.00  0.00    +0.000 A 
ATOM     32  C   UNL     1      49.515   4.210  18.459  0.00  0.00    +0.000 A 
ATOM     33 CL   UNL     1      50.795   4.727  19.499  0.00  0.00    +0.000 Cl
ENDBRANCH  26  27
ENDBRANCH  24  26
ENDBRANCH  23  24
ENDBRANCH   4  23
TORSDOF 7
ENDMDL
MODEL 5
REMARK VINA RESULT:    -7.190      1.820      2.229
REMARK INTER + INTRA:         -11.283
REMARK INTER:                 -10.112
REMARK INTRA:                  -1.171
REMARK UNBOUND:                -1.151
REMARK  Name = 
REMARK  7 active torsions:
REMARK  status: ('A' for Active; 'I' for Inactive)
REMARK    1  A    between atoms: C_2  and  C_21
REMARK    2  A    between atoms: N_3  and  C_4
REMARK    3  A    between atoms: C_4  and  C_5
REMARK    4  A    between atoms: C_8  and  C_9
REMARK    5  A    between atoms: C_9  and  N_10
REMARK    6  A    between atoms: N_10  and  C_11
REMARK    7  A    between atoms: C_11  and  C_12
REMARK                            x       y       z     vdW  Elec       q    Type
REMARK                         _______ _______ _______ _____ _____    ______ ____
ROOT
ATOM      1  C   UNL     1      46.678   6.718  12.791  0.00  0.00    +0.000 A 
ATOM      2  C   UNL     1      46.684   5.462  13.409  0.00  0.00    +0.000 A 
ATOM      3  C   UNL     1      45.846   4.444  12.948  0.00  0.00    +0.000 A 
ATOM      4  C   UNL     1      44.989   4.657  11.860  0.00  0.00    +0.000 A 
ATOM      5  C   UNL     1      45.000   5.908  11.229  0.00  0.00    +0.000 A 
ATOM      6  C   UNL     1      45.841   6.927  11.687  0.00  0.00    +0.000 A 
ENDROOT
BRANCH   1   7
ATOM      7  C   UNL     1      47.595   7.805  13.285  0.00  0.00    +0.000 C 
BRANCH   7  10
ATOM      8  O   UNL     1      48.441   8.645  15.840  0.00  0.00    +0.000 OA
ATOM      9  C   UNL     1      48.994   7.682  15.313  0.00  0.00    +0.000 C 
ATOM     10  N   UNL     1      48.687   7.257  14.048  0.00  0.00    +0.000 N 
ATOM     11  H   UNL     1      49.020   6.349  13.743  0.00  0.00    +0.000 HD
BRANCH   9  12
ATOM     12  C   UNL     1      50.077   6.958  15.990  0.00  0.00    +0.000 A 
ATOM     13  C   UNL     1      51.356   7.497  16.016  0.00  0.00    +0.000 A 
ATOM     14  S   UNL     1      52.500   6.503  16.800  0.00  0.00    +0.000 S 
ATOM     15  C   UNL     1      51.316   5.342  17.176  0.00  0.00    +0.000 A 
ATOM     16  N   UNL     1      51.633   4.219  17.874  0.00  0.00    +0.000 NA
ATOM     17  C   UNL     1      50.627   3.449  18.129  0.00  0.00    +0.000 A 
ATOM     18  N   UNL     1      49.338   3.694  17.746  0.00  0.00    +0.000 N 
ATOM     19  C   UNL     1      48.984   4.778  16.978  0.00  0.00    +0.000 A 
ATOM     20  O   UNL     1      47.839   4.899  16.550  0.00  0.00    +0.000 OA
ATOM     21  C   UNL     1      50.068   5.697  16.694  0.00  0.00    +0.000 A 
ATOM     22  H   UNL     1      48.601   3.037  17.959  0.00  0.00    +0.000 HD
ENDBRANCH   9  12
ENDBRANCH   7  10
ENDBRANCH   1   7
BRANCH   4  23
ATOM     23  C   UNL     1      44.078   3.549  11.379  0.00  0.00    +0.000 C 
BRANCH  23  24
ATOM     24  N   UNL     1      44.839   2.557  10.628  0.00  0.00    +0.000 NA
ATOM     25  H   UNL     1      44.664   1.638  11.034  0.00  0.00    +0.000 HD
BRANCH  24  26
ATOM     26  C   UNL     1      44.473   2.528   9.210  0.00  0.00    +0.000 C 
BRANCH  26  27
ATOM     27  C   UNL     1      45.664   2.205   8.328  0.00  0.00    +0.000 A 
ATOM     28  C   UNL     1      46.070   0.867   8.152  0.00  0.00    +0.000 A 
ATOM     29  C   UNL     1      47.136   0.534   7.315  0.00  0.00    +0.000 A 
ATOM     30  C   UNL     1      47.839   1.536   6.657  0.00  0.00    +0.000 A 
ATOM     31  C   UNL     1      47.492   2.871   6.859  0.00  0.00    +0.000 A 
ATOM     32  C   UNL     1      46.422   3.207   7.698  0.00  0.00    +0.000 A 
ATOM     33 CL   UNL     1      46.092   4.889   7.924  0.00  0.00    +0.000 Cl
ENDBRANCH  26  27
ENDBRANCH  24  26
ENDBRANCH  23  24
ENDBRANCH   4  23
TORSDOF 7
ENDMDL
MODEL 6
REMARK VINA RESULT:    -7.171      3.786      8.717
REMARK INTER + INTRA:         -11.257
REMARK INTER:                  -9.632
REMARK INTRA:                  -1.625
REMARK UNBOUND:                -1.151
REMARK  Name = 
REMARK  7 active torsions:
REMARK  status: ('A' for Active; 'I' for Inactive)
REMARK    1  A    between atoms: C_2  and  C_21
REMARK    2  A    between atoms: N_3  and  C_4
REMARK    3  A    between atoms: C_4  and  C_5
REMARK    4  A    between atoms: C_8  and  C_9
REMARK    5  A    between atoms: C_9  and  N_10
REMARK    6  A    between atoms: N_10  and  C_11
REMARK    7  A    between atoms: C_11  and  C_12
REMARK                            x       y       z     vdW  Elec       q    Type
REMARK                         _______ _______ _______ _____ _____    ______ ____
ROOT
ATOM      1  C   UNL     1      48.522   8.012  13.113  0.00  0.00    +0.000 A 
ATOM      2  C   UNL     1      47.834   8.508  14.226  0.00  0.00    +0.000 A 
ATOM      3  C   UNL     1      48.483   8.642  15.455  0.00  0.00    +0.000 A 
ATOM      4  C   UNL     1      49.832   8.290  15.597  0.00  0.00    +0.000 A 
ATOM      5  C   UNL     1      50.525   7.813  14.476  0.00  0.00    +0.000 A 
ATOM      6  C   UNL     1      49.877   7.681  13.244  0.00  0.00    +0.000 A 
ENDROOT
BRANCH   1   7
ATOM      7  C   UNL     1      47.818   7.884  11.788  0.00  0.00    +0.000 C 
BRANCH   7  10
ATOM      8  O   UNL     1      45.008   7.711  11.951  0.00  0.00    +0.000 OA
ATOM      9  C   UNL     1      45.660   6.688  11.756  0.00  0.00    +0.000 C 
ATOM     10  N   UNL     1      47.029   6.679  11.733  0.00  0.00    +0.000 N 
ATOM     11  H   UNL     1      47.507   5.861  11.372  0.00  0.00    +0.000 HD
BRANCH   9  12
ATOM     12  C   UNL     1      45.006   5.383  11.600  0.00  0.00    +0.000 A 
ATOM     13  C   UNL     1      44.282   4.844  12.654  0.00  0.00    +0.000 A 
ATOM     14  S   UNL     1      43.630   3.303  12.318  0.00  0.00    +0.000 S 
ATOM     15  C   UNL     1      44.251   3.325  10.735  0.00  0.00    +0.000 A 
ATOM     16  N   UNL     1      44.032   2.289   9.882  0.00  0.00    +0.000 NA
ATOM     17  C   UNL     1      44.521   2.461   8.699  0.00  0.00    +0.000 A 
ATOM     18  N   UNL     1      45.212   3.568   8.292  0.00  0.00    +0.000 N 
ATOM     19  C   UNL     1      45.519   4.606   9.139  0.00  0.00    +0.000 A 
ATOM     20  O   UNL     1      46.246   5.525   8.771  0.00  0.00    +0.000 OA
ATOM     21  C   UNL     1      44.961   4.483  10.471  0.00  0.00    +0.000 A 
ATOM     22  H   UNL     1      45.588   3.628   7.356  0.00  0.00    +0.000 HD
ENDBRANCH   9  12
ENDBRANCH   7  10
ENDBRANCH   1   7
BRANCH   4  23
ATOM     23  C   UNL     1      50.519   8.429  16.938  0.00  0.00    +0.000 C 
BRANCH  23  24
ATOM     24  N   UNL     1      50.068   7.383  17.849  0.00  0.00    +0.000 NA
ATOM     25  H   UNL     1      49.056   7.289  17.760  0.00  0.00    +0.000 HD
BRANCH  24  26
ATOM     26  C   UNL     1      50.692   6.088  17.566  0.00  0.00    +0.000 C 
BRANCH  26  27
ATOM     27  C   UNL     1      49.658   4.990  17.397  0.00  0.00    +0.000 A 
ATOM     28  C   UNL     1      48.300   5.322  17.217  0.00  0.00    +0.000 A 
ATOM     29  C   UNL     1      47.331   4.338  17.018  0.00  0.00    +0.000 A 
ATOM     30  C   UNL     1      47.694   2.996  17.022  0.00  0.00    +0.000 A 
ATOM     31  C   UNL     1      49.022   2.641  17.254  0.00  0.00    +0.000 A 
ATOM     32  C   UNL     1      49.996   3.628  17.453  0.00  0.00    +0.000 A 
ATOM     33 CL   UNL     1      51.608   3.094  17.777  0.00  0.00    +0.000 Cl
ENDBRANCH  26  27
ENDBRANCH  24  26
ENDBRANCH  23  24
ENDBRANCH   4  23
TORSDOF 7
ENDMDL
MODEL 7
REMARK VINA RESULT:    -7.139      4.537      8.768
REMARK INTER + INTRA:         -11.211
REMARK INTER:                  -9.030
REMARK INTRA:                  -2.181
REMARK UNBOUND:                -1.151
REMARK  Name = 
REMARK  7 active torsions:
REMARK  status: ('A' for Active; 'I' for Inactive)
REMARK    1  A    between atoms: C_2  and  C_21
REMARK    2  A    between atoms: N_3  and  C_4
REMARK    3  A    between atoms: C_4  and  C_5
REMARK    4  A    between atoms: C_8  and  C_9
REMARK    5  A    between atoms: C_9  and  N_10
REMARK    6  A    between atoms: N_10  and  C_11
REMARK    7  A    between atoms: C_11  and  C_12
REMARK                            x       y       z     vdW  Elec       q    Type
REMARK                         _______ _______ _______ _____ _____    ______ ____
ROOT
ATOM      1  C   UNL     1      49.003   8.187  15.839  0.00  0.00    +0.000 A 
ATOM      2  C   UNL     1      50.049   7.263  15.944  0.00  0.00    +0.000 A 
ATOM      3  C   UNL     1      50.532   6.881  17.197  0.00  0.00    +0.000 A 
ATOM      4  C   UNL     1      49.978   7.409  18.371  0.00  0.00    +0.000 A 
ATOM      5  C   UNL     1      48.916   8.318  18.265  0.00  0.00    +0.000 A 
ATOM      6  C   UNL     1      48.429   8.698  17.010  0.00  0.00    +0.000 A 
ENDROOT
BRANCH   1   7
ATOM      7  C   UNL     1      48.479   8.581  14.483  0.00  0.00    +0.000 C 
BRANCH   7  10
ATOM      8  O   UNL     1      48.839   6.371  12.770  0.00  0.00    +0.000 OA
ATOM      9  C   UNL     1      47.728   6.580  13.251  0.00  0.00    +0.000 C 
ATOM     10  N   UNL     1      47.457   7.670  14.036  0.00  0.00    +0.000 N 
ATOM     11  H   UNL     1      46.593   7.688  14.566  0.00  0.00    +0.000 HD
BRANCH   9  12
ATOM     12  C   UNL     1      46.590   5.700  12.958  0.00  0.00    +0.000 A 
ATOM     13  C   UNL     1      46.645   4.360  13.316  0.00  0.00    +0.000 A 
ATOM     14  S   UNL     1      45.260   3.474  12.858  0.00  0.00    +0.000 S 
ATOM     15  C   UNL     1      44.518   4.861  12.211  0.00  0.00    +0.000 A 
ATOM     16  N   UNL     1      43.276   4.800  11.662  0.00  0.00    +0.000 NA
ATOM     17  C   UNL     1      42.818   5.936  11.254  0.00  0.00    +0.000 A 
ATOM     18  N   UNL     1      43.488   7.125  11.336  0.00  0.00    +0.000 N 
ATOM     19  C   UNL     1      44.772   7.222  11.817  0.00  0.00    +0.000 A 
ATOM     20  O   UNL     1      45.386   8.285  11.762  0.00  0.00    +0.000 OA
ATOM     21  C   UNL     1      45.323   5.982  12.326  0.00  0.00    +0.000 A 
ATOM     22  H   UNL     1      43.079   7.975  10.976  0.00  0.00    +0.000 HD
ENDBRANCH   9  12
ENDBRANCH   7  10
ENDBRANCH   1   7
BRANCH   4  23
ATOM     23  C   UNL     1      50.519   6.997  19.722  0.00  0.00    +0.000 C 
BRANCH  23  24
ATOM     24  N   UNL     1      50.703   5.550  19.774  0.00  0.00    +0.000 NA
ATOM     25  H   UNL     1      51.356   5.333  20.526  0.00  0.00    +0.000 HD
BRANCH  24  26
ATOM     26  C   UNL     1      49.448   4.835  20.012  0.00  0.00    +0.000 C 
BRANCH  26  27
ATOM     27  C   UNL     1      48.936   4.161  18.754  0.00  0.00    +0.000 A 
ATOM     28  C   UNL     1      49.732   3.205  18.092  0.00  0.00    +0.000 A 
ATOM     29  C   UNL     1      49.274   2.537  16.955  0.00  0.00    +0.000 A 
ATOM     30  C   UNL     1      48.018   2.832  16.437  0.00  0.00    +0.000 A 
ATOM     31  C   UNL     1      47.235   3.814  17.042  0.00  0.00    +0.000 A 
ATOM     32  C   UNL     1      47.693   4.484  18.183  0.00  0.00    +0.000 A 
ATOM     33 CL   UNL     1      46.674   5.718  18.839  0.00  0.00    +0.000 Cl
ENDBRANCH  26  27
ENDBRANCH  24  26
ENDBRANCH  23  24
ENDBRANCH   4  23
TORSDOF 7
ENDMDL
MODEL 8
REMARK VINA RESULT:    -7.138      2.020      2.806
REMARK INTER + INTRA:         -11.211
REMARK INTER:                 -10.050
REMARK INTRA:                  -1.160
REMARK UNBOUND:                -1.151
REMARK  Name = 
REMARK  7 active torsions:
REMARK  status: ('A' for Active; 'I' for Inactive)
REMARK    1  A    between atoms: C_2  and  C_21
REMARK    2  A    between atoms: N_3  and  C_4
REMARK    3  A    between atoms: C_4  and  C_5
REMARK    4  A    between atoms: C_8  and  C_9
REMARK    5  A    between atoms: C_9  and  N_10
REMARK    6  A    between atoms: N_10  and  C_11
REMARK    7  A    between atoms: C_11  and  C_12
REMARK                            x       y       z     vdW  Elec       q    Type
REMARK                         _______ _______ _______ _____ _____    ______ ____
ROOT
ATOM      1  C   UNL     1      46.131   6.191  12.383  0.00  0.00    +0.000 A 
ATOM      2  C   UNL     1      45.398   6.310  11.195  0.00  0.00    +0.000 A 
ATOM      3  C   UNL     1      44.657   5.229  10.713  0.00  0.00    +0.000 A 
ATOM      4  C   UNL     1      44.625   4.012  11.407  0.00  0.00    +0.000 A 
ATOM      5  C   UNL     1      45.342   3.902  12.606  0.00  0.00    +0.000 A 
ATOM      6  C   UNL     1      46.083   4.985  13.092  0.00  0.00    +0.000 A 
ENDROOT
BRANCH   1   7
ATOM      7  C   UNL     1      46.917   7.366  12.903  0.00  0.00    +0.000 C 
BRANCH   7  10
ATOM      8  O   UNL     1      48.141   8.869  14.950  0.00  0.00    +0.000 OA
ATOM      9  C   UNL     1      48.493   7.705  14.770  0.00  0.00    +0.000 C 
ATOM     10  N   UNL     1      47.995   6.933  13.754  0.00  0.00    +0.000 N 
ATOM     11  H   UNL     1      48.163   5.933  13.772  0.00  0.00    +0.000 HD
BRANCH   9  12
ATOM     12  C   UNL     1      49.529   7.082  15.603  0.00  0.00    +0.000 A 
ATOM     13  C   UNL     1      49.163   6.271  16.668  0.00  0.00    +0.000 A 
ATOM     14  S   UNL     1      50.489   5.670  17.556  0.00  0.00    +0.000 S 
ATOM     15  C   UNL     1      51.601   6.431  16.518  0.00  0.00    +0.000 A 
ATOM     16  N   UNL     1      52.941   6.303  16.710  0.00  0.00    +0.000 NA
ATOM     17  C   UNL     1      53.665   6.895  15.820  0.00  0.00    +0.000 A 
ATOM     18  N   UNL     1      53.176   7.608  14.761  0.00  0.00    +0.000 N 
ATOM     19  C   UNL     1      51.832   7.825  14.569  0.00  0.00    +0.000 A 
ATOM     20  O   UNL     1      51.436   8.572  13.678  0.00  0.00    +0.000 OA
ATOM     21  C   UNL     1      50.969   7.150  15.518  0.00  0.00    +0.000 A 
ATOM     22  H   UNL     1      53.800   8.066  14.113  0.00  0.00    +0.000 HD
ENDBRANCH   9  12
ENDBRANCH   7  10
ENDBRANCH   1   7
BRANCH   4  23
ATOM     23  C   UNL     1      43.827   2.846  10.866  0.00  0.00    +0.000 C 
BRANCH  23  24
ATOM     24  N   UNL     1      43.953   2.777   9.414  0.00  0.00    +0.000 NA
ATOM     25  H   UNL     1      44.379   3.642   9.084  0.00  0.00    +0.000 HD
BRANCH  24  26
ATOM     26  C   UNL     1      44.775   1.646   8.978  0.00  0.00    +0.000 C 
BRANCH  26  27
ATOM     27  C   UNL     1      45.902   2.089   8.064  0.00  0.00    +0.000 A 
ATOM     28  C   UNL     1      46.033   3.447   7.714  0.00  0.00    +0.000 A 
ATOM     29  C   UNL     1      47.082   3.893   6.908  0.00  0.00    +0.000 A 
ATOM     30  C   UNL     1      48.009   2.985   6.411  0.00  0.00    +0.000 A 
ATOM     31  C   UNL     1      47.868   1.627   6.699  0.00  0.00    +0.000 A 
ATOM     32  C   UNL     1      46.817   1.179   7.508  0.00  0.00    +0.000 A 
ATOM     33 CL   UNL     1      46.695  -0.525   7.773  0.00  0.00    +0.000 Cl
ENDBRANCH  26  27
ENDBRANCH  24  26
ENDBRANCH  23  24
ENDBRANCH   4  23
TORSDOF 7
ENDMDL
MODEL 9
REMARK VINA RESULT:    -6.717      4.548      8.568
REMARK INTER + INTRA:         -10.617
REMARK INTER:                  -8.573
REMARK INTRA:                  -2.044
REMARK UNBOUND:                -1.151
REMARK  Name = 
REMARK  7 active torsions:
REMARK  status: ('A' for Active; 'I' for Inactive)
REMARK    1  A    between atoms: C_2  and  C_21
REMARK    2  A    between atoms: N_3  and  C_4
REMARK    3  A    between atoms: C_4  and  C_5
REMARK    4  A    between atoms: C_8  and  C_9
REMARK    5  A    between atoms: C_9  and  N_10
REMARK    6  A    between atoms: N_10  and  C_11
REMARK    7  A    between atoms: C_11  and  C_12
REMARK                            x       y       z     vdW  Elec       q    Type
REMARK                         _______ _______ _______ _____ _____    ______ ____
ROOT
ATOM      1  C   UNL     1      48.876   8.437  15.626  0.00  0.00    +0.000 A 
ATOM      2  C   UNL     1      48.799   8.892  16.948  0.00  0.00    +0.000 A 
ATOM      3  C   UNL     1      49.501   8.237  17.962  0.00  0.00    +0.000 A 
ATOM      4  C   UNL     1      50.298   7.120  17.678  0.00  0.00    +0.000 A 
ATOM      5  C   UNL     1      50.391   6.679  16.351  0.00  0.00    +0.000 A 
ATOM      6  C   UNL     1      49.691   7.336  15.334  0.00  0.00    +0.000 A 
ENDROOT
BRANCH   1   7
ATOM      7  C   UNL     1      48.127   9.158  14.537  0.00  0.00    +0.000 C 
BRANCH   7  10
ATOM      8  O   UNL     1      47.719   8.516  11.821  0.00  0.00    +0.000 OA
ATOM      9  C   UNL     1      46.981   8.021  12.671  0.00  0.00    +0.000 C 
ATOM     10  N   UNL     1      47.072   8.336  14.000  0.00  0.00    +0.000 N 
ATOM     11  H   UNL     1      46.584   7.757  14.675  0.00  0.00    +0.000 HD
BRANCH   9  12
ATOM     12  C   UNL     1      45.901   7.099  12.300  0.00  0.00    +0.000 A 
ATOM     13  C   UNL     1      44.792   7.576  11.614  0.00  0.00    +0.000 A 
ATOM     14  S   UNL     1      43.613   6.381  11.308  0.00  0.00    +0.000 S 
ATOM     15  C   UNL     1      44.566   5.175  12.037  0.00  0.00    +0.000 A 
ATOM     16  N   UNL     1      44.139   3.886  12.096  0.00  0.00    +0.000 NA
ATOM     17  C   UNL     1      44.983   3.070  12.635  0.00  0.00    +0.000 A 
ATOM     18  N   UNL     1      46.209   3.424  13.125  0.00  0.00    +0.000 N 
ATOM     19  C   UNL     1      46.650   4.725  13.152  0.00  0.00    +0.000 A 
ATOM     20  O   UNL     1      47.704   5.020  13.711  0.00  0.00    +0.000 OA
ATOM     21  C   UNL     1      45.759   5.679  12.525  0.00  0.00    +0.000 A 
ATOM     22  H   UNL     1      46.811   2.737  13.555  0.00  0.00    +0.000 HD
ENDBRANCH   9  12
ENDBRANCH   7  10
ENDBRANCH   1   7
BRANCH   4  23
ATOM     23  C   UNL     1      51.043   6.413  18.789  0.00  0.00    +0.000 C 
BRANCH  23  24
ATOM     24  N   UNL     1      50.161   6.194  19.930  0.00  0.00    +0.000 NA
ATOM     25  H   UNL     1      49.313   6.743  19.795  0.00  0.00    +0.000 HD
BRANCH  24  26
ATOM     26  C   UNL     1      49.795   4.784  20.090  0.00  0.00    +0.000 C 
BRANCH  26  27
ATOM     27  C   UNL     1      49.086   4.244  18.863  0.00  0.00    +0.000 A 
ATOM     28  C   UNL     1      49.705   3.260  18.067  0.00  0.00    +0.000 A 
ATOM     29  C   UNL     1      49.062   2.713  16.955  0.00  0.00    +0.000 A 
ATOM     30  C   UNL     1      47.796   3.160  16.597  0.00  0.00    +0.000 A 
ATOM     31  C   UNL     1      47.187   4.174  17.336  0.00  0.00    +0.000 A 
ATOM     32  C   UNL     1      47.830   4.722  18.453  0.00  0.00    +0.000 A 
ATOM     33 CL   UNL     1      47.019   6.004  19.281  0.00  0.00    +0.000 Cl
ENDBRANCH  26  27
ENDBRANCH  24  26
ENDBRANCH  23  24
ENDBRANCH   4  23
TORSDOF 7
ENDMDL
