MODEL 1
REMARK VINA RESULT:    -7.863      0.000      0.000
REMARK INTER + INTRA:         -11.526
REMARK INTER:                 -10.620
REMARK INTRA:                  -0.905
REMARK UNBOUND:                -0.905
REMARK  Name = 
REMARK  6 active torsions:
REMARK  status: ('A' for Active; 'I' for Inactive)
REMARK    1  A    between atoms: C_2  and  C_3
REMARK    2  A    between atoms: C_6  and  O_7
REMARK    3  A    between atoms: O_7  and  C_8
REMARK    4  A    between atoms: C_8  and  C_9
REMARK    5  A    between atoms: C_14  and  N_15
REMARK    6  A    between atoms: C_19  and  C_20
REMARK                            x       y       z     vdW  Elec       q    Type
REMARK                         _______ _______ _______ _____ _____    ______ ____
ROOT
ATOM      1  C   UNL     1      45.063   4.044  11.930  0.00  0.00    +0.000 A 
ATOM      2  C   UNL     1      45.731   3.448  13.001  0.00  0.00    +0.000 A 
ATOM      3  C   UNL     1      46.712   4.163  13.676  0.00  0.00    +0.000 A 
ATOM      4  F   UNL     1      47.357   3.590  14.702  0.00  0.00    +0.000 F 
ATOM      5  C   UNL     1      47.028   5.471  13.322  0.00  0.00    +0.000 A 
ATOM      6  C   UNL     1      46.355   6.115  12.279  0.00  0.00    +0.000 A 
ATOM      7  C   UNL     1      45.391   5.366  11.581  0.00  0.00    +0.000 A 
ENDROOT
BRANCH   6   8
ATOM      8  N   UNL     1      46.578   7.443  11.970  0.00  0.00    +0.000 N 
ATOM      9  C   UNL     1      47.924   7.997  11.856  0.00  0.00    +0.000 C 
ATOM     10  C   UNL     1      47.992   9.285  12.677  0.00  0.00    +0.000 C 
ATOM     11  C   UNL     1      46.865  10.260  12.326  0.00  0.00    +0.000 C 
ATOM     12  C   UNL     1      45.483   9.590  12.363  0.00  0.00    +0.000 C 
ATOM     13  C   UNL     1      45.486   8.311  11.516  0.00  0.00    +0.000 C 
BRANCH  12  14
ATOM     14  C   UNL     1      44.402  10.536  11.871  0.00  0.00    +0.000 C 
ATOM     15  N   UNL     1      43.305   9.948  11.311  0.00  0.00    +0.000 N 
ATOM     16  O   UNL     1      44.475  11.759  11.934  0.00  0.00    +0.000 OA
ATOM     17  H   UNL     1      43.187   8.949  11.212  0.00  0.00    +0.000 HD
ATOM     18  H   UNL     1      42.573  10.559  10.965  0.00  0.00    +0.000 HD
ENDBRANCH  12  14
ENDBRANCH   6   8
BRANCH   1  19
ATOM     19  C   UNL     1      43.978   3.312  11.177  0.00  0.00    +0.000 C 
BRANCH  19  20
ATOM     20  O   UNL     1      43.830   3.851   9.858  0.00  0.00    +0.000 OA
BRANCH  20  24
ATOM     21  C   UNL     1      46.628   2.290   7.258  0.00  0.00    +0.000 A 
ATOM     22  C   UNL     1      46.017   1.451   8.193  0.00  0.00    +0.000 A 
ATOM     23  C   UNL     1      45.071   1.977   9.073  0.00  0.00    +0.000 A 
ATOM     24  C   UNL     1      44.765   3.328   8.985  0.00  0.00    +0.000 A 
ATOM     25  N   UNL     1      45.344   4.159   8.084  0.00  0.00    +0.000 NA
ATOM     26  C   UNL     1      46.257   3.623   7.246  0.00  0.00    +0.000 A 
BRANCH  21  28
ATOM     27  N   UNL     1      48.424   1.441   5.601  0.00  0.00    +0.000 NA
ATOM     28  C   UNL     1      47.611   1.815   6.340  0.00  0.00    +0.000 C 
ENDBRANCH  21  28
ENDBRANCH  20  24
ENDBRANCH  19  20
ENDBRANCH   1  19
TORSDOF 6
ENDMDL
MODEL 2
REMARK VINA RESULT:    -7.791      1.671      2.396
REMARK INTER + INTRA:         -11.429
REMARK INTER:                 -10.451
REMARK INTRA:                  -0.978
REMARK UNBOUND:                -0.905
REMARK  Name = 
REMARK  6 active torsions:
REMARK  status: ('A' for Active; 'I' for Inactive)
REMARK    1  A    between atoms: C_2  and  C_3
REMARK    2  A    between atoms: C_6  and  O_7
REMARK    3  A    between atoms: O_7  and  C_8
REMARK    4  A    between atoms: C_8  and  C_9
REMARK    5  A    between atoms: C_14  and  N_15
REMARK    6  A    between atoms: C_19  and  C_20
REMARK                            x       y       z     vdW  Elec       q    Type
REMARK                         _______ _______ _______ _____ _____    ______ ____
ROOT
ATOM      1  C   UNL     1      44.996   4.343  12.009  0.00  0.00    +0.000 A 
ATOM      2  C   UNL     1      45.697   3.473  12.846  0.00  0.00    +0.000 A 
ATOM      3  C   UNL     1      46.730   3.967  13.632  0.00  0.00    +0.000 A 
ATOM      4  F   UNL     1      47.406   3.131  14.432  0.00  0.00    +0.000 F 
ATOM      5  C   UNL     1      47.065   5.317  13.622  0.00  0.00    +0.000 A 
ATOM      6  C   UNL     1      46.362   6.226  12.825  0.00  0.00    +0.000 A 
ATOM      7  C   UNL     1      45.344   5.704  12.007  0.00  0.00    +0.000 A 
ENDROOT
BRANCH   6   8
ATOM      8  N   UNL     1      46.607   7.585  12.869  0.00  0.00    +0.000 N 
ATOM      9  C   UNL     1      45.530   8.564  12.977  0.00  0.00    +0.000 C 
ATOM     10  C   UNL     1      45.745   9.643  11.914  0.00  0.00    +0.000 C 
ATOM     11  C   UNL     1      47.156  10.234  11.963  0.00  0.00    +0.000 C 
ATOM     12  C   UNL     1      48.243   9.148  11.951  0.00  0.00    +0.000 C 
ATOM     13  C   UNL     1      47.968   8.105  13.042  0.00  0.00    +0.000 C 
BRANCH  12  14
ATOM     14  C   UNL     1      49.623   9.752  12.146  0.00  0.00    +0.000 C 
ATOM     15  N   UNL     1      49.848  10.345  13.354  0.00  0.00    +0.000 N 
ATOM     16  O   UNL     1      50.505   9.747  11.294  0.00  0.00    +0.000 OA
ATOM     17  H   UNL     1      49.162  10.401  14.095  0.00  0.00    +0.000 HD
ATOM     18  H   UNL     1      50.759  10.765  13.506  0.00  0.00    +0.000 HD
ENDBRANCH  12  14
ENDBRANCH   6   8
BRANCH   1  19
ATOM     19  C   UNL     1      43.855   3.854  11.149  0.00  0.00    +0.000 C 
BRANCH  19  20
ATOM     20  O   UNL     1      43.915   4.450   9.847  0.00  0.00    +0.000 OA
BRANCH  20  24
ATOM     21  C   UNL     1      46.565   2.460   7.387  0.00  0.00    +0.000 A 
ATOM     22  C   UNL     1      45.843   1.741   8.343  0.00  0.00    +0.000 A 
ATOM     23  C   UNL     1      44.947   2.413   9.175  0.00  0.00    +0.000 A 
ATOM     24  C   UNL     1      44.801   3.784   9.021  0.00  0.00    +0.000 A 
ATOM     25  N   UNL     1      45.489   4.500   8.099  0.00  0.00    +0.000 NA
ATOM     26  C   UNL     1      46.350   3.825   7.308  0.00  0.00    +0.000 A 
BRANCH  21  28
ATOM     27  N   UNL     1      48.253   1.320   5.794  0.00  0.00    +0.000 NA
ATOM     28  C   UNL     1      47.503   1.835   6.515  0.00  0.00    +0.000 C 
ENDBRANCH  21  28
ENDBRANCH  20  24
ENDBRANCH  19  20
ENDBRANCH   1  19
TORSDOF 6
ENDMDL
MODEL 3
REMARK VINA RESULT:    -7.530      3.473      4.847
REMARK INTER + INTRA:         -11.077
REMARK INTER:                 -10.236
REMARK INTRA:                  -0.841
REMARK UNBOUND:                -0.905
REMARK  Name = 
REMARK  6 active torsions:
REMARK  status: ('A' for Active; 'I' for Inactive)
REMARK    1  A    between atoms: C_2  and  C_3
REMARK    2  A    between atoms: C_6  and  O_7
REMARK    3  A    between atoms: O_7  and  C_8
REMARK    4  A    between atoms: C_8  and  C_9
REMARK    5  A    between atoms: C_14  and  N_15
REMARK    6  A    between atoms: C_19  and  C_20
REMARK                            x       y       z     vdW  Elec       q    Type
REMARK                         _______ _______ _______ _____ _____    ______ ____
ROOT
ATOM      1  C   UNL     1      45.598   4.949  12.233  0.00  0.00    +0.000 A 
ATOM      2  C   UNL     1      46.067   6.126  11.646  0.00  0.00    +0.000 A 
ATOM      3  C   UNL     1      47.010   6.894  12.317  0.00  0.00    +0.000 A 
ATOM      4  F   UNL     1      47.457   8.026  11.756  0.00  0.00    +0.000 F 
ATOM      5  C   UNL     1      47.515   6.504  13.554  0.00  0.00    +0.000 A 
ATOM      6  C   UNL     1      47.097   5.313  14.157  0.00  0.00    +0.000 A 
ATOM      7  C   UNL     1      46.116   4.565  13.483  0.00  0.00    +0.000 A 
ENDROOT
BRANCH   6   8
ATOM      8  N   UNL     1      47.653   4.851  15.334  0.00  0.00    +0.000 N 
ATOM      9  C   UNL     1      47.599   3.443  15.717  0.00  0.00    +0.000 C 
ATOM     10  C   UNL     1      47.109   3.351  17.163  0.00  0.00    +0.000 C 
ATOM     11  C   UNL     1      47.917   4.242  18.110  0.00  0.00    +0.000 C 
ATOM     12  C   UNL     1      48.025   5.688  17.598  0.00  0.00    +0.000 C 
ATOM     13  C   UNL     1      48.525   5.705  16.148  0.00  0.00    +0.000 C 
BRANCH  12  14
ATOM     14  C   UNL     1      48.949   6.512  18.476  0.00  0.00    +0.000 C 
ATOM     15  N   UNL     1      49.289   7.742  17.993  0.00  0.00    +0.000 N 
ATOM     16  O   UNL     1      49.401   6.131  19.551  0.00  0.00    +0.000 OA
ATOM     17  H   UNL     1      48.967   8.112  17.109  0.00  0.00    +0.000 HD
ATOM     18  H   UNL     1      49.914   8.309  18.557  0.00  0.00    +0.000 HD
ENDBRANCH  12  14
ENDBRANCH   6   8
BRANCH   1  19
ATOM     19  C   UNL     1      44.586   4.073  11.533  0.00  0.00    +0.000 C 
BRANCH  19  20
ATOM     20  O   UNL     1      44.348   4.546  10.202  0.00  0.00    +0.000 OA
BRANCH  20  24
ATOM     21  C   UNL     1      46.583   2.460   7.430  0.00  0.00    +0.000 A 
ATOM     22  C   UNL     1      45.887   1.759   8.418  0.00  0.00    +0.000 A 
ATOM     23  C   UNL     1      45.131   2.463   9.356  0.00  0.00    +0.000 A 
ATOM     24  C   UNL     1      45.095   3.848   9.272  0.00  0.00    +0.000 A 
ATOM     25  N   UNL     1      45.760   4.547   8.320  0.00  0.00    +0.000 NA
ATOM     26  C   UNL     1      46.485   3.840   7.426  0.00  0.00    +0.000 A 
BRANCH  21  28
ATOM     27  N   UNL     1      48.048   1.272   5.659  0.00  0.00    +0.000 NA
ATOM     28  C   UNL     1      47.382   1.800   6.451  0.00  0.00    +0.000 C 
ENDBRANCH  21  28
ENDBRANCH  20  24
ENDBRANCH  19  20
ENDBRANCH   1  19
TORSDOF 6
ENDMDL
MODEL 4
REMARK VINA RESULT:    -7.297      4.301      7.723
REMARK INTER + INTRA:         -10.762
REMARK INTER:                  -9.840
REMARK INTRA:                  -0.922
REMARK UNBOUND:                -0.905
REMARK  Name = 
REMARK  6 active torsions:
REMARK  status: ('A' for Active; 'I' for Inactive)
REMARK    1  A    between atoms: C_2  and  C_3
REMARK    2  A    between atoms: C_6  and  O_7
REMARK    3  A    between atoms: O_7  and  C_8
REMARK    4  A    between atoms: C_8  and  C_9
REMARK    5  A    between atoms: C_14  and  N_15
REMARK    6  A    between atoms: C_19  and  C_20
REMARK                            x       y       z     vdW  Elec       q    Type
REMARK                         _______ _______ _______ _____ _____    ______ ____
ROOT
ATOM      1  C   UNL     1      48.129   6.507  14.343  0.00  0.00    +0.000 A 
ATOM      2  C   UNL     1      48.823   7.370  13.494  0.00  0.00    +0.000 A 
ATOM      3  C   UNL     1      48.394   7.528  12.182  0.00  0.00    +0.000 A 
ATOM      4  F   UNL     1      49.063   8.353  11.365  0.00  0.00    +0.000 F 
ATOM      5  C   UNL     1      47.272   6.859  11.702  0.00  0.00    +0.000 A 
ATOM      6  C   UNL     1      46.529   6.015  12.533  0.00  0.00    +0.000 A 
ATOM      7  C   UNL     1      46.997   5.837  13.847  0.00  0.00    +0.000 A 
ENDROOT
BRANCH   6   8
ATOM      8  N   UNL     1      45.356   5.417  12.112  0.00  0.00    +0.000 N 
ATOM      9  C   UNL     1      44.130   5.476  12.903  0.00  0.00    +0.000 C 
ATOM     10  C   UNL     1      43.555   4.063  13.013  0.00  0.00    +0.000 C 
ATOM     11  C   UNL     1      43.406   3.386  11.649  0.00  0.00    +0.000 C 
ATOM     12  C   UNL     1      44.701   3.450  10.823  0.00  0.00    +0.000 C 
ATOM     13  C   UNL     1      45.218   4.892  10.749  0.00  0.00    +0.000 C 
BRANCH  12  14
ATOM     14  C   UNL     1      44.485   2.903   9.423  0.00  0.00    +0.000 C 
ATOM     15  N   UNL     1      44.182   3.825   8.464  0.00  0.00    +0.000 N 
ATOM     16  O   UNL     1      44.551   1.714   9.129  0.00  0.00    +0.000 OA
ATOM     17  H   UNL     1      44.096   4.817   8.639  0.00  0.00    +0.000 HD
ATOM     18  H   UNL     1      44.023   3.484   7.522  0.00  0.00    +0.000 HD
ENDBRANCH  12  14
ENDBRANCH   6   8
BRANCH   1  19
ATOM     19  C   UNL     1      48.547   6.318  15.782  0.00  0.00    +0.000 C 
BRANCH  19  20
ATOM     20  O   UNL     1      47.936   5.144  16.333  0.00  0.00    +0.000 OA
BRANCH  20  24
ATOM     21  C   UNL     1      50.753   2.325  17.403  0.00  0.00    +0.000 A 
ATOM     22  C   UNL     1      50.955   3.664  17.751  0.00  0.00    +0.000 A 
ATOM     23  C   UNL     1      50.004   4.618  17.389  0.00  0.00    +0.000 A 
ATOM     24  C   UNL     1      48.878   4.200  16.693  0.00  0.00    +0.000 A 
ATOM     25  N   UNL     1      48.662   2.906  16.349  0.00  0.00    +0.000 NA
ATOM     26  C   UNL     1      49.599   2.005  16.710  0.00  0.00    +0.000 A 
BRANCH  21  28
ATOM     27  N   UNL     1      52.463   0.484  18.018  0.00  0.00    +0.000 NA
ATOM     28  C   UNL     1      51.694   1.306  17.733  0.00  0.00    +0.000 C 
ENDBRANCH  21  28
ENDBRANCH  20  24
ENDBRANCH  19  20
ENDBRANCH   1  19
TORSDOF 6
ENDMDL
MODEL 5
REMARK VINA RESULT:    -7.270      2.795      3.870
REMARK INTER + INTRA:         -10.726
REMARK INTER:                  -9.750
REMARK INTRA:                  -0.975
REMARK UNBOUND:                -0.905
REMARK  Name = 
REMARK  6 active torsions:
REMARK  status: ('A' for Active; 'I' for Inactive)
REMARK    1  A    between atoms: C_2  and  C_3
REMARK    2  A    between atoms: C_6  and  O_7
REMARK    3  A    between atoms: O_7  and  C_8
REMARK    4  A    between atoms: C_8  and  C_9
REMARK    5  A    between atoms: C_14  and  N_15
REMARK    6  A    between atoms: C_19  and  C_20
REMARK                            x       y       z     vdW  Elec       q    Type
REMARK                         _______ _______ _______ _____ _____    ______ ____
ROOT
ATOM      1  C   UNL     1      44.795   4.967  11.775  0.00  0.00    +0.000 A 
ATOM      2  C   UNL     1      44.136   6.118  11.338  0.00  0.00    +0.000 A 
ATOM      3  C   UNL     1      44.671   7.365  11.635  0.00  0.00    +0.000 A 
ATOM      4  F   UNL     1      44.037   8.470  11.220  0.00  0.00    +0.000 F 
ATOM      5  C   UNL     1      45.865   7.492  12.339  0.00  0.00    +0.000 A 
ATOM      6  C   UNL     1      46.573   6.362  12.761  0.00  0.00    +0.000 A 
ATOM      7  C   UNL     1      46.000   5.108  12.485  0.00  0.00    +0.000 A 
ENDROOT
BRANCH   6   8
ATOM      8  N   UNL     1      47.808   6.456  13.374  0.00  0.00    +0.000 N 
ATOM      9  C   UNL     1      48.036   5.979  14.735  0.00  0.00    +0.000 C 
ATOM     10  C   UNL     1      48.754   7.076  15.522  0.00  0.00    +0.000 C 
ATOM     11  C   UNL     1      50.006   7.583  14.802  0.00  0.00    +0.000 C 
ATOM     12  C   UNL     1      49.722   7.972  13.343  0.00  0.00    +0.000 C 
ATOM     13  C   UNL     1      49.007   6.827  12.614  0.00  0.00    +0.000 C 
BRANCH  12  14
ATOM     14  C   UNL     1      51.003   8.332  12.612  0.00  0.00    +0.000 C 
ATOM     15  N   UNL     1      51.942   8.995  13.348  0.00  0.00    +0.000 N 
ATOM     16  O   UNL     1      51.218   8.082  11.431  0.00  0.00    +0.000 OA
ATOM     17  H   UNL     1      51.825   9.248  14.320  0.00  0.00    +0.000 HD
ATOM     18  H   UNL     1      52.804   9.256  12.880  0.00  0.00    +0.000 HD
ENDBRANCH  12  14
ENDBRANCH   6   8
BRANCH   1  19
ATOM     19  C   UNL     1      44.260   3.590  11.461  0.00  0.00    +0.000 C 
BRANCH  19  20
ATOM     20  O   UNL     1      43.726   3.550  10.131  0.00  0.00    +0.000 OA
BRANCH  20  24
ATOM     21  C   UNL     1      46.543   2.297   7.388  0.00  0.00    +0.000 A 
ATOM     22  C   UNL     1      46.157   3.640   7.411  0.00  0.00    +0.000 A 
ATOM     23  C   UNL     1      45.204   4.065   8.337  0.00  0.00    +0.000 A 
ATOM     24  C   UNL     1      44.671   3.131   9.215  0.00  0.00    +0.000 A 
ATOM     25  N   UNL     1      45.034   1.824   9.211  0.00  0.00    +0.000 NA
ATOM     26  C   UNL     1      45.956   1.441   8.303  0.00  0.00    +0.000 A 
BRANCH  21  28
ATOM     27  N   UNL     1      48.269   1.392   5.687  0.00  0.00    +0.000 NA
ATOM     28  C   UNL     1      47.502   1.799   6.458  0.00  0.00    +0.000 C 
ENDBRANCH  21  28
ENDBRANCH  20  24
ENDBRANCH  19  20
ENDBRANCH   1  19
TORSDOF 6
ENDMDL
MODEL 6
REMARK VINA RESULT:    -7.189      2.842      3.814
REMARK INTER + INTRA:         -10.616
REMARK INTER:                  -9.656
REMARK INTRA:                  -0.960
REMARK UNBOUND:                -0.905
REMARK  Name = 
REMARK  6 active torsions:
REMARK  status: ('A' for Active; 'I' for Inactive)
REMARK    1  A    between atoms: C_2  and  C_3
REMARK    2  A    between atoms: C_6  and  O_7
REMARK    3  A    between atoms: O_7  and  C_8
REMARK    4  A    between atoms: C_8  and  C_9
REMARK    5  A    between atoms: C_14  and  N_15
REMARK    6  A    between atoms: C_19  and  C_20
REMARK                            x       y       z     vdW  Elec       q    Type
REMARK                         _______ _______ _______ _____ _____    ______ ____
ROOT
ATOM      1  C   UNL     1      44.738   4.974  11.523  0.00  0.00    +0.000 A 
ATOM      2  C   UNL     1      43.676   5.798  11.147  0.00  0.00    +0.000 A 
ATOM      3  C   UNL     1      43.794   7.174  11.297  0.00  0.00    +0.000 A 
ATOM      4  F   UNL     1      42.773   7.966  10.940  0.00  0.00    +0.000 F 
ATOM      5  C   UNL     1      44.959   7.752  11.794  0.00  0.00    +0.000 A 
ATOM      6  C   UNL     1      46.058   6.962  12.146  0.00  0.00    +0.000 A 
ATOM      7  C   UNL     1      45.910   5.569  12.023  0.00  0.00    +0.000 A 
ENDROOT
BRANCH   6   8
ATOM      8  N   UNL     1      47.259   7.513  12.548  0.00  0.00    +0.000 N 
ATOM      9  C   UNL     1      48.093   8.298  11.642  0.00  0.00    +0.000 C 
ATOM     10  C   UNL     1      49.529   7.777  11.727  0.00  0.00    +0.000 C 
ATOM     11  C   UNL     1      50.038   7.707  13.169  0.00  0.00    +0.000 C 
ATOM     12  C   UNL     1      49.066   6.958  14.094  0.00  0.00    +0.000 C 
ATOM     13  C   UNL     1      47.650   7.534  13.962  0.00  0.00    +0.000 C 
BRANCH  12  14
ATOM     14  C   UNL     1      49.522   7.029  15.540  0.00  0.00    +0.000 C 
ATOM     15  N   UNL     1      48.535   6.966  16.480  0.00  0.00    +0.000 N 
ATOM     16  O   UNL     1      50.691   7.154  15.890  0.00  0.00    +0.000 OA
ATOM     17  H   UNL     1      47.551   6.880  16.263  0.00  0.00    +0.000 HD
ATOM     18  H   UNL     1      48.812   7.021  17.455  0.00  0.00    +0.000 HD
ENDBRANCH  12  14
ENDBRANCH   6   8
BRANCH   1  19
ATOM     19  C   UNL     1      44.662   3.475  11.361  0.00  0.00    +0.000 C 
BRANCH  19  20
ATOM     20  O   UNL     1      43.989   3.134  10.143  0.00  0.00    +0.000 OA
BRANCH  20  24
ATOM     21  C   UNL     1      46.655   2.202   7.133  0.00  0.00    +0.000 A 
ATOM     22  C   UNL     1      46.156   3.503   7.229  0.00  0.00    +0.000 A 
ATOM     23  C   UNL     1      45.255   3.820   8.246  0.00  0.00    +0.000 A 
ATOM     24  C   UNL     1      44.884   2.822   9.137  0.00  0.00    +0.000 A 
ATOM     25  N   UNL     1      45.358   1.554   9.062  0.00  0.00    +0.000 NA
ATOM     26  C   UNL     1      46.227   1.275   8.068  0.00  0.00    +0.000 A 
BRANCH  21  28
ATOM     27  N   UNL     1      48.297   1.494   5.264  0.00  0.00    +0.000 NA
ATOM     28  C   UNL     1      47.568   1.812   6.110  0.00  0.00    +0.000 C 
ENDBRANCH  21  28
ENDBRANCH  20  24
ENDBRANCH  19  20
ENDBRANCH   1  19
TORSDOF 6
ENDMDL
MODEL 7
REMARK VINA RESULT:    -7.139      2.395      3.319
REMARK INTER + INTRA:         -10.549
REMARK INTER:                  -9.700
REMARK INTRA:                  -0.848
REMARK UNBOUND:                -0.905
REMARK  Name = 
REMARK  6 active torsions:
REMARK  status: ('A' for Active; 'I' for Inactive)
REMARK    1  A    between atoms: C_2  and  C_3
REMARK    2  A    between atoms: C_6  and  O_7
REMARK    3  A    between atoms: O_7  and  C_8
REMARK    4  A    between atoms: C_8  and  C_9
REMARK    5  A    between atoms: C_14  and  N_15
REMARK    6  A    between atoms: C_19  and  C_20
REMARK                            x       y       z     vdW  Elec       q    Type
REMARK                         _______ _______ _______ _____ _____    ______ ____
ROOT
ATOM      1  C   UNL     1      44.862   4.667  10.242  0.00  0.00    +0.000 A 
ATOM      2  C   UNL     1      44.000   4.061  11.158  0.00  0.00    +0.000 A 
ATOM      3  C   UNL     1      44.026   4.461  12.488  0.00  0.00    +0.000 A 
ATOM      4  F   UNL     1      43.202   3.876  13.368  0.00  0.00    +0.000 F 
ATOM      5  C   UNL     1      44.878   5.471  12.923  0.00  0.00    +0.000 A 
ATOM      6  C   UNL     1      45.729   6.128  12.029  0.00  0.00    +0.000 A 
ATOM      7  C   UNL     1      45.718   5.686  10.694  0.00  0.00    +0.000 A 
ENDROOT
BRANCH   6   8
ATOM      8  N   UNL     1      46.513   7.199  12.413  0.00  0.00    +0.000 N 
ATOM      9  C   UNL     1      45.933   8.442  12.916  0.00  0.00    +0.000 C 
ATOM     10  C   UNL     1      46.576   9.614  12.171  0.00  0.00    +0.000 C 
ATOM     11  C   UNL     1      48.105   9.559  12.207  0.00  0.00    +0.000 C 
ATOM     12  C   UNL     1      48.648   8.190  11.766  0.00  0.00    +0.000 C 
ATOM     13  C   UNL     1      47.967   7.065  12.555  0.00  0.00    +0.000 C 
BRANCH  12  14
ATOM     14  C   UNL     1      50.154   8.115  11.949  0.00  0.00    +0.000 C 
ATOM     15  N   UNL     1      50.584   7.600  13.137  0.00  0.00    +0.000 N 
ATOM     16  O   UNL     1      50.970   8.496  11.117  0.00  0.00    +0.000 OA
ATOM     17  H   UNL     1      49.968   7.283  13.873  0.00  0.00    +0.000 HD
ATOM     18  H   UNL     1      51.586   7.548  13.288  0.00  0.00    +0.000 HD
ENDBRANCH  12  14
ENDBRANCH   6   8
BRANCH   1  19
ATOM     19  C   UNL     1      44.857   4.277   8.783  0.00  0.00    +0.000 C 
BRANCH  19  20
ATOM     20  O   UNL     1      46.163   4.437   8.216  0.00  0.00    +0.000 OA
BRANCH  20  24
ATOM     21  C   UNL     1      47.008   1.477   5.466  0.00  0.00    +0.000 A 
ATOM     22  C   UNL     1      46.892   1.145   6.819  0.00  0.00    +0.000 A 
ATOM     23  C   UNL     1      46.607   2.145   7.749  0.00  0.00    +0.000 A 
ATOM     24  C   UNL     1      46.444   3.446   7.294  0.00  0.00    +0.000 A 
ATOM     25  N   UNL     1      46.550   3.789   5.987  0.00  0.00    +0.000 NA
ATOM     26  C   UNL     1      46.828   2.802   5.109  0.00  0.00    +0.000 A 
BRANCH  21  28
ATOM     27  N   UNL     1      47.564  -0.273   3.646  0.00  0.00    +0.000 NA
ATOM     28  C   UNL     1      47.310   0.505   4.469  0.00  0.00    +0.000 C 
ENDBRANCH  21  28
ENDBRANCH  20  24
ENDBRANCH  19  20
ENDBRANCH   1  19
TORSDOF 6
ENDMDL
MODEL 8
REMARK VINA RESULT:    -6.800      4.125      8.320
REMARK INTER + INTRA:         -10.090
REMARK INTER:                  -9.197
REMARK INTRA:                  -0.893
REMARK UNBOUND:                -0.905
REMARK  Name = 
REMARK  6 active torsions:
REMARK  status: ('A' for Active; 'I' for Inactive)
REMARK    1  A    between atoms: C_2  and  C_3
REMARK    2  A    between atoms: C_6  and  O_7
REMARK    3  A    between atoms: O_7  and  C_8
REMARK    4  A    between atoms: C_8  and  C_9
REMARK    5  A    between atoms: C_14  and  N_15
REMARK    6  A    between atoms: C_19  and  C_20
REMARK                            x       y       z     vdW  Elec       q    Type
REMARK                         _______ _______ _______ _____ _____    ______ ____
ROOT
ATOM      1  C   UNL     1      47.285   7.294  13.629  0.00  0.00    +0.000 A 
ATOM      2  C   UNL     1      46.967   8.617  13.313  0.00  0.00    +0.000 A 
ATOM      3  C   UNL     1      45.872   8.880  12.500  0.00  0.00    +0.000 A 
ATOM      4  F   UNL     1      45.569  10.148  12.193  0.00  0.00    +0.000 F 
ATOM      5  C   UNL     1      45.069   7.853  12.012  0.00  0.00    +0.000 A 
ATOM      6  C   UNL     1      45.334   6.518  12.337  0.00  0.00    +0.000 A 
ATOM      7  C   UNL     1      46.467   6.266  13.130  0.00  0.00    +0.000 A 
ENDROOT
BRANCH   6   8
ATOM      8  N   UNL     1      44.498   5.489  11.949  0.00  0.00    +0.000 N 
ATOM      9  C   UNL     1      43.380   5.044  12.776  0.00  0.00    +0.000 C 
ATOM     10  C   UNL     1      43.440   3.520  12.896  0.00  0.00    +0.000 C 
ATOM     11  C   UNL     1      43.542   2.832  11.532  0.00  0.00    +0.000 C 
ATOM     12  C   UNL     1      44.671   3.416  10.669  0.00  0.00    +0.000 C 
ATOM     13  C   UNL     1      44.547   4.943  10.588  0.00  0.00    +0.000 C 
BRANCH  12  14
ATOM     14  C   UNL     1      44.658   2.819   9.273  0.00  0.00    +0.000 C 
ATOM     15  N   UNL     1      44.338   3.677   8.261  0.00  0.00    +0.000 N 
ATOM     16  O   UNL     1      44.895   1.642   9.024  0.00  0.00    +0.000 OA
ATOM     17  H   UNL     1      44.115   4.654   8.396  0.00  0.00    +0.000 HD
ATOM     18  H   UNL     1      44.312   3.300   7.319  0.00  0.00    +0.000 HD
ENDBRANCH  12  14
ENDBRANCH   6   8
BRANCH   1  19
ATOM     19  C   UNL     1      48.455   6.962  14.524  0.00  0.00    +0.000 C 
BRANCH  19  20
ATOM     20  O   UNL     1      48.440   5.573  14.875  0.00  0.00    +0.000 OA
BRANCH  20  24
ATOM     21  C   UNL     1      48.536   5.031  18.965  0.00  0.00    +0.000 A 
ATOM     22  C   UNL     1      49.479   5.866  18.361  0.00  0.00    +0.000 A 
ATOM     23  C   UNL     1      49.448   6.050  16.978  0.00  0.00    +0.000 A 
ATOM     24  C   UNL     1      48.470   5.393  16.244  0.00  0.00    +0.000 A 
ATOM     25  N   UNL     1      47.545   4.580  16.811  0.00  0.00    +0.000 NA
ATOM     26  C   UNL     1      47.599   4.419  18.150  0.00  0.00    +0.000 A 
BRANCH  21  28
ATOM     27  N   UNL     1      48.526   4.611  21.517  0.00  0.00    +0.000 NA
ATOM     28  C   UNL     1      48.522   4.792  20.370  0.00  0.00    +0.000 C 
ENDBRANCH  21  28
ENDBRANCH  20  24
ENDBRANCH  19  20
ENDBRANCH   1  19
TORSDOF 6
ENDMDL
MODEL 9
REMARK VINA RESULT:    -6.631      4.165      6.669
REMARK INTER + INTRA:          -9.863
REMARK INTER:                  -8.835
REMARK INTRA:                  -1.027
REMARK UNBOUND:                -0.905
REMARK  Name = 
REMARK  6 active torsions:
REMARK  status: ('A' for Active; 'I' for Inactive)
REMARK    1  A    between atoms: C_2  and  C_3
REMARK    2  A    between atoms: C_6  and  O_7
REMARK    3  A    between atoms: O_7  and  C_8
REMARK    4  A    between atoms: C_8  and  C_9
REMARK    5  A    between atoms: C_14  and  N_15
REMARK    6  A    between atoms: C_19  and  C_20
REMARK                            x       y       z     vdW  Elec       q    Type
REMARK                         _______ _______ _______ _____ _____    ______ ____
ROOT
ATOM      1  C   UNL     1      49.236   7.746  12.802  0.00  0.00    +0.000 A 
ATOM      2  C   UNL     1      50.308   8.628  12.649  0.00  0.00    +0.000 A 
ATOM      3  C   UNL     1      51.180   8.832  13.710  0.00  0.00    +0.000 A 
ATOM      4  F   UNL     1      52.206   9.682  13.565  0.00  0.00    +0.000 F 
ATOM      5  C   UNL     1      51.023   8.158  14.917  0.00  0.00    +0.000 A 
ATOM      6  C   UNL     1      49.984   7.239  15.096  0.00  0.00    +0.000 A 
ATOM      7  C   UNL     1      49.088   7.070  14.026  0.00  0.00    +0.000 A 
ENDROOT
BRANCH   6   8
ATOM      8  N   UNL     1      49.863   6.483  16.246  0.00  0.00    +0.000 N 
ATOM      9  C   UNL     1      51.004   6.201  17.113  0.00  0.00    +0.000 C 
ATOM     10  C   UNL     1      51.029   4.701  17.410  0.00  0.00    +0.000 C 
ATOM     11  C   UNL     1      49.685   4.187  17.932  0.00  0.00    +0.000 C 
ATOM     12  C   UNL     1      48.513   4.606  17.032  0.00  0.00    +0.000 C 
ATOM     13  C   UNL     1      48.545   6.119  16.780  0.00  0.00    +0.000 C 
BRANCH  12  14
ATOM     14  C   UNL     1      47.182   4.211  17.646  0.00  0.00    +0.000 C 
ATOM     15  N   UNL     1      46.645   5.103  18.528  0.00  0.00    +0.000 N 
ATOM     16  O   UNL     1      46.598   3.159  17.410  0.00  0.00    +0.000 OA
ATOM     17  H   UNL     1      47.079   5.980  18.782  0.00  0.00    +0.000 HD
ATOM     18  H   UNL     1      45.760   4.857  18.961  0.00  0.00    +0.000 HD
ENDBRANCH  12  14
ENDBRANCH   6   8
BRANCH   1  19
ATOM     19  C   UNL     1      48.272   7.479  11.671  0.00  0.00    +0.000 C 
BRANCH  19  20
ATOM     20  O   UNL     1      46.925   7.733  12.088  0.00  0.00    +0.000 OA
BRANCH  20  24
ATOM     21  C   UNL     1      44.539   4.392  11.668  0.00  0.00    +0.000 A 
ATOM     22  C   UNL     1      45.042   5.024  10.528  0.00  0.00    +0.000 A 
ATOM     23  C   UNL     1      45.849   6.154  10.668  0.00  0.00    +0.000 A 
ATOM     24  C   UNL     1      46.128   6.613  11.948  0.00  0.00    +0.000 A 
ATOM     25  N   UNL     1      45.652   6.013  13.067  0.00  0.00    +0.000 NA
ATOM     26  C   UNL     1      44.873   4.924  12.901  0.00  0.00    +0.000 A 
BRANCH  21  28
ATOM     27  N   UNL     1      43.010   2.312  11.510  0.00  0.00    +0.000 NA
ATOM     28  C   UNL     1      43.700   3.243  11.590  0.00  0.00    +0.000 C 
ENDBRANCH  21  28
ENDBRANCH  20  24
ENDBRANCH  19  20
ENDBRANCH   1  19
TORSDOF 6
ENDMDL
