MODEL 1
REMARK VINA RESULT:    -8.313      0.000      0.000
REMARK INTER + INTRA:         -11.244
REMARK INTER:                 -10.742
REMARK INTRA:                  -0.502
REMARK UNBOUND:                -0.502
REMARK  Name = 
REMARK  5 active torsions:
REMARK  status: ('A' for Active; 'I' for Inactive)
REMARK    1  A    between atoms: C_2  and  C_18
REMARK    2  A    between atoms: N_3  and  C_4
REMARK    3  A    between atoms: C_4  and  C_5
REMARK    4  A    between atoms: C_8  and  C_9
REMARK    5  A    between atoms: C_9  and  C_10
REMARK                            x       y       z     vdW  Elec       q    Type
REMARK                         _______ _______ _______ _____ _____    ______ ____
ROOT
ATOM      1  O   UNL     1      47.163   3.324  14.066  0.00  0.00    +0.000 OA
ATOM      2  C   UNL     1      46.940   4.502  14.293  0.00  0.00    +0.000 C 
ATOM      3  N   UNL     1      45.769   5.158  13.944  0.00  0.00    +0.000 N 
ATOM      4  H   UNL     1      45.572   6.044  14.401  0.00  0.00    +0.000 HD
ENDROOT
BRANCH   2   5
ATOM      5  C   UNL     1      47.752   5.343  15.156  0.00  0.00    +0.000 A 
ATOM      6  C   UNL     1      48.328   6.519  14.714  0.00  0.00    +0.000 A 
ATOM      7  S   UNL     1      49.708   6.921  15.653  0.00  0.00    +0.000 S 
ATOM      8  C   UNL     1      49.418   5.633  16.735  0.00  0.00    +0.000 A 
ATOM      9  N   UNL     1      50.302   5.269  17.700  0.00  0.00    +0.000 NA
ATOM     10  C   UNL     1      49.887   4.310  18.465  0.00  0.00    +0.000 A 
ATOM     11  N   UNL     1      48.648   3.721  18.388  0.00  0.00    +0.000 N 
ATOM     12  C   UNL     1      47.721   4.056  17.430  0.00  0.00    +0.000 A 
ATOM     13  O   UNL     1      46.595   3.573  17.416  0.00  0.00    +0.000 OA
ATOM     14  C   UNL     1      48.208   5.030  16.475  0.00  0.00    +0.000 A 
ATOM     15  H   UNL     1      48.349   3.046  19.078  0.00  0.00    +0.000 HD
ENDBRANCH   2   5
BRANCH   3  16
ATOM     16  C   UNL     1      44.620   4.457  13.453  0.00  0.00    +0.000 C 
BRANCH  16  17
ATOM     17  C   UNL     1      44.724   4.281  11.960  0.00  0.00    +0.000 A 
ATOM     18  C   UNL     1      44.236   3.118  11.355  0.00  0.00    +0.000 A 
ATOM     19  C   UNL     1      44.310   2.949   9.970  0.00  0.00    +0.000 A 
ATOM     20  C   UNL     1      44.891   3.935   9.161  0.00  0.00    +0.000 A 
ATOM     21  C   UNL     1      45.422   5.081   9.772  0.00  0.00    +0.000 A 
ATOM     22  C   UNL     1      45.347   5.247  11.159  0.00  0.00    +0.000 A 
BRANCH  20  23
ATOM     23  C   UNL     1      44.890   3.792   7.655  0.00  0.00    +0.000 C 
BRANCH  23  24
ATOM     24  C   UNL     1      46.020   2.947   7.149  0.00  0.00    +0.000 A 
ATOM     25  C   UNL     1      46.678   3.214   5.964  0.00  0.00    +0.000 A 
ATOM     26  N   UNL     1      47.644   2.432   5.445  0.00  0.00    +0.000 NA
ATOM     27  C   UNL     1      47.946   1.335   6.156  0.00  0.00    +0.000 A 
ATOM     28  N   UNL     1      47.401   0.980   7.328  0.00  0.00    +0.000 NA
ATOM     29  C   UNL     1      46.441   1.802   7.798  0.00  0.00    +0.000 A 
ENDBRANCH  23  24
ENDBRANCH  20  23
ENDBRANCH  16  17
ENDBRANCH   3  16
TORSDOF 5
ENDMDL
MODEL 2
REMARK VINA RESULT:    -7.751      1.782      2.836
REMARK INTER + INTRA:         -10.519
REMARK INTER:                  -9.668
REMARK INTRA:                  -0.851
REMARK UNBOUND:                -0.502
REMARK  Name = 
REMARK  5 active torsions:
REMARK  status: ('A' for Active; 'I' for Inactive)
REMARK    1  A    between atoms: C_2  and  C_18
REMARK    2  A    between atoms: N_3  and  C_4
REMARK    3  A    between atoms: C_4  and  C_5
REMARK    4  A    between atoms: C_8  and  C_9
REMARK    5  A    between atoms: C_9  and  C_10
REMARK                            x       y       z     vdW  Elec       q    Type
REMARK                         _______ _______ _______ _____ _____    ______ ____
ROOT
ATOM      1  O   UNL     1      47.242   3.640  14.518  0.00  0.00    +0.000 OA
ATOM      2  C   UNL     1      47.189   4.858  14.453  0.00  0.00    +0.000 C 
ATOM      3  N   UNL     1      46.124   5.567  13.917  0.00  0.00    +0.000 N 
ATOM      4  H   UNL     1      46.056   6.554  14.144  0.00  0.00    +0.000 HD
ENDROOT
BRANCH   2   5
ATOM      5  C   UNL     1      48.111   5.760  15.122  0.00  0.00    +0.000 A 
ATOM      6  C   UNL     1      48.491   5.587  16.439  0.00  0.00    +0.000 A 
ATOM      7  S   UNL     1      48.990   7.073  17.138  0.00  0.00    +0.000 S 
ATOM      8  C   UNL     1      48.863   7.885  15.641  0.00  0.00    +0.000 A 
ATOM      9  N   UNL     1      48.980   9.234  15.524  0.00  0.00    +0.000 NA
ATOM     10  C   UNL     1      48.915   9.666  14.305  0.00  0.00    +0.000 A 
ATOM     11  N   UNL     1      48.802   8.871  13.191  0.00  0.00    +0.000 N 
ATOM     12  C   UNL     1      48.683   7.503  13.260  0.00  0.00    +0.000 A 
ATOM     13  O   UNL     1      48.654   6.800  12.257  0.00  0.00    +0.000 OA
ATOM     14  C   UNL     1      48.614   7.000  14.617  0.00  0.00    +0.000 A 
ATOM     15  H   UNL     1      48.858   9.265  12.262  0.00  0.00    +0.000 HD
ENDBRANCH   2   5
BRANCH   3  16
ATOM     16  C   UNL     1      44.888   4.934  13.564  0.00  0.00    +0.000 C 
BRANCH  16  17
ATOM     17  C   UNL     1      44.883   4.601  12.095  0.00  0.00    +0.000 A 
ATOM     18  C   UNL     1      44.299   3.411  11.647  0.00  0.00    +0.000 A 
ATOM     19  C   UNL     1      44.271   3.096  10.287  0.00  0.00    +0.000 A 
ATOM     20  C   UNL     1      44.844   3.959   9.343  0.00  0.00    +0.000 A 
ATOM     21  C   UNL     1      45.469   5.131   9.795  0.00  0.00    +0.000 A 
ATOM     22  C   UNL     1      45.497   5.443  11.158  0.00  0.00    +0.000 A 
BRANCH  20  23
ATOM     23  C   UNL     1      44.734   3.663   7.864  0.00  0.00    +0.000 C 
BRANCH  23  24
ATOM     24  C   UNL     1      45.912   2.905   7.332  0.00  0.00    +0.000 A 
ATOM     25  C   UNL     1      46.599   3.295   6.199  0.00  0.00    +0.000 A 
ATOM     26  N   UNL     1      47.613   2.594   5.654  0.00  0.00    +0.000 NA
ATOM     27  C   UNL     1      47.933   1.453   6.282  0.00  0.00    +0.000 A 
ATOM     28  N   UNL     1      47.364   0.982   7.401  0.00  0.00    +0.000 NA
ATOM     29  C   UNL     1      46.357   1.726   7.900  0.00  0.00    +0.000 A 
ENDBRANCH  23  24
ENDBRANCH  20  23
ENDBRANCH  16  17
ENDBRANCH   3  16
TORSDOF 5
ENDMDL
MODEL 3
REMARK VINA RESULT:    -7.648      2.046      3.236
REMARK INTER + INTRA:         -10.386
REMARK INTER:                  -9.521
REMARK INTRA:                  -0.865
REMARK UNBOUND:                -0.502
REMARK  Name = 
REMARK  5 active torsions:
REMARK  status: ('A' for Active; 'I' for Inactive)
REMARK    1  A    between atoms: C_2  and  C_18
REMARK    2  A    between atoms: N_3  and  C_4
REMARK    3  A    between atoms: C_4  and  C_5
REMARK    4  A    between atoms: C_8  and  C_9
REMARK    5  A    between atoms: C_9  and  C_10
REMARK                            x       y       z     vdW  Elec       q    Type
REMARK                         _______ _______ _______ _____ _____    ______ ____
ROOT
ATOM      1  O   UNL     1      48.593   8.219  16.664  0.00  0.00    +0.000 OA
ATOM      2  C   UNL     1      48.757   7.049  16.358  0.00  0.00    +0.000 C 
ATOM      3  N   UNL     1      48.413   6.507  15.128  0.00  0.00    +0.000 N 
ATOM      4  H   UNL     1      48.822   5.612  14.878  0.00  0.00    +0.000 HD
ENDROOT
BRANCH   2   5
ATOM      5  C   UNL     1      49.538   6.097  17.128  0.00  0.00    +0.000 A 
ATOM      6  C   UNL     1      50.725   6.441  17.747  0.00  0.00    +0.000 A 
ATOM      7  S   UNL     1      51.724   5.064  17.976  0.00  0.00    +0.000 S 
ATOM      8  C   UNL     1      50.502   4.013  17.415  0.00  0.00    +0.000 A 
ATOM      9  N   UNL     1      50.719   2.692  17.179  0.00  0.00    +0.000 NA
ATOM     10  C   UNL     1      49.661   2.039  16.815  0.00  0.00    +0.000 A 
ATOM     11  N   UNL     1      48.399   2.573  16.720  0.00  0.00    +0.000 N 
ATOM     12  C   UNL     1      48.131   3.901  16.950  0.00  0.00    +0.000 A 
ATOM     13  O   UNL     1      46.991   4.350  16.930  0.00  0.00    +0.000 OA
ATOM     14  C   UNL     1      49.316   4.687  17.225  0.00  0.00    +0.000 A 
ATOM     15  H   UNL     1      47.599   1.986  16.527  0.00  0.00    +0.000 HD
ENDBRANCH   2   5
BRANCH   3  16
ATOM     16  C   UNL     1      48.006   7.323  14.022  0.00  0.00    +0.000 C 
BRANCH  16  17
ATOM     17  C   UNL     1      47.003   6.581  13.178  0.00  0.00    +0.000 A 
ATOM     18  C   UNL     1      46.256   7.265  12.213  0.00  0.00    +0.000 A 
ATOM     19  C   UNL     1      45.334   6.588  11.410  0.00  0.00    +0.000 A 
ATOM     20  C   UNL     1      45.128   5.211  11.569  0.00  0.00    +0.000 A 
ATOM     21  C   UNL     1      45.843   4.533  12.567  0.00  0.00    +0.000 A 
ATOM     22  C   UNL     1      46.764   5.214  13.370  0.00  0.00    +0.000 A 
BRANCH  20  23
ATOM     23  C   UNL     1      44.197   4.462  10.641  0.00  0.00    +0.000 C 
BRANCH  23  24
ATOM     24  C   UNL     1      44.920   3.780   9.518  0.00  0.00    +0.000 A 
ATOM     25  C   UNL     1      45.096   2.411   9.468  0.00  0.00    +0.000 A 
ATOM     26  N   UNL     1      45.805   1.777   8.514  0.00  0.00    +0.000 NA
ATOM     27  C   UNL     1      46.358   2.566   7.581  0.00  0.00    +0.000 A 
ATOM     28  N   UNL     1      46.239   3.900   7.504  0.00  0.00    +0.000 NA
ATOM     29  C   UNL     1      45.517   4.478   8.486  0.00  0.00    +0.000 A 
ENDBRANCH  23  24
ENDBRANCH  20  23
ENDBRANCH  16  17
ENDBRANCH   3  16
TORSDOF 5
ENDMDL
MODEL 4
REMARK VINA RESULT:    -7.639      3.315      4.651
REMARK INTER + INTRA:         -10.374
REMARK INTER:                  -9.043
REMARK INTRA:                  -1.331
REMARK UNBOUND:                -0.502
REMARK  Name = 
REMARK  5 active torsions:
REMARK  status: ('A' for Active; 'I' for Inactive)
REMARK    1  A    between atoms: C_2  and  C_18
REMARK    2  A    between atoms: N_3  and  C_4
REMARK    3  A    between atoms: C_4  and  C_5
REMARK    4  A    between atoms: C_8  and  C_9
REMARK    5  A    between atoms: C_9  and  C_10
REMARK                            x       y       z     vdW  Elec       q    Type
REMARK                         _______ _______ _______ _____ _____    ______ ____
ROOT
ATOM      1  O   UNL     1      50.185   7.267  15.641  0.00  0.00    +0.000 OA
ATOM      2  C   UNL     1      49.151   7.490  16.250  0.00  0.00    +0.000 C 
ATOM      3  N   UNL     1      48.226   8.458  15.889  0.00  0.00    +0.000 N 
ATOM      4  H   UNL     1      47.295   8.391  16.290  0.00  0.00    +0.000 HD
ENDROOT
BRANCH   2   5
ATOM      5  C   UNL     1      48.612   6.642  17.299  0.00  0.00    +0.000 A 
ATOM      6  C   UNL     1      48.686   6.982  18.637  0.00  0.00    +0.000 A 
ATOM      7  S   UNL     1      48.614   5.586  19.633  0.00  0.00    +0.000 S 
ATOM      8  C   UNL     1      48.310   4.574  18.292  0.00  0.00    +0.000 A 
ATOM      9  N   UNL     1      48.304   3.218  18.379  0.00  0.00    +0.000 NA
ATOM     10  C   UNL     1      47.996   2.618  17.274  0.00  0.00    +0.000 A 
ATOM     11  N   UNL     1      47.639   3.249  16.107  0.00  0.00    +0.000 N 
ATOM     12  C   UNL     1      47.629   4.616  15.971  0.00  0.00    +0.000 A 
ATOM     13  O   UNL     1      47.243   5.167  14.947  0.00  0.00    +0.000 OA
ATOM     14  C   UNL     1      48.102   5.314  17.149  0.00  0.00    +0.000 A 
ATOM     15  H   UNL     1      47.313   2.721  15.309  0.00  0.00    +0.000 HD
ENDBRANCH   2   5
BRANCH   3  16
ATOM     16  C   UNL     1      48.305   9.162  14.643  0.00  0.00    +0.000 C 
BRANCH  16  17
ATOM     17  C   UNL     1      47.625   8.365  13.560  0.00  0.00    +0.000 A 
ATOM     18  C   UNL     1      48.385   7.590  12.677  0.00  0.00    +0.000 A 
ATOM     19  C   UNL     1      47.768   6.833  11.678  0.00  0.00    +0.000 A 
ATOM     20  C   UNL     1      46.374   6.849  11.530  0.00  0.00    +0.000 A 
ATOM     21  C   UNL     1      45.615   7.662  12.385  0.00  0.00    +0.000 A 
ATOM     22  C   UNL     1      46.236   8.420  13.383  0.00  0.00    +0.000 A 
BRANCH  20  23
ATOM     23  C   UNL     1      45.700   5.960  10.508  0.00  0.00    +0.000 C 
BRANCH  23  24
ATOM     24  C   UNL     1      44.908   4.852  11.133  0.00  0.00    +0.000 A 
ATOM     25  C   UNL     1      45.361   4.134  12.223  0.00  0.00    +0.000 A 
ATOM     26  N   UNL     1      44.708   3.085  12.759  0.00  0.00    +0.000 NA
ATOM     27  C   UNL     1      43.555   2.751  12.159  0.00  0.00    +0.000 A 
ATOM     28  N   UNL     1      42.997   3.383  11.116  0.00  0.00    +0.000 NA
ATOM     29  C   UNL     1      43.696   4.425  10.624  0.00  0.00    +0.000 A 
ENDBRANCH  23  24
ENDBRANCH  20  23
ENDBRANCH  16  17
ENDBRANCH   3  16
TORSDOF 5
ENDMDL
MODEL 5
REMARK VINA RESULT:    -7.243      2.158      3.323
REMARK INTER + INTRA:          -9.862
REMARK INTER:                  -9.118
REMARK INTRA:                  -0.744
REMARK UNBOUND:                -0.502
REMARK  Name = 
REMARK  5 active torsions:
REMARK  status: ('A' for Active; 'I' for Inactive)
REMARK    1  A    between atoms: C_2  and  C_18
REMARK    2  A    between atoms: N_3  and  C_4
REMARK    3  A    between atoms: C_4  and  C_5
REMARK    4  A    between atoms: C_8  and  C_9
REMARK    5  A    between atoms: C_9  and  C_10
REMARK                            x       y       z     vdW  Elec       q    Type
REMARK                         _______ _______ _______ _____ _____    ______ ____
ROOT
ATOM      1  O   UNL     1      49.882   6.868  14.849  0.00  0.00    +0.000 OA
ATOM      2  C   UNL     1      48.907   7.295  15.448  0.00  0.00    +0.000 C 
ATOM      3  N   UNL     1      47.931   8.099  14.879  0.00  0.00    +0.000 N 
ATOM      4  H   UNL     1      47.046   8.181  15.369  0.00  0.00    +0.000 HD
ENDROOT
BRANCH   2   5
ATOM      5  C   UNL     1      48.490   6.851  16.767  0.00  0.00    +0.000 A 
ATOM      6  C   UNL     1      48.416   7.709  17.847  0.00  0.00    +0.000 A 
ATOM      7  S   UNL     1      48.570   6.852  19.327  0.00  0.00    +0.000 S 
ATOM      8  C   UNL     1      48.554   5.346  18.523  0.00  0.00    +0.000 A 
ATOM      9  N   UNL     1      48.816   4.173  19.155  0.00  0.00    +0.000 NA
ATOM     10  C   UNL     1      48.700   3.127  18.400  0.00  0.00    +0.000 A 
ATOM     11  N   UNL     1      48.292   3.144  17.088  0.00  0.00    +0.000 N 
ATOM     12  C   UNL     1      48.015   4.305  16.408  0.00  0.00    +0.000 A 
ATOM     13  O   UNL     1      47.585   4.303  15.261  0.00  0.00    +0.000 OA
ATOM     14  C   UNL     1      48.268   5.501  17.185  0.00  0.00    +0.000 A 
ATOM     15  H   UNL     1      48.126   2.284  16.584  0.00  0.00    +0.000 HD
ENDBRANCH   2   5
BRANCH   3  16
ATOM     16  C   UNL     1      47.874   8.347  13.469  0.00  0.00    +0.000 C 
BRANCH  16  17
ATOM     17  C   UNL     1      46.869   7.427  12.826  0.00  0.00    +0.000 A 
ATOM     18  C   UNL     1      45.688   7.946  12.284  0.00  0.00    +0.000 A 
ATOM     19  C   UNL     1      44.755   7.108  11.669  0.00  0.00    +0.000 A 
ATOM     20  C   UNL     1      44.976   5.726  11.599  0.00  0.00    +0.000 A 
ATOM     21  C   UNL     1      46.137   5.199  12.183  0.00  0.00    +0.000 A 
ATOM     22  C   UNL     1      47.069   6.040  12.799  0.00  0.00    +0.000 A 
BRANCH  20  23
ATOM     23  C   UNL     1      44.010   4.830  10.855  0.00  0.00    +0.000 C 
BRANCH  23  24
ATOM     24  C   UNL     1      44.669   4.044   9.762  0.00  0.00    +0.000 A 
ATOM     25  C   UNL     1      44.670   2.663   9.734  0.00  0.00    +0.000 A 
ATOM     26  N   UNL     1      45.317   1.928   8.809  0.00  0.00    +0.000 NA
ATOM     27  C   UNL     1      45.991   2.626   7.883  0.00  0.00    +0.000 A 
ATOM     28  N   UNL     1      46.045   3.962   7.786  0.00  0.00    +0.000 NA
ATOM     29  C   UNL     1      45.378   4.643   8.739  0.00  0.00    +0.000 A 
ENDBRANCH  23  24
ENDBRANCH  20  23
ENDBRANCH  16  17
ENDBRANCH   3  16
TORSDOF 5
ENDMDL
MODEL 6
REMARK VINA RESULT:    -6.628      3.298      4.795
REMARK INTER + INTRA:          -9.068
REMARK INTER:                  -8.365
REMARK INTRA:                  -0.703
REMARK UNBOUND:                -0.502
REMARK  Name = 
REMARK  5 active torsions:
REMARK  status: ('A' for Active; 'I' for Inactive)
REMARK    1  A    between atoms: C_2  and  C_18
REMARK    2  A    between atoms: N_3  and  C_4
REMARK    3  A    between atoms: C_4  and  C_5
REMARK    4  A    between atoms: C_8  and  C_9
REMARK    5  A    between atoms: C_9  and  C_10
REMARK                            x       y       z     vdW  Elec       q    Type
REMARK                         _______ _______ _______ _____ _____    ______ ____
ROOT
ATOM      1  O   UNL     1      50.236   6.191  15.760  0.00  0.00    +0.000 OA
ATOM      2  C   UNL     1      49.716   7.201  16.206  0.00  0.00    +0.000 C 
ATOM      3  N   UNL     1      49.422   8.327  15.451  0.00  0.00    +0.000 N 
ATOM      4  H   UNL     1      48.764   8.995  15.840  0.00  0.00    +0.000 HD
ENDROOT
BRANCH   2   5
ATOM      5  C   UNL     1      49.115   7.306  17.525  0.00  0.00    +0.000 A 
ATOM      6  C   UNL     1      49.096   8.491  18.237  0.00  0.00    +0.000 A 
ATOM      7  S   UNL     1      48.970   8.195  19.923  0.00  0.00    +0.000 S 
ATOM      8  C   UNL     1      48.766   6.518  19.672  0.00  0.00    +0.000 A 
ATOM      9  N   UNL     1      48.766   5.617  20.688  0.00  0.00    +0.000 NA
ATOM     10  C   UNL     1      48.538   4.398  20.314  0.00  0.00    +0.000 A 
ATOM     11  N   UNL     1      48.254   4.008  19.028  0.00  0.00    +0.000 N 
ATOM     12  C   UNL     1      48.242   4.883  17.969  0.00  0.00    +0.000 A 
ATOM     13  O   UNL     1      47.919   4.535  16.839  0.00  0.00    +0.000 OA
ATOM     14  C   UNL     1      48.628   6.231  18.332  0.00  0.00    +0.000 A 
ATOM     15  H   UNL     1      47.987   3.056  18.820  0.00  0.00    +0.000 HD
ENDBRANCH   2   5
BRANCH   3  16
ATOM     16  C   UNL     1      49.525   8.335  14.022  0.00  0.00    +0.000 C 
BRANCH  16  17
ATOM     17  C   UNL     1      48.223   7.887  13.410  0.00  0.00    +0.000 A 
ATOM     18  C   UNL     1      47.077   8.677  13.543  0.00  0.00    +0.000 A 
ATOM     19  C   UNL     1      45.866   8.284  12.966  0.00  0.00    +0.000 A 
ATOM     20  C   UNL     1      45.774   7.079  12.257  0.00  0.00    +0.000 A 
ATOM     21  C   UNL     1      46.911   6.264  12.162  0.00  0.00    +0.000 A 
ATOM     22  C   UNL     1      48.121   6.660  12.741  0.00  0.00    +0.000 A 
BRANCH  20  23
ATOM     23  C   UNL     1      44.488   6.697  11.556  0.00  0.00    +0.000 C 
BRANCH  23  24
ATOM     24  C   UNL     1      44.155   5.243  11.702  0.00  0.00    +0.000 A 
ATOM     25  C   UNL     1      43.952   4.412  10.617  0.00  0.00    +0.000 A 
ATOM     26  N   UNL     1      43.577   3.122  10.715  0.00  0.00    +0.000 NA
ATOM     27  C   UNL     1      43.397   2.664  11.963  0.00  0.00    +0.000 A 
ATOM     28  N   UNL     1      43.588   3.359  13.094  0.00  0.00    +0.000 NA
ATOM     29  C   UNL     1      43.963   4.643  12.932  0.00  0.00    +0.000 A 
ENDBRANCH  23  24
ENDBRANCH  20  23
ENDBRANCH  16  17
ENDBRANCH   3  16
TORSDOF 5
ENDMDL
MODEL 7
REMARK VINA RESULT:    -6.501      2.788      3.773
REMARK INTER + INTRA:          -8.903
REMARK INTER:                  -8.129
REMARK INTRA:                  -0.774
REMARK UNBOUND:                -0.502
REMARK  Name = 
REMARK  5 active torsions:
REMARK  status: ('A' for Active; 'I' for Inactive)
REMARK    1  A    between atoms: C_2  and  C_18
REMARK    2  A    between atoms: N_3  and  C_4
REMARK    3  A    between atoms: C_4  and  C_5
REMARK    4  A    between atoms: C_8  and  C_9
REMARK    5  A    between atoms: C_9  and  C_10
REMARK                            x       y       z     vdW  Elec       q    Type
REMARK                         _______ _______ _______ _____ _____    ______ ____
ROOT
ATOM      1  O   UNL     1      49.911   9.068  15.385  0.00  0.00    +0.000 OA
ATOM      2  C   UNL     1      49.157   8.183  15.757  0.00  0.00    +0.000 C 
ATOM      3  N   UNL     1      47.976   7.842  15.115  0.00  0.00    +0.000 N 
ATOM      4  H   UNL     1      47.563   6.941  15.338  0.00  0.00    +0.000 HD
ENDROOT
BRANCH   2   5
ATOM      5  C   UNL     1      49.476   7.204  16.781  0.00  0.00    +0.000 A 
ATOM      6  C   UNL     1      50.296   6.118  16.536  0.00  0.00    +0.000 A 
ATOM      7  S   UNL     1      49.964   4.836  17.628  0.00  0.00    +0.000 S 
ATOM      8  C   UNL     1      48.868   5.799  18.516  0.00  0.00    +0.000 A 
ATOM      9  N   UNL     1      48.076   5.296  19.498  0.00  0.00    +0.000 NA
ATOM     10  C   UNL     1      47.353   6.185  20.101  0.00  0.00    +0.000 A 
ATOM     11  N   UNL     1      47.391   7.535  19.851  0.00  0.00    +0.000 N 
ATOM     12  C   UNL     1      48.177   8.089  18.869  0.00  0.00    +0.000 A 
ATOM     13  O   UNL     1      48.255   9.301  18.702  0.00  0.00    +0.000 OA
ATOM     14  C   UNL     1      48.895   7.106  18.084  0.00  0.00    +0.000 A 
ATOM     15  H   UNL     1      46.874   8.186  20.425  0.00  0.00    +0.000 HD
ENDBRANCH   2   5
BRANCH   3  16
ATOM     16  C   UNL     1      47.626   8.371  13.830  0.00  0.00    +0.000 C 
BRANCH  16  17
ATOM     17  C   UNL     1      46.785   7.375  13.075  0.00  0.00    +0.000 A 
ATOM     18  C   UNL     1      46.967   6.003  13.282  0.00  0.00    +0.000 A 
ATOM     19  C   UNL     1      46.183   5.067  12.603  0.00  0.00    +0.000 A 
ATOM     20  C   UNL     1      45.208   5.485  11.686  0.00  0.00    +0.000 A 
ATOM     21  C   UNL     1      45.056   6.858  11.444  0.00  0.00    +0.000 A 
ATOM     22  C   UNL     1      45.844   7.793  12.124  0.00  0.00    +0.000 A 
BRANCH  20  23
ATOM     23  C   UNL     1      44.299   4.477  11.019  0.00  0.00    +0.000 C 
BRANCH  23  24
ATOM     24  C   UNL     1      44.911   3.858   9.799  0.00  0.00    +0.000 A 
ATOM     25  C   UNL     1      45.016   2.491   9.630  0.00  0.00    +0.000 A 
ATOM     26  N   UNL     1      45.629   1.906   8.582  0.00  0.00    +0.000 NA
ATOM     27  C   UNL     1      46.157   2.744   7.677  0.00  0.00    +0.000 A 
ATOM     28  N   UNL     1      46.097   4.083   7.713  0.00  0.00    +0.000 NA
ATOM     29  C   UNL     1      45.472   4.610   8.785  0.00  0.00    +0.000 A 
ENDBRANCH  23  24
ENDBRANCH  20  23
ENDBRANCH  16  17
ENDBRANCH   3  16
TORSDOF 5
ENDMDL
MODEL 8
REMARK VINA RESULT:    -6.494      3.428      9.134
REMARK INTER + INTRA:          -8.894
REMARK INTER:                  -7.865
REMARK INTRA:                  -1.029
REMARK UNBOUND:                -0.502
REMARK  Name = 
REMARK  5 active torsions:
REMARK  status: ('A' for Active; 'I' for Inactive)
REMARK    1  A    between atoms: C_2  and  C_18
REMARK    2  A    between atoms: N_3  and  C_4
REMARK    3  A    between atoms: C_4  and  C_5
REMARK    4  A    between atoms: C_8  and  C_9
REMARK    5  A    between atoms: C_9  and  C_10
REMARK                            x       y       z     vdW  Elec       q    Type
REMARK                         _______ _______ _______ _____ _____    ______ ____
ROOT
ATOM      1  O   UNL     1      44.400   7.741  11.676  0.00  0.00    +0.000 OA
ATOM      2  C   UNL     1      45.423   7.138  11.397  0.00  0.00    +0.000 C 
ATOM      3  N   UNL     1      46.692   7.521  11.805  0.00  0.00    +0.000 N 
ATOM      4  H   UNL     1      47.432   6.828  11.751  0.00  0.00    +0.000 HD
ENDROOT
BRANCH   2   5
ATOM      5  C   UNL     1      45.463   5.814  10.799  0.00  0.00    +0.000 A 
ATOM      6  C   UNL     1      45.840   5.607   9.486  0.00  0.00    +0.000 A 
ATOM      7  S   UNL     1      45.171   4.148   8.876  0.00  0.00    +0.000 S 
ATOM      8  C   UNL     1      44.542   3.729  10.406  0.00  0.00    +0.000 A 
ATOM      9  N   UNL     1      43.701   2.678  10.593  0.00  0.00    +0.000 NA
ATOM     10  C   UNL     1      43.374   2.475  11.830  0.00  0.00    +0.000 A 
ATOM     11  N   UNL     1      43.854   3.191  12.900  0.00  0.00    +0.000 N 
ATOM     12  C   UNL     1      44.707   4.260  12.760  0.00  0.00    +0.000 A 
ATOM     13  O   UNL     1      45.183   4.845  13.725  0.00  0.00    +0.000 OA
ATOM     14  C   UNL     1      44.983   4.598  11.379  0.00  0.00    +0.000 A 
ATOM     15  H   UNL     1      43.637   2.918  13.848  0.00  0.00    +0.000 HD
ENDBRANCH   2   5
BRANCH   3  16
ATOM     16  C   UNL     1      46.902   8.565  12.764  0.00  0.00    +0.000 C 
BRANCH  16  17
ATOM     17  C   UNL     1      47.701   8.039  13.929  0.00  0.00    +0.000 A 
ATOM     18  C   UNL     1      48.199   8.921  14.893  0.00  0.00    +0.000 A 
ATOM     19  C   UNL     1      48.927   8.447  15.988  0.00  0.00    +0.000 A 
ATOM     20  C   UNL     1      49.186   7.078  16.131  0.00  0.00    +0.000 A 
ATOM     21  C   UNL     1      48.726   6.197  15.141  0.00  0.00    +0.000 A 
ATOM     22  C   UNL     1      47.999   6.675  14.046  0.00  0.00    +0.000 A 
BRANCH  20  23
ATOM     23  C   UNL     1      49.895   6.555  17.361  0.00  0.00    +0.000 C 
BRANCH  23  24
ATOM     24  C   UNL     1      49.060   6.656  18.602  0.00  0.00    +0.000 A 
ATOM     25  C   UNL     1      47.988   5.819  18.848  0.00  0.00    +0.000 A 
ATOM     26  N   UNL     1      47.173   5.933  19.915  0.00  0.00    +0.000 NA
ATOM     27  C   UNL     1      47.456   6.939  20.757  0.00  0.00    +0.000 A 
ATOM     28  N   UNL     1      48.479   7.798  20.643  0.00  0.00    +0.000 NA
ATOM     29  C   UNL     1      49.260   7.634  19.557  0.00  0.00    +0.000 A 
ENDBRANCH  23  24
ENDBRANCH  20  23
ENDBRANCH  16  17
ENDBRANCH   3  16
TORSDOF 5
ENDMDL
MODEL 9
REMARK VINA RESULT:    -6.465      3.177      3.869
REMARK INTER + INTRA:          -8.857
REMARK INTER:                  -8.062
REMARK INTRA:                  -0.795
REMARK UNBOUND:                -0.502
REMARK  Name = 
REMARK  5 active torsions:
REMARK  status: ('A' for Active; 'I' for Inactive)
REMARK    1  A    between atoms: C_2  and  C_18
REMARK    2  A    between atoms: N_3  and  C_4
REMARK    3  A    between atoms: C_4  and  C_5
REMARK    4  A    between atoms: C_8  and  C_9
REMARK    5  A    between atoms: C_9  and  C_10
REMARK                            x       y       z     vdW  Elec       q    Type
REMARK                         _______ _______ _______ _____ _____    ______ ____
ROOT
ATOM      1  O   UNL     1      48.463   9.735  13.163  0.00  0.00    +0.000 OA
ATOM      2  C   UNL     1      47.902   9.076  14.024  0.00  0.00    +0.000 C 
ATOM      3  N   UNL     1      46.556   8.743  13.999  0.00  0.00    +0.000 N 
ATOM      4  H   UNL     1      46.247   7.988  14.604  0.00  0.00    +0.000 HD
ENDROOT
BRANCH   2   5
ATOM      5  C   UNL     1      48.583   8.346  15.079  0.00  0.00    +0.000 A 
ATOM      6  C   UNL     1      49.009   7.041  14.920  0.00  0.00    +0.000 A 
ATOM      7  S   UNL     1      49.138   6.245  16.436  0.00  0.00    +0.000 S 
ATOM      8  C   UNL     1      48.800   7.687  17.286  0.00  0.00    +0.000 A 
ATOM      9  N   UNL     1      48.582   7.716  18.627  0.00  0.00    +0.000 NA
ATOM     10  C   UNL     1      48.400   8.905  19.107  0.00  0.00    +0.000 A 
ATOM     11  N   UNL     1      48.472  10.069  18.381  0.00  0.00    +0.000 N 
ATOM     12  C   UNL     1      48.691  10.089  17.024  0.00  0.00    +0.000 A 
ATOM     13  O   UNL     1      48.823  11.134  16.400  0.00  0.00    +0.000 OA
ATOM     14  C   UNL     1      48.762   8.767  16.434  0.00  0.00    +0.000 A 
ATOM     15  H   UNL     1      48.419  10.970  18.835  0.00  0.00    +0.000 HD
ENDBRANCH   2   5
BRANCH   3  16
ATOM     16  C   UNL     1      45.732   8.980  12.850  0.00  0.00    +0.000 C 
BRANCH  16  17
ATOM     17  C   UNL     1      45.355   7.670  12.210  0.00  0.00    +0.000 A 
ATOM     18  C   UNL     1      46.259   6.603  12.209  0.00  0.00    +0.000 A 
ATOM     19  C   UNL     1      45.917   5.376  11.634  0.00  0.00    +0.000 A 
ATOM     20  C   UNL     1      44.666   5.196  11.030  0.00  0.00    +0.000 A 
ATOM     21  C   UNL     1      43.776   6.280  10.990  0.00  0.00    +0.000 A 
ATOM     22  C   UNL     1      44.121   7.507  11.565  0.00  0.00    +0.000 A 
BRANCH  20  23
ATOM     23  C   UNL     1      44.261   3.843  10.489  0.00  0.00    +0.000 C 
BRANCH  23  24
ATOM     24  C   UNL     1      45.101   3.405   9.327  0.00  0.00    +0.000 A 
ATOM     25  C   UNL     1      45.529   4.279   8.346  0.00  0.00    +0.000 A 
ATOM     26  N   UNL     1      46.219   3.904   7.252  0.00  0.00    +0.000 NA
ATOM     27  C   UNL     1      46.477   2.592   7.150  0.00  0.00    +0.000 A 
ATOM     28  N   UNL     1      46.141   1.650   8.044  0.00  0.00    +0.000 NA
ATOM     29  C   UNL     1      45.453   2.086   9.118  0.00  0.00    +0.000 A 
ENDBRANCH  23  24
ENDBRANCH  20  23
ENDBRANCH  16  17
ENDBRANCH   3  16
TORSDOF 5
ENDMDL
