MODEL 1
REMARK VINA RESULT:    -7.824      0.000      0.000
REMARK INTER + INTRA:         -10.913
REMARK INTER:                 -10.111
REMARK INTRA:                  -0.802
REMARK UNBOUND:                -0.802
REMARK  Name = 
REMARK  5 active torsions:
REMARK  status: ('A' for Active; 'I' for Inactive)
REMARK    1  A    between atoms: C_2  and  C_4
REMARK    2  A    between atoms: C_7  and  O_8
REMARK    3  A    between atoms: O_8  and  C_9
REMARK    4  A    between atoms: C_9  and  C_10
REMARK    5  A    between atoms: C_14  and  C_15
REMARK                            x       y       z     vdW  Elec       q    Type
REMARK                         _______ _______ _______ _____ _____    ______ ____
ROOT
ATOM      1  C   UNL     1      44.181   5.472  10.422  0.00  0.00    +0.000 C 
ENDROOT
BRANCH   1   2
ATOM      2  C   UNL     1      45.156   5.395  11.566  0.00  0.00    +0.000 A 
ATOM      3  C   UNL     1      44.933   4.519  12.630  0.00  0.00    +0.000 A 
ATOM      4  C   UNL     1      45.832   4.475  13.688  0.00  0.00    +0.000 A 
ATOM      5  C   UNL     1      46.965   5.295  13.679  0.00  0.00    +0.000 A 
ATOM      6  C   UNL     1      47.240   6.156  12.601  0.00  0.00    +0.000 A 
ATOM      7  C   UNL     1      46.309   6.196  11.555  0.00  0.00    +0.000 A 
BRANCH   6   8
ATOM      8  C   UNL     1      48.471   7.061  12.652  0.00  0.00    +0.000 C 
ATOM      9  C   UNL     1      48.958   7.488  14.053  0.00  0.00    +0.000 C 
ATOM     10  C   UNL     1      48.113   8.618  14.647  0.00  0.00    +0.000 C 
ATOM     11  N   UNL     1      48.100   9.788  13.770  0.00  0.00    +0.000 NA
ATOM     12  C   UNL     1      47.548   9.442  12.460  0.00  0.00    +0.000 C 
ATOM     13  C   UNL     1      48.338   8.326  11.777  0.00  0.00    +0.000 C 
ATOM     14  H   UNL     1      49.054  10.129  13.654  0.00  0.00    +0.000 HD
ENDBRANCH   6   8
ENDBRANCH   1   2
BRANCH   1  15
ATOM     15  O   UNL     1      43.837   4.139  10.048  0.00  0.00    +0.000 OA
BRANCH  15  19
ATOM     16  C   UNL     1      46.567   2.430   7.505  0.00  0.00    +0.000 A 
ATOM     17  C   UNL     1      45.922   1.635   8.454  0.00  0.00    +0.000 A 
ATOM     18  C   UNL     1      45.008   2.228   9.324  0.00  0.00    +0.000 A 
ATOM     19  C   UNL     1      44.777   3.590   9.204  0.00  0.00    +0.000 A 
ATOM     20  N   UNL     1      45.407   4.384   8.311  0.00  0.00    +0.000 NA
ATOM     21  C   UNL     1      46.297   3.788   7.485  0.00  0.00    +0.000 A 
BRANCH  16  23
ATOM     22  N   UNL     1      48.652   2.623   6.286  0.00  0.00    +0.000 N 
ATOM     23  C   UNL     1      47.517   1.896   6.511  0.00  0.00    +0.000 C 
ATOM     24  O   UNL     1      47.323   0.822   5.956  0.00  0.00    +0.000 OA
ATOM     25  H   UNL     1      49.357   2.172   5.717  0.00  0.00    +0.000 HD
ATOM     26  H   UNL     1      48.959   3.349   6.917  0.00  0.00    +0.000 HD
ENDBRANCH  16  23
ENDBRANCH  15  19
ENDBRANCH   1  15
TORSDOF 5
ENDMDL
MODEL 2
REMARK VINA RESULT:    -7.524      1.163      1.695
REMARK INTER + INTRA:         -10.525
REMARK INTER:                 -10.145
REMARK INTRA:                  -0.380
REMARK UNBOUND:                -0.802
REMARK  Name = 
REMARK  5 active torsions:
REMARK  status: ('A' for Active; 'I' for Inactive)
REMARK    1  A    between atoms: C_2  and  C_4
REMARK    2  A    between atoms: C_7  and  O_8
REMARK    3  A    between atoms: O_8  and  C_9
REMARK    4  A    between atoms: C_9  and  C_10
REMARK    5  A    between atoms: C_14  and  C_15
REMARK                            x       y       z     vdW  Elec       q    Type
REMARK                         _______ _______ _______ _____ _____    ______ ____
ROOT
ATOM      1  C   UNL     1      43.554   4.344  11.260  0.00  0.00    +0.000 C 
ENDROOT
BRANCH   1   2
ATOM      2  C   UNL     1      44.797   4.773  11.993  0.00  0.00    +0.000 A 
ATOM      3  C   UNL     1      45.397   3.926  12.927  0.00  0.00    +0.000 A 
ATOM      4  C   UNL     1      46.532   4.346  13.609  0.00  0.00    +0.000 A 
ATOM      5  C   UNL     1      47.080   5.606  13.348  0.00  0.00    +0.000 A 
ATOM      6  C   UNL     1      46.525   6.464  12.381  0.00  0.00    +0.000 A 
ATOM      7  C   UNL     1      45.369   6.026  11.721  0.00  0.00    +0.000 A 
BRANCH   6   8
ATOM      8  C   UNL     1      47.135   7.847  12.157  0.00  0.00    +0.000 C 
ATOM      9  C   UNL     1      48.591   7.885  11.644  0.00  0.00    +0.000 C 
ATOM     10  C   UNL     1      49.611   7.624  12.755  0.00  0.00    +0.000 C 
ATOM     11  N   UNL     1      49.466   8.587  13.846  0.00  0.00    +0.000 NA
ATOM     12  C   UNL     1      48.125   8.507  14.425  0.00  0.00    +0.000 C 
ATOM     13  C   UNL     1      47.031   8.771  13.390  0.00  0.00    +0.000 C 
ATOM     14  H   UNL     1      49.620   9.528  13.484  0.00  0.00    +0.000 HD
ENDBRANCH   6   8
ENDBRANCH   1   2
BRANCH   1  15
ATOM     15  O   UNL     1      43.719   4.680   9.883  0.00  0.00    +0.000 OA
BRANCH  15  19
ATOM     16  C   UNL     1      46.211   2.036   7.975  0.00  0.00    +0.000 A 
ATOM     17  C   UNL     1      46.310   3.400   7.692  0.00  0.00    +0.000 A 
ATOM     18  C   UNL     1      45.449   4.288   8.334  0.00  0.00    +0.000 A 
ATOM     19  C   UNL     1      44.527   3.774   9.233  0.00  0.00    +0.000 A 
ATOM     20  N   UNL     1      44.395   2.458   9.504  0.00  0.00    +0.000 NA
ATOM     21  C   UNL     1      45.234   1.614   8.861  0.00  0.00    +0.000 A 
BRANCH  16  23
ATOM     22  N   UNL     1      48.087   1.467   6.552  0.00  0.00    +0.000 N 
ATOM     23  C   UNL     1      47.101   1.019   7.385  0.00  0.00    +0.000 C 
ATOM     24  O   UNL     1      46.995  -0.166   7.673  0.00  0.00    +0.000 OA
ATOM     25  H   UNL     1      48.776   0.778   6.275  0.00  0.00    +0.000 HD
ATOM     26  H   UNL     1      48.363   2.438   6.519  0.00  0.00    +0.000 HD
ENDBRANCH  16  23
ENDBRANCH  15  19
ENDBRANCH   1  15
TORSDOF 5
ENDMDL
MODEL 3
REMARK VINA RESULT:    -7.505      1.228      2.009
REMARK INTER + INTRA:         -10.501
REMARK INTER:                  -9.827
REMARK INTRA:                  -0.674
REMARK UNBOUND:                -0.802
REMARK  Name = 
REMARK  5 active torsions:
REMARK  status: ('A' for Active; 'I' for Inactive)
REMARK    1  A    between atoms: C_2  and  C_4
REMARK    2  A    between atoms: C_7  and  O_8
REMARK    3  A    between atoms: O_8  and  C_9
REMARK    4  A    between atoms: C_9  and  C_10
REMARK    5  A    between atoms: C_14  and  C_15
REMARK                            x       y       z     vdW  Elec       q    Type
REMARK                         _______ _______ _______ _____ _____    ______ ____
ROOT
ATOM      1  C   UNL     1      44.385   3.310  11.378  0.00  0.00    +0.000 C 
ENDROOT
BRANCH   1   2
ATOM      2  C   UNL     1      44.597   4.777  11.644  0.00  0.00    +0.000 A 
ATOM      3  C   UNL     1      43.672   5.720  11.193  0.00  0.00    +0.000 A 
ATOM      4  C   UNL     1      43.894   7.071  11.430  0.00  0.00    +0.000 A 
ATOM      5  C   UNL     1      45.030   7.482  12.131  0.00  0.00    +0.000 A 
ATOM      6  C   UNL     1      45.958   6.553  12.637  0.00  0.00    +0.000 A 
ATOM      7  C   UNL     1      45.723   5.198  12.369  0.00  0.00    +0.000 A 
BRANCH   6   8
ATOM      8  C   UNL     1      47.206   7.051  13.366  0.00  0.00    +0.000 C 
ATOM      9  C   UNL     1      47.243   8.552  13.727  0.00  0.00    +0.000 C 
ATOM     10  C   UNL     1      47.603   9.433  12.529  0.00  0.00    +0.000 C 
ATOM     11  N   UNL     1      48.891   9.049  11.954  0.00  0.00    +0.000 NA
ATOM     12  C   UNL     1      48.859   7.657  11.506  0.00  0.00    +0.000 C 
ATOM     13  C   UNL     1      48.523   6.692  12.644  0.00  0.00    +0.000 C 
ATOM     14  H   UNL     1      49.618   9.159  12.661  0.00  0.00    +0.000 HD
ENDBRANCH   6   8
ENDBRANCH   1   2
BRANCH   1  15
ATOM     15  O   UNL     1      43.813   3.179  10.078  0.00  0.00    +0.000 OA
BRANCH  15  19
ATOM     16  C   UNL     1      46.709   2.330   7.297  0.00  0.00    +0.000 A 
ATOM     17  C   UNL     1      46.180   3.620   7.365  0.00  0.00    +0.000 A 
ATOM     18  C   UNL     1      45.187   3.895   8.303  0.00  0.00    +0.000 A 
ATOM     19  C   UNL     1      44.766   2.867   9.133  0.00  0.00    +0.000 A 
ATOM     20  N   UNL     1      45.243   1.605   9.068  0.00  0.00    +0.000 NA
ATOM     21  C   UNL     1      46.199   1.360   8.144  0.00  0.00    +0.000 A 
BRANCH  16  23
ATOM     22  N   UNL     1      48.850   2.804   6.265  0.00  0.00    +0.000 N 
ATOM     23  C   UNL     1      47.792   1.945   6.372  0.00  0.00    +0.000 C 
ATOM     24  O   UNL     1      47.770   0.879   5.772  0.00  0.00    +0.000 OA
ATOM     25  H   UNL     1      49.646   2.458   5.745  0.00  0.00    +0.000 HD
ATOM     26  H   UNL     1      49.018   3.536   6.941  0.00  0.00    +0.000 HD
ENDBRANCH  16  23
ENDBRANCH  15  19
ENDBRANCH   1  15
TORSDOF 5
ENDMDL
MODEL 4
REMARK VINA RESULT:    -7.366      2.343      3.202
REMARK INTER + INTRA:         -10.321
REMARK INTER:                  -9.531
REMARK INTRA:                  -0.790
REMARK UNBOUND:                -0.802
REMARK  Name = 
REMARK  5 active torsions:
REMARK  status: ('A' for Active; 'I' for Inactive)
REMARK    1  A    between atoms: C_2  and  C_4
REMARK    2  A    between atoms: C_7  and  O_8
REMARK    3  A    between atoms: O_8  and  C_9
REMARK    4  A    between atoms: C_9  and  C_10
REMARK    5  A    between atoms: C_14  and  C_15
REMARK                            x       y       z     vdW  Elec       q    Type
REMARK                         _______ _______ _______ _____ _____    ______ ____
ROOT
ATOM      1  C   UNL     1      44.580   4.889  11.204  0.00  0.00    +0.000 C 
ENDROOT
BRANCH   1   2
ATOM      2  C   UNL     1      45.310   6.169  11.509  0.00  0.00    +0.000 A 
ATOM      3  C   UNL     1      46.686   6.161  11.749  0.00  0.00    +0.000 A 
ATOM      4  C   UNL     1      47.341   7.349  12.048  0.00  0.00    +0.000 A 
ATOM      5  C   UNL     1      46.627   8.551  12.094  0.00  0.00    +0.000 A 
ATOM      6  C   UNL     1      45.249   8.598  11.814  0.00  0.00    +0.000 A 
ATOM      7  C   UNL     1      44.607   7.384  11.533  0.00  0.00    +0.000 A 
BRANCH   6   8
ATOM      8  C   UNL     1      44.503   9.928  11.913  0.00  0.00    +0.000 C 
ATOM      9  C   UNL     1      43.317  10.129  10.944  0.00  0.00    +0.000 C 
ATOM     10  C   UNL     1      43.772  10.500   9.531  0.00  0.00    +0.000 C 
ATOM     11  N   UNL     1      44.593  11.710   9.536  0.00  0.00    +0.000 NA
ATOM     12  C   UNL     1      45.782  11.519  10.367  0.00  0.00    +0.000 C 
ATOM     13  C   UNL     1      45.429  11.160  11.810  0.00  0.00    +0.000 C 
ATOM     14  H   UNL     1      44.043  12.484   9.909  0.00  0.00    +0.000 HD
ENDBRANCH   6   8
ENDBRANCH   1   2
BRANCH   1  15
ATOM     15  O   UNL     1      44.212   4.913   9.826  0.00  0.00    +0.000 OA
BRANCH  15  19
ATOM     16  C   UNL     1      46.617   2.511   7.527  0.00  0.00    +0.000 A 
ATOM     17  C   UNL     1      45.780   1.931   8.482  0.00  0.00    +0.000 A 
ATOM     18  C   UNL     1      44.977   2.756   9.268  0.00  0.00    +0.000 A 
ATOM     19  C   UNL     1      45.047   4.126   9.064  0.00  0.00    +0.000 A 
ATOM     20  N   UNL     1      45.868   4.712   8.165  0.00  0.00    +0.000 NA
ATOM     21  C   UNL     1      46.644   3.892   7.421  0.00  0.00    +0.000 A 
BRANCH  16  23
ATOM     22  N   UNL     1      48.548   2.369   6.070  0.00  0.00    +0.000 N 
ATOM     23  C   UNL     1      47.472   1.727   6.616  0.00  0.00    +0.000 C 
ATOM     24  O   UNL     1      47.259   0.540   6.403  0.00  0.00    +0.000 OA
ATOM     25  H   UNL     1      49.203   1.782   5.569  0.00  0.00    +0.000 HD
ATOM     26  H   UNL     1      48.895   3.244   6.438  0.00  0.00    +0.000 HD
ENDBRANCH  16  23
ENDBRANCH  15  19
ENDBRANCH   1  15
TORSDOF 5
ENDMDL
MODEL 5
REMARK VINA RESULT:    -7.104      5.039      8.047
REMARK INTER + INTRA:          -9.982
REMARK INTER:                  -9.453
REMARK INTRA:                  -0.529
REMARK UNBOUND:                -0.802
REMARK  Name = 
REMARK  5 active torsions:
REMARK  status: ('A' for Active; 'I' for Inactive)
REMARK    1  A    between atoms: C_2  and  C_4
REMARK    2  A    between atoms: C_7  and  O_8
REMARK    3  A    between atoms: O_8  and  C_9
REMARK    4  A    between atoms: C_9  and  C_10
REMARK    5  A    between atoms: C_14  and  C_15
REMARK                            x       y       z     vdW  Elec       q    Type
REMARK                         _______ _______ _______ _____ _____    ______ ____
ROOT
ATOM      1  C   UNL     1      46.960   4.299  15.421  0.00  0.00    +0.000 C 
ENDROOT
BRANCH   1   2
ATOM      2  C   UNL     1      46.823   5.019  14.106  0.00  0.00    +0.000 A 
ATOM      3  C   UNL     1      47.762   5.979  13.722  0.00  0.00    +0.000 A 
ATOM      4  C   UNL     1      47.609   6.648  12.514  0.00  0.00    +0.000 A 
ATOM      5  C   UNL     1      46.528   6.349  11.679  0.00  0.00    +0.000 A 
ATOM      6  C   UNL     1      45.590   5.356  12.017  0.00  0.00    +0.000 A 
ATOM      7  C   UNL     1      45.755   4.709  13.249  0.00  0.00    +0.000 A 
BRANCH   6   8
ATOM      8  C   UNL     1      44.404   5.090  11.092  0.00  0.00    +0.000 C 
ATOM      9  C   UNL     1      43.192   4.362  11.713  0.00  0.00    +0.000 C 
ATOM     10  C   UNL     1      43.418   2.854  11.843  0.00  0.00    +0.000 C 
ATOM     11  N   UNL     1      43.724   2.249  10.548  0.00  0.00    +0.000 NA
ATOM     12  C   UNL     1      44.930   2.846   9.974  0.00  0.00    +0.000 C 
ATOM     13  C   UNL     1      44.794   4.358   9.789  0.00  0.00    +0.000 C 
ATOM     14  H   UNL     1      42.939   2.402   9.914  0.00  0.00    +0.000 HD
ENDBRANCH   6   8
ENDBRANCH   1   2
BRANCH   1  15
ATOM     15  O   UNL     1      47.908   5.012  16.214  0.00  0.00    +0.000 OA
BRANCH  15  19
ATOM     16  C   UNL     1      50.937   2.515  17.411  0.00  0.00    +0.000 A 
ATOM     17  C   UNL     1      49.720   1.970  16.997  0.00  0.00    +0.000 A 
ATOM     18  C   UNL     1      48.693   2.827  16.607  0.00  0.00    +0.000 A 
ATOM     19  C   UNL     1      48.927   4.193  16.646  0.00  0.00    +0.000 A 
ATOM     20  N   UNL     1      50.085   4.745  17.067  0.00  0.00    +0.000 NA
ATOM     21  C   UNL     1      51.064   3.894  17.451  0.00  0.00    +0.000 A 
BRANCH  16  23
ATOM     22  N   UNL     1      51.864   0.387  18.104  0.00  0.00    +0.000 N 
ATOM     23  C   UNL     1      52.101   1.699  17.803  0.00  0.00    +0.000 C 
ATOM     24  O   UNL     1      53.234   2.161  17.802  0.00  0.00    +0.000 OA
ATOM     25  H   UNL     1      52.686  -0.192  18.225  0.00  0.00    +0.000 HD
ATOM     26  H   UNL     1      51.003  -0.076  17.850  0.00  0.00    +0.000 HD
ENDBRANCH  16  23
ENDBRANCH  15  19
ENDBRANCH   1  15
TORSDOF 5
ENDMDL
MODEL 6
REMARK VINA RESULT:    -6.792      4.817      8.936
REMARK INTER + INTRA:          -9.580
REMARK INTER:                  -9.161
REMARK INTRA:                  -0.418
REMARK UNBOUND:                -0.802
REMARK  Name = 
REMARK  5 active torsions:
REMARK  status: ('A' for Active; 'I' for Inactive)
REMARK    1  A    between atoms: C_2  and  C_4
REMARK    2  A    between atoms: C_7  and  O_8
REMARK    3  A    between atoms: O_8  and  C_9
REMARK    4  A    between atoms: C_9  and  C_10
REMARK    5  A    between atoms: C_14  and  C_15
REMARK                            x       y       z     vdW  Elec       q    Type
REMARK                         _______ _______ _______ _____ _____    ______ ____
ROOT
ATOM      1  C   UNL     1      47.183   4.694  14.961  0.00  0.00    +0.000 C 
ENDROOT
BRANCH   1   2
ATOM      2  C   UNL     1      46.871   5.310  13.623  0.00  0.00    +0.000 A 
ATOM      3  C   UNL     1      47.698   6.299  13.087  0.00  0.00    +0.000 A 
ATOM      4  C   UNL     1      47.384   6.871  11.860  0.00  0.00    +0.000 A 
ATOM      5  C   UNL     1      46.253   6.446  11.158  0.00  0.00    +0.000 A 
ATOM      6  C   UNL     1      45.424   5.420  11.651  0.00  0.00    +0.000 A 
ATOM      7  C   UNL     1      45.751   4.872  12.899  0.00  0.00    +0.000 A 
BRANCH   6   8
ATOM      8  C   UNL     1      44.177   5.014  10.867  0.00  0.00    +0.000 C 
ATOM      9  C   UNL     1      43.084   4.255  11.651  0.00  0.00    +0.000 C 
ATOM     10  C   UNL     1      43.428   2.778  11.853  0.00  0.00    +0.000 C 
ATOM     11  N   UNL     1      43.651   2.104  10.575  0.00  0.00    +0.000 NA
ATOM     12  C   UNL     1      44.751   2.736   9.847  0.00  0.00    +0.000 C 
ATOM     13  C   UNL     1      44.492   4.219   9.581  0.00  0.00    +0.000 C 
ATOM     14  H   UNL     1      42.800   2.161  10.014  0.00  0.00    +0.000 HD
ENDBRANCH   6   8
ENDBRANCH   1   2
BRANCH   1  15
ATOM     15  O   UNL     1      48.360   5.322  15.468  0.00  0.00    +0.000 OA
BRANCH  15  19
ATOM     16  C   UNL     1      48.803   4.740  19.506  0.00  0.00    +0.000 A 
ATOM     17  C   UNL     1      48.666   3.634  18.664  0.00  0.00    +0.000 A 
ATOM     18  C   UNL     1      48.501   3.843  17.295  0.00  0.00    +0.000 A 
ATOM     19  C   UNL     1      48.482   5.149  16.828  0.00  0.00    +0.000 A 
ATOM     20  N   UNL     1      48.585   6.234  17.626  0.00  0.00    +0.000 NA
ATOM     21  C   UNL     1      48.734   6.007  18.951  0.00  0.00    +0.000 A 
BRANCH  16  23
ATOM     22  N   UNL     1      50.322   4.558  21.384  0.00  0.00    +0.000 N 
ATOM     23  C   UNL     1      49.025   4.629  20.959  0.00  0.00    +0.000 C 
ATOM     24  O   UNL     1      48.092   4.656  21.752  0.00  0.00    +0.000 OA
ATOM     25  H   UNL     1      50.462   4.632  22.384  0.00  0.00    +0.000 HD
ATOM     26  H   UNL     1      51.098   4.807  20.787  0.00  0.00    +0.000 HD
ENDBRANCH  16  23
ENDBRANCH  15  19
ENDBRANCH   1  15
TORSDOF 5
ENDMDL
MODEL 7
REMARK VINA RESULT:    -6.211      4.126      8.072
REMARK INTER + INTRA:          -8.829
REMARK INTER:                  -8.308
REMARK INTRA:                  -0.521
REMARK UNBOUND:                -0.802
REMARK  Name = 
REMARK  5 active torsions:
REMARK  status: ('A' for Active; 'I' for Inactive)
REMARK    1  A    between atoms: C_2  and  C_4
REMARK    2  A    between atoms: C_7  and  O_8
REMARK    3  A    between atoms: O_8  and  C_9
REMARK    4  A    between atoms: C_9  and  C_10
REMARK    5  A    between atoms: C_14  and  C_15
REMARK                            x       y       z     vdW  Elec       q    Type
REMARK                         _______ _______ _______ _____ _____    ______ ____
ROOT
ATOM      1  C   UNL     1      48.280   6.485  13.434  0.00  0.00    +0.000 C 
ENDROOT
BRANCH   1   2
ATOM      2  C   UNL     1      47.025   6.962  12.753  0.00  0.00    +0.000 A 
ATOM      3  C   UNL     1      46.760   8.327  12.628  0.00  0.00    +0.000 A 
ATOM      4  C   UNL     1      45.588   8.749  12.013  0.00  0.00    +0.000 A 
ATOM      5  C   UNL     1      44.685   7.809  11.508  0.00  0.00    +0.000 A 
ATOM      6  C   UNL     1      44.944   6.428  11.579  0.00  0.00    +0.000 A 
ATOM      7  C   UNL     1      46.124   6.027  12.220  0.00  0.00    +0.000 A 
BRANCH   6   8
ATOM      8  C   UNL     1      43.910   5.437  11.046  0.00  0.00    +0.000 C 
ATOM      9  C   UNL     1      42.794   5.010  12.024  0.00  0.00    +0.000 C 
ATOM     10  C   UNL     1      43.268   3.960  13.032  0.00  0.00    +0.000 C 
ATOM     11  N   UNL     1      43.789   2.773  12.357  0.00  0.00    +0.000 NA
ATOM     12  C   UNL     1      44.918   3.126  11.495  0.00  0.00    +0.000 C 
ATOM     13  C   UNL     1      44.537   4.163  10.439  0.00  0.00    +0.000 C 
ATOM     14  H   UNL     1      43.050   2.360  11.789  0.00  0.00    +0.000 HD
ENDBRANCH   6   8
ENDBRANCH   1   2
BRANCH   1  15
ATOM     15  O   UNL     1      48.027   5.182  13.957  0.00  0.00    +0.000 OA
BRANCH  15  19
ATOM     16  C   UNL     1      48.161   5.042  18.056  0.00  0.00    +0.000 A 
ATOM     17  C   UNL     1      47.249   4.237  17.371  0.00  0.00    +0.000 A 
ATOM     18  C   UNL     1      47.201   4.303  15.980  0.00  0.00    +0.000 A 
ATOM     19  C   UNL     1      48.068   5.171  15.334  0.00  0.00    +0.000 A 
ATOM     20  N   UNL     1      48.940   5.978  15.975  0.00  0.00    +0.000 NA
ATOM     21  C   UNL     1      48.962   5.904  17.325  0.00  0.00    +0.000 A 
BRANCH  16  23
ATOM     22  N   UNL     1      49.326   4.234  20.021  0.00  0.00    +0.000 N 
ATOM     23  C   UNL     1      48.323   5.017  19.522  0.00  0.00    +0.000 C 
ATOM     24  O   UNL     1      47.628   5.711  20.253  0.00  0.00    +0.000 OA
ATOM     25  H   UNL     1      49.518   4.343  21.009  0.00  0.00    +0.000 HD
ATOM     26  H   UNL     1      50.071   3.879  19.439  0.00  0.00    +0.000 HD
ENDBRANCH  16  23
ENDBRANCH  15  19
ENDBRANCH   1  15
TORSDOF 5
ENDMDL
MODEL 8
REMARK VINA RESULT:    -5.990      4.377      8.334
REMARK INTER + INTRA:          -8.543
REMARK INTER:                  -7.915
REMARK INTRA:                  -0.628
REMARK UNBOUND:                -0.802
REMARK  Name = 
REMARK  5 active torsions:
REMARK  status: ('A' for Active; 'I' for Inactive)
REMARK    1  A    between atoms: C_2  and  C_4
REMARK    2  A    between atoms: C_7  and  O_8
REMARK    3  A    between atoms: O_8  and  C_9
REMARK    4  A    between atoms: C_9  and  C_10
REMARK    5  A    between atoms: C_14  and  C_15
REMARK                            x       y       z     vdW  Elec       q    Type
REMARK                         _______ _______ _______ _____ _____    ______ ____
ROOT
ATOM      1  C   UNL     1      46.939   3.492  14.048  0.00  0.00    +0.000 C 
ENDROOT
BRANCH   1   2
ATOM      2  C   UNL     1      46.216   4.289  12.996  0.00  0.00    +0.000 A 
ATOM      3  C   UNL     1      46.157   5.682  13.076  0.00  0.00    +0.000 A 
ATOM      4  C   UNL     1      45.468   6.400  12.107  0.00  0.00    +0.000 A 
ATOM      5  C   UNL     1      44.849   5.731  11.047  0.00  0.00    +0.000 A 
ATOM      6  C   UNL     1      44.927   4.332  10.914  0.00  0.00    +0.000 A 
ATOM      7  C   UNL     1      45.611   3.628  11.915  0.00  0.00    +0.000 A 
BRANCH   6   8
ATOM      8  C   UNL     1      44.202   3.641   9.760  0.00  0.00    +0.000 C 
ATOM      9  C   UNL     1      44.453   2.126   9.595  0.00  0.00    +0.000 C 
ATOM     10  C   UNL     1      45.794   1.824   8.923  0.00  0.00    +0.000 C 
ATOM     11  N   UNL     1      45.889   2.467   7.613  0.00  0.00    +0.000 NA
ATOM     12  C   UNL     1      45.757   3.919   7.744  0.00  0.00    +0.000 C 
ATOM     13  C   UNL     1      44.433   4.322   8.394  0.00  0.00    +0.000 C 
ATOM     14  H   UNL     1      45.143   2.115   7.013  0.00  0.00    +0.000 HD
ENDBRANCH   6   8
ENDBRANCH   1   2
BRANCH   1  15
ATOM     15  O   UNL     1      46.573   4.016  15.324  0.00  0.00    +0.000 OA
BRANCH  15  19
ATOM     16  C   UNL     1      49.749   4.311  17.906  0.00  0.00    +0.000 A 
ATOM     17  C   UNL     1      49.294   5.453  17.244  0.00  0.00    +0.000 A 
ATOM     18  C   UNL     1      48.224   5.339  16.358  0.00  0.00    +0.000 A 
ATOM     19  C   UNL     1      47.655   4.089  16.173  0.00  0.00    +0.000 A 
ATOM     20  N   UNL     1      48.094   2.966  16.781  0.00  0.00    +0.000 NA
ATOM     21  C   UNL     1      49.139   3.098  17.629  0.00  0.00    +0.000 A 
BRANCH  16  23
ATOM     22  N   UNL     1      50.493   4.515  20.202  0.00  0.00    +0.000 N 
ATOM     23  C   UNL     1      50.843   4.329  18.895  0.00  0.00    +0.000 C 
ATOM     24  O   UNL     1      52.004   4.129  18.565  0.00  0.00    +0.000 OA
ATOM     25  H   UNL     1      51.233   4.377  20.879  0.00  0.00    +0.000 HD
ATOM     26  H   UNL     1      49.542   4.407  20.525  0.00  0.00    +0.000 HD
ENDBRANCH  16  23
ENDBRANCH  15  19
ENDBRANCH   1  15
TORSDOF 5
ENDMDL
MODEL 9
REMARK VINA RESULT:    -5.704      3.754      5.897
REMARK INTER + INTRA:          -8.174
REMARK INTER:                  -7.450
REMARK INTRA:                  -0.724
REMARK UNBOUND:                -0.802
REMARK  Name = 
REMARK  5 active torsions:
REMARK  status: ('A' for Active; 'I' for Inactive)
REMARK    1  A    between atoms: C_2  and  C_4
REMARK    2  A    between atoms: C_7  and  O_8
REMARK    3  A    between atoms: O_8  and  C_9
REMARK    4  A    between atoms: C_9  and  C_10
REMARK    5  A    between atoms: C_14  and  C_15
REMARK                            x       y       z     vdW  Elec       q    Type
REMARK                         _______ _______ _______ _____ _____    ______ ____
ROOT
ATOM      1  C   UNL     1      48.770   6.757  13.363  0.00  0.00    +0.000 C 
ENDROOT
BRANCH   1   2
ATOM      2  C   UNL     1      49.249   6.923  14.780  0.00  0.00    +0.000 A 
ATOM      3  C   UNL     1      50.487   7.510  15.046  0.00  0.00    +0.000 A 
ATOM      4  C   UNL     1      50.923   7.637  16.360  0.00  0.00    +0.000 A 
ATOM      5  C   UNL     1      50.116   7.193  17.411  0.00  0.00    +0.000 A 
ATOM      6  C   UNL     1      48.844   6.638  17.178  0.00  0.00    +0.000 A 
ATOM      7  C   UNL     1      48.435   6.502  15.845  0.00  0.00    +0.000 A 
BRANCH   6   8
ATOM      8  C   UNL     1      48.013   6.131  18.357  0.00  0.00    +0.000 C 
ATOM      9  C   UNL     1      48.770   5.878  19.678  0.00  0.00    +0.000 C 
ATOM     10  C   UNL     1      49.542   4.557  19.667  0.00  0.00    +0.000 C 
ATOM     11  N   UNL     1      48.655   3.425  19.402  0.00  0.00    +0.000 NA
ATOM     12  C   UNL     1      47.995   3.583  18.105  0.00  0.00    +0.000 C 
ATOM     13  C   UNL     1      47.181   4.874  18.025  0.00  0.00    +0.000 C 
ATOM     14  H   UNL     1      47.948   3.376  20.135  0.00  0.00    +0.000 HD
ENDBRANCH   6   8
ENDBRANCH   1   2
BRANCH   1  15
ATOM     15  O   UNL     1      47.383   7.090  13.328  0.00  0.00    +0.000 OA
BRANCH  15  19
ATOM     16  C   UNL     1      45.105   4.157  11.580  0.00  0.00    +0.000 A 
ATOM     17  C   UNL     1      45.593   3.968  12.874  0.00  0.00    +0.000 A 
ATOM     18  C   UNL     1      46.378   4.963  13.453  0.00  0.00    +0.000 A 
ATOM     19  C   UNL     1      46.640   6.106  12.713  0.00  0.00    +0.000 A 
ATOM     20  N   UNL     1      46.201   6.301  11.451  0.00  0.00    +0.000 NA
ATOM     21  C   UNL     1      45.450   5.317  10.906  0.00  0.00    +0.000 A 
BRANCH  16  23
ATOM     22  N   UNL     1      43.455   2.386  11.682  0.00  0.00    +0.000 N 
ATOM     23  C   UNL     1      44.231   3.188  10.893  0.00  0.00    +0.000 C 
ATOM     24  O   UNL     1      44.164   3.144   9.672  0.00  0.00    +0.000 OA
ATOM     25  H   UNL     1      42.758   1.835  11.197  0.00  0.00    +0.000 HD
ATOM     26  H   UNL     1      43.290   2.589  12.658  0.00  0.00    +0.000 HD
ENDBRANCH  16  23
ENDBRANCH  15  19
ENDBRANCH   1  15
TORSDOF 5
ENDMDL
