MODEL 1
REMARK VINA RESULT:    -7.660      0.000      0.000
REMARK INTER + INTRA:          -9.677
REMARK INTER:                  -9.004
REMARK INTRA:                  -0.673
REMARK UNBOUND:                -0.673
REMARK  Name = 
REMARK  3 active torsions:
REMARK  status: ('A' for Active; 'I' for Inactive)
REMARK    1  A    between atoms: C_4  and  O_5
REMARK    2  A    between atoms: O_5  and  C_6
REMARK    3  A    between atoms: C_10  and  C_11
REMARK                            x       y       z     vdW  Elec       q    Type
REMARK                         _______ _______ _______ _____ _____    ______ ____
ROOT
ATOM      1  C   UNL     1      44.310   4.583  10.261  0.00  0.00    +0.000 A 
ATOM      2  C   UNL     1      43.229   4.400  11.117  0.00  0.00    +0.000 A 
ATOM      3  C   UNL     1      43.317   4.843  12.436  0.00  0.00    +0.000 A 
ATOM      4  C   UNL     1      44.487   5.459  12.895  0.00  0.00    +0.000 A 
ATOM      5  C   UNL     1      45.613   5.604  12.064  0.00  0.00    +0.000 A 
ATOM      6  C   UNL     1      45.506   5.125  10.748  0.00  0.00    +0.000 A 
ENDROOT
BRANCH   5   7
ATOM      7  C   UNL     1      46.868   6.219  12.537  0.00  0.00    +0.000 A 
ATOM      8  C   UNL     1      47.572   7.165  11.776  0.00  0.00    +0.000 A 
ATOM      9  C   UNL     1      48.790   7.678  12.221  0.00  0.00    +0.000 A 
ATOM     10  C   UNL     1      49.275   7.241  13.440  0.00  0.00    +0.000 A 
ATOM     11  N   UNL     1      48.634   6.354  14.224  0.00  0.00    +0.000 NA
ATOM     12  C   UNL     1      47.457   5.866  13.754  0.00  0.00    +0.000 A 
ENDBRANCH   5   7
BRANCH   1  13
ATOM     13  O   UNL     1      44.154   4.194   8.946  0.00  0.00    +0.000 OA
BRANCH  13  17
ATOM     14  C   UNL     1      47.043   1.734   7.216  0.00  0.00    +0.000 A 
ATOM     15  C   UNL     1      46.950   3.083   6.873  0.00  0.00    +0.000 A 
ATOM     16  C   UNL     1      45.986   3.894   7.476  0.00  0.00    +0.000 A 
ATOM     17  C   UNL     1      45.112   3.350   8.420  0.00  0.00    +0.000 A 
ATOM     18  C   UNL     1      45.246   2.010   8.804  0.00  0.00    +0.000 A 
ATOM     19  C   UNL     1      46.195   1.199   8.184  0.00  0.00    +0.000 A 
ENDBRANCH  13  17
ENDBRANCH   1  13
TORSDOF 3
ENDMDL
MODEL 2
REMARK VINA RESULT:    -7.106      0.928      1.672
REMARK INTER + INTRA:          -9.025
REMARK INTER:                  -8.582
REMARK INTRA:                  -0.443
REMARK UNBOUND:                -0.673
REMARK  Name = 
REMARK  3 active torsions:
REMARK  status: ('A' for Active; 'I' for Inactive)
REMARK    1  A    between atoms: C_4  and  O_5
REMARK    2  A    between atoms: O_5  and  C_6
REMARK    3  A    between atoms: C_10  and  C_11
REMARK                            x       y       z     vdW  Elec       q    Type
REMARK                         _______ _______ _______ _____ _____    ______ ____
ROOT
ATOM      1  C   UNL     1      44.034   3.834  10.909  0.00  0.00    +0.000 A 
ATOM      2  C   UNL     1      42.864   4.237  11.544  0.00  0.00    +0.000 A 
ATOM      3  C   UNL     1      42.915   5.261  12.490  0.00  0.00    +0.000 A 
ATOM      4  C   UNL     1      44.137   5.871  12.801  0.00  0.00    +0.000 A 
ATOM      5  C   UNL     1      45.340   5.442  12.213  0.00  0.00    +0.000 A 
ATOM      6  C   UNL     1      45.263   4.391  11.285  0.00  0.00    +0.000 A 
ENDROOT
BRANCH   5   7
ATOM      7  C   UNL     1      46.643   6.046  12.552  0.00  0.00    +0.000 A 
ATOM      8  C   UNL     1      47.270   5.832  13.789  0.00  0.00    +0.000 A 
ATOM      9  C   UNL     1      48.469   6.470  14.104  0.00  0.00    +0.000 A 
ATOM     10  C   UNL     1      49.030   7.306  13.157  0.00  0.00    +0.000 A 
ATOM     11  N   UNL     1      48.489   7.533  11.946  0.00  0.00    +0.000 NA
ATOM     12  C   UNL     1      47.315   6.904  11.677  0.00  0.00    +0.000 A 
ENDBRANCH   5   7
BRANCH   1  13
ATOM     13  O   UNL     1      43.927   2.867   9.930  0.00  0.00    +0.000 OA
BRANCH  13  17
ATOM     14  C   UNL     1      46.968   2.671   7.085  0.00  0.00    +0.000 A 
ATOM     15  C   UNL     1      46.596   1.543   7.816  0.00  0.00    +0.000 A 
ATOM     16  C   UNL     1      45.563   1.626   8.753  0.00  0.00    +0.000 A 
ATOM     17  C   UNL     1      44.908   2.842   8.959  0.00  0.00    +0.000 A 
ATOM     18  C   UNL     1      45.245   3.957   8.182  0.00  0.00    +0.000 A 
ATOM     19  C   UNL     1      46.291   3.876   7.263  0.00  0.00    +0.000 A 
ENDBRANCH  13  17
ENDBRANCH   1  13
TORSDOF 3
ENDMDL
MODEL 3
REMARK VINA RESULT:    -6.980      2.547      6.136
REMARK INTER + INTRA:          -8.877
REMARK INTER:                  -8.408
REMARK INTRA:                  -0.469
REMARK UNBOUND:                -0.673
REMARK  Name = 
REMARK  3 active torsions:
REMARK  status: ('A' for Active; 'I' for Inactive)
REMARK    1  A    between atoms: C_4  and  O_5
REMARK    2  A    between atoms: O_5  and  C_6
REMARK    3  A    between atoms: C_10  and  C_11
REMARK                            x       y       z     vdW  Elec       q    Type
REMARK                         _______ _______ _______ _____ _____    ______ ____
ROOT
ATOM      1  C   UNL     1      44.482   5.111  10.584  0.00  0.00    +0.000 A 
ATOM      2  C   UNL     1      43.668   4.282  11.349  0.00  0.00    +0.000 A 
ATOM      3  C   UNL     1      43.618   2.918  11.064  0.00  0.00    +0.000 A 
ATOM      4  C   UNL     1      44.377   2.390  10.012  0.00  0.00    +0.000 A 
ATOM      5  C   UNL     1      45.163   3.217   9.190  0.00  0.00    +0.000 A 
ATOM      6  C   UNL     1      45.174   4.590   9.482  0.00  0.00    +0.000 A 
ENDROOT
BRANCH   5   7
ATOM      7  C   UNL     1      45.942   2.688   8.053  0.00  0.00    +0.000 A 
ATOM      8  C   UNL     1      46.211   3.453   6.908  0.00  0.00    +0.000 A 
ATOM      9  C   UNL     1      46.894   2.903   5.824  0.00  0.00    +0.000 A 
ATOM     10  C   UNL     1      47.312   1.589   5.916  0.00  0.00    +0.000 A 
ATOM     11  N   UNL     1      47.104   0.812   6.997  0.00  0.00    +0.000 NA
ATOM     12  C   UNL     1      46.425   1.377   8.029  0.00  0.00    +0.000 A 
ENDBRANCH   5   7
BRANCH   1  13
ATOM     13  O   UNL     1      44.556   6.440  10.945  0.00  0.00    +0.000 OA
BRANCH  13  17
ATOM     14  C   UNL     1      47.538   7.682  13.583  0.00  0.00    +0.000 A 
ATOM     15  C   UNL     1      46.457   8.510  13.279  0.00  0.00    +0.000 A 
ATOM     16  C   UNL     1      45.460   8.069  12.405  0.00  0.00    +0.000 A 
ATOM     17  C   UNL     1      45.550   6.798  11.834  0.00  0.00    +0.000 A 
ATOM     18  C   UNL     1      46.605   5.948  12.186  0.00  0.00    +0.000 A 
ATOM     19  C   UNL     1      47.610   6.400  13.042  0.00  0.00    +0.000 A 
ENDBRANCH  13  17
ENDBRANCH   1  13
TORSDOF 3
ENDMDL
MODEL 4
REMARK VINA RESULT:    -6.684      1.444      2.182
REMARK INTER + INTRA:          -8.529
REMARK INTER:                  -7.942
REMARK INTRA:                  -0.588
REMARK UNBOUND:                -0.673
REMARK  Name = 
REMARK  3 active torsions:
REMARK  status: ('A' for Active; 'I' for Inactive)
REMARK    1  A    between atoms: C_4  and  O_5
REMARK    2  A    between atoms: O_5  and  C_6
REMARK    3  A    between atoms: C_10  and  C_11
REMARK                            x       y       z     vdW  Elec       q    Type
REMARK                         _______ _______ _______ _____ _____    ______ ____
ROOT
ATOM      1  C   UNL     1      45.147   5.017  10.928  0.00  0.00    +0.000 A 
ATOM      2  C   UNL     1      44.889   4.367  12.130  0.00  0.00    +0.000 A 
ATOM      3  C   UNL     1      45.458   4.852  13.307  0.00  0.00    +0.000 A 
ATOM      4  C   UNL     1      46.288   5.979  13.276  0.00  0.00    +0.000 A 
ATOM      5  C   UNL     1      46.610   6.618  12.064  0.00  0.00    +0.000 A 
ATOM      6  C   UNL     1      46.044   6.093  10.891  0.00  0.00    +0.000 A 
ENDROOT
BRANCH   5   7
ATOM      7  C   UNL     1      47.511   7.785  12.003  0.00  0.00    +0.000 A 
ATOM      8  C   UNL     1      47.044   9.100  12.151  0.00  0.00    +0.000 A 
ATOM      9  C   UNL     1      47.911  10.185  12.023  0.00  0.00    +0.000 A 
ATOM     10  C   UNL     1      49.243   9.928  11.761  0.00  0.00    +0.000 A 
ATOM     11  N   UNL     1      49.754   8.688  11.632  0.00  0.00    +0.000 NA
ATOM     12  C   UNL     1      48.879   7.656  11.751  0.00  0.00    +0.000 A 
ENDBRANCH   5   7
BRANCH   1  13
ATOM     13  O   UNL     1      44.507   4.547   9.799  0.00  0.00    +0.000 OA
BRANCH  13  17
ATOM     14  C   UNL     1      46.741   2.020   7.347  0.00  0.00    +0.000 A 
ATOM     15  C   UNL     1      45.948   1.508   8.373  0.00  0.00    +0.000 A 
ATOM     16  C   UNL     1      45.194   2.370   9.173  0.00  0.00    +0.000 A 
ATOM     17  C   UNL     1      45.240   3.747   8.946  0.00  0.00    +0.000 A 
ATOM     18  C   UNL     1      45.992   4.253   7.878  0.00  0.00    +0.000 A 
ATOM     19  C   UNL     1      46.760   3.391   7.096  0.00  0.00    +0.000 A 
ENDBRANCH  13  17
ENDBRANCH   1  13
TORSDOF 3
ENDMDL
MODEL 5
REMARK VINA RESULT:    -6.664      2.309      5.798
REMARK INTER + INTRA:          -8.505
REMARK INTER:                  -7.904
REMARK INTRA:                  -0.602
REMARK UNBOUND:                -0.673
REMARK  Name = 
REMARK  3 active torsions:
REMARK  status: ('A' for Active; 'I' for Inactive)
REMARK    1  A    between atoms: C_4  and  O_5
REMARK    2  A    between atoms: O_5  and  C_6
REMARK    3  A    between atoms: C_10  and  C_11
REMARK                            x       y       z     vdW  Elec       q    Type
REMARK                         _______ _______ _______ _____ _____    ______ ____
ROOT
ATOM      1  C   UNL     1      44.492   5.106  12.194  0.00  0.00    +0.000 A 
ATOM      2  C   UNL     1      43.545   4.248  12.743  0.00  0.00    +0.000 A 
ATOM      3  C   UNL     1      43.252   3.047  12.097  0.00  0.00    +0.000 A 
ATOM      4  C   UNL     1      43.901   2.715  10.901  0.00  0.00    +0.000 A 
ATOM      5  C   UNL     1      44.820   3.592  10.298  0.00  0.00    +0.000 A 
ATOM      6  C   UNL     1      45.077   4.806  10.957  0.00  0.00    +0.000 A 
ENDROOT
BRANCH   5   7
ATOM      7  C   UNL     1      45.489   3.278   9.021  0.00  0.00    +0.000 A 
ATOM      8  C   UNL     1      45.835   1.967   8.659  0.00  0.00    +0.000 A 
ATOM      9  C   UNL     1      46.526   1.711   7.475  0.00  0.00    +0.000 A 
ATOM     10  C   UNL     1      46.844   2.781   6.661  0.00  0.00    +0.000 A 
ATOM     11  N   UNL     1      46.519   4.057   6.944  0.00  0.00    +0.000 NA
ATOM     12  C   UNL     1      45.857   4.272   8.110  0.00  0.00    +0.000 A 
ENDBRANCH   5   7
BRANCH   1  13
ATOM     13  O   UNL     1      44.804   6.248  12.903  0.00  0.00    +0.000 OA
BRANCH  13  17
ATOM     14  C   UNL     1      48.646   7.796  12.425  0.00  0.00    +0.000 A 
ATOM     15  C   UNL     1      47.521   8.552  12.094  0.00  0.00    +0.000 A 
ATOM     16  C   UNL     1      46.242   8.021  12.277  0.00  0.00    +0.000 A 
ATOM     17  C   UNL     1      46.092   6.730  12.788  0.00  0.00    +0.000 A 
ATOM     18  C   UNL     1      47.221   5.997  13.173  0.00  0.00    +0.000 A 
ATOM     19  C   UNL     1      48.497   6.522  12.969  0.00  0.00    +0.000 A 
ENDBRANCH  13  17
ENDBRANCH   1  13
TORSDOF 3
ENDMDL
MODEL 6
REMARK VINA RESULT:    -6.603      1.796      2.576
REMARK INTER + INTRA:          -8.434
REMARK INTER:                  -7.774
REMARK INTRA:                  -0.660
REMARK UNBOUND:                -0.673
REMARK  Name = 
REMARK  3 active torsions:
REMARK  status: ('A' for Active; 'I' for Inactive)
REMARK    1  A    between atoms: C_4  and  O_5
REMARK    2  A    between atoms: O_5  and  C_6
REMARK    3  A    between atoms: C_10  and  C_11
REMARK                            x       y       z     vdW  Elec       q    Type
REMARK                         _______ _______ _______ _____ _____    ______ ____
ROOT
ATOM      1  C   UNL     1      44.880   5.114  11.012  0.00  0.00    +0.000 A 
ATOM      2  C   UNL     1      44.877   6.496  10.851  0.00  0.00    +0.000 A 
ATOM      3  C   UNL     1      45.547   7.296  11.776  0.00  0.00    +0.000 A 
ATOM      4  C   UNL     1      46.211   6.712  12.861  0.00  0.00    +0.000 A 
ATOM      5  C   UNL     1      46.181   5.322  13.076  0.00  0.00    +0.000 A 
ATOM      6  C   UNL     1      45.476   4.543  12.144  0.00  0.00    +0.000 A 
ENDROOT
BRANCH   5   7
ATOM      7  C   UNL     1      46.843   4.687  14.232  0.00  0.00    +0.000 A 
ATOM      8  C   UNL     1      47.240   5.419  15.362  0.00  0.00    +0.000 A 
ATOM      9  C   UNL     1      47.923   4.802  16.410  0.00  0.00    +0.000 A 
ATOM     10  C   UNL     1      48.183   3.448  16.311  0.00  0.00    +0.000 A 
ATOM     11  N   UNL     1      47.808   2.690  15.263  0.00  0.00    +0.000 NA
ATOM     12  C   UNL     1      47.156   3.326  14.256  0.00  0.00    +0.000 A 
ENDBRANCH   5   7
BRANCH   1  13
ATOM     13  O   UNL     1      44.266   4.357  10.036  0.00  0.00    +0.000 OA
BRANCH  13  17
ATOM     14  C   UNL     1      46.711   2.333   7.332  0.00  0.00    +0.000 A 
ATOM     15  C   UNL     1      46.609   3.723   7.306  0.00  0.00    +0.000 A 
ATOM     16  C   UNL     1      45.797   4.384   8.231  0.00  0.00    +0.000 A 
ATOM     17  C   UNL     1      45.084   3.648   9.180  0.00  0.00    +0.000 A 
ATOM     18  C   UNL     1      45.234   2.257   9.241  0.00  0.00    +0.000 A 
ATOM     19  C   UNL     1      46.029   1.600   8.302  0.00  0.00    +0.000 A 
ENDBRANCH  13  17
ENDBRANCH   1  13
TORSDOF 3
ENDMDL
MODEL 7
REMARK VINA RESULT:    -6.161      2.198      3.810
REMARK INTER + INTRA:          -7.914
REMARK INTER:                  -7.351
REMARK INTRA:                  -0.563
REMARK UNBOUND:                -0.673
REMARK  Name = 
REMARK  3 active torsions:
REMARK  status: ('A' for Active; 'I' for Inactive)
REMARK    1  A    between atoms: C_4  and  O_5
REMARK    2  A    between atoms: O_5  and  C_6
REMARK    3  A    between atoms: C_10  and  C_11
REMARK                            x       y       z     vdW  Elec       q    Type
REMARK                         _______ _______ _______ _____ _____    ______ ____
ROOT
ATOM      1  C   UNL     1      46.011   6.072  11.997  0.00  0.00    +0.000 A 
ATOM      2  C   UNL     1      46.950   6.928  11.431  0.00  0.00    +0.000 A 
ATOM      3  C   UNL     1      48.145   7.177  12.105  0.00  0.00    +0.000 A 
ATOM      4  C   UNL     1      48.392   6.577  13.345  0.00  0.00    +0.000 A 
ATOM      5  C   UNL     1      47.434   5.753  13.964  0.00  0.00    +0.000 A 
ATOM      6  C   UNL     1      46.229   5.540  13.275  0.00  0.00    +0.000 A 
ENDROOT
BRANCH   5   7
ATOM      7  C   UNL     1      47.658   5.138  15.286  0.00  0.00    +0.000 A 
ATOM      8  C   UNL     1      48.499   5.717  16.249  0.00  0.00    +0.000 A 
ATOM      9  C   UNL     1      48.741   5.078  17.464  0.00  0.00    +0.000 A 
ATOM     10  C   UNL     1      48.119   3.866  17.700  0.00  0.00    +0.000 A 
ATOM     11  N   UNL     1      47.285   3.273  16.825  0.00  0.00    +0.000 NA
ATOM     12  C   UNL     1      47.080   3.918  15.647  0.00  0.00    +0.000 A 
ENDBRANCH   5   7
BRANCH   1  13
ATOM     13  O   UNL     1      44.875   5.797  11.264  0.00  0.00    +0.000 OA
BRANCH  13  17
ATOM     14  C   UNL     1      45.124   2.616   8.579  0.00  0.00    +0.000 A 
ATOM     15  C   UNL     1      44.496   2.464   9.815  0.00  0.00    +0.000 A 
ATOM     16  C   UNL     1      44.408   3.547  10.693  0.00  0.00    +0.000 A 
ATOM     17  C   UNL     1      44.956   4.780  10.333  0.00  0.00    +0.000 A 
ATOM     18  C   UNL     1      45.534   4.944   9.068  0.00  0.00    +0.000 A 
ATOM     19  C   UNL     1      45.639   3.855   8.203  0.00  0.00    +0.000 A 
ENDBRANCH  13  17
ENDBRANCH   1  13
TORSDOF 3
ENDMDL
MODEL 8
REMARK VINA RESULT:    -5.786      3.261      7.127
REMARK INTER + INTRA:          -7.474
REMARK INTER:                  -6.846
REMARK INTRA:                  -0.628
REMARK UNBOUND:                -0.673
REMARK  Name = 
REMARK  3 active torsions:
REMARK  status: ('A' for Active; 'I' for Inactive)
REMARK    1  A    between atoms: C_4  and  O_5
REMARK    2  A    between atoms: O_5  and  C_6
REMARK    3  A    between atoms: C_10  and  C_11
REMARK                            x       y       z     vdW  Elec       q    Type
REMARK                         _______ _______ _______ _____ _____    ______ ____
ROOT
ATOM      1  C   UNL     1      47.790   6.659  13.707  0.00  0.00    +0.000 A 
ATOM      2  C   UNL     1      47.380   7.975  13.890  0.00  0.00    +0.000 A 
ATOM      3  C   UNL     1      46.335   8.482  13.118  0.00  0.00    +0.000 A 
ATOM      4  C   UNL     1      45.711   7.672  12.161  0.00  0.00    +0.000 A 
ATOM      5  C   UNL     1      46.146   6.357  11.918  0.00  0.00    +0.000 A 
ATOM      6  C   UNL     1      47.217   5.881  12.692  0.00  0.00    +0.000 A 
ENDROOT
BRANCH   5   7
ATOM      7  C   UNL     1      45.526   5.497  10.891  0.00  0.00    +0.000 A 
ATOM      8  C   UNL     1      44.514   4.575  11.196  0.00  0.00    +0.000 A 
ATOM      9  C   UNL     1      43.995   3.731  10.215  0.00  0.00    +0.000 A 
ATOM     10  C   UNL     1      44.494   3.841   8.931  0.00  0.00    +0.000 A 
ATOM     11  N   UNL     1      45.448   4.721   8.572  0.00  0.00    +0.000 NA
ATOM     12  C   UNL     1      45.939   5.519   9.556  0.00  0.00    +0.000 A 
ENDBRANCH   5   7
BRANCH   1  13
ATOM     13  O   UNL     1      48.778   6.178  14.541  0.00  0.00    +0.000 OA
BRANCH  13  17
ATOM     14  C   UNL     1      47.515   5.049  18.352  0.00  0.00    +0.000 A 
ATOM     15  C   UNL     1      47.199   4.278  17.233  0.00  0.00    +0.000 A 
ATOM     16  C   UNL     1      47.646   4.665  15.967  0.00  0.00    +0.000 A 
ATOM     17  C   UNL     1      48.406   5.828  15.823  0.00  0.00    +0.000 A 
ATOM     18  C   UNL     1      48.771   6.567  16.955  0.00  0.00    +0.000 A 
ATOM     19  C   UNL     1      48.305   6.189  18.214  0.00  0.00    +0.000 A 
ENDBRANCH  13  17
ENDBRANCH   1  13
TORSDOF 3
ENDMDL
MODEL 9
REMARK VINA RESULT:    -5.594      3.457      7.531
REMARK INTER + INTRA:          -7.248
REMARK INTER:                  -6.659
REMARK INTRA:                  -0.589
REMARK UNBOUND:                -0.673
REMARK  Name = 
REMARK  3 active torsions:
REMARK  status: ('A' for Active; 'I' for Inactive)
REMARK    1  A    between atoms: C_4  and  O_5
REMARK    2  A    between atoms: O_5  and  C_6
REMARK    3  A    between atoms: C_10  and  C_11
REMARK                            x       y       z     vdW  Elec       q    Type
REMARK                         _______ _______ _______ _____ _____    ______ ____
ROOT
ATOM      1  C   UNL     1      48.103   6.545  14.169  0.00  0.00    +0.000 A 
ATOM      2  C   UNL     1      48.006   7.877  13.783  0.00  0.00    +0.000 A 
ATOM      3  C   UNL     1      47.001   8.263  12.896  0.00  0.00    +0.000 A 
ATOM      4  C   UNL     1      46.103   7.313  12.394  0.00  0.00    +0.000 A 
ATOM      5  C   UNL     1      46.217   5.951  12.725  0.00  0.00    +0.000 A 
ATOM      6  C   UNL     1      47.254   5.586  13.599  0.00  0.00    +0.000 A 
ENDROOT
BRANCH   5   7
ATOM      7  C   UNL     1      45.304   4.927  12.180  0.00  0.00    +0.000 A 
ATOM      8  C   UNL     1      44.984   4.859  10.815  0.00  0.00    +0.000 A 
ATOM      9  C   UNL     1      44.067   3.921  10.342  0.00  0.00    +0.000 A 
ATOM     10  C   UNL     1      43.495   3.052  11.251  0.00  0.00    +0.000 A 
ATOM     11  N   UNL     1      43.779   3.054  12.567  0.00  0.00    +0.000 NA
ATOM     12  C   UNL     1      44.667   3.988  12.996  0.00  0.00    +0.000 A 
ENDBRANCH   5   7
BRANCH   1  13
ATOM     13  O   UNL     1      49.066   6.220  15.101  0.00  0.00    +0.000 OA
BRANCH  13  17
ATOM     14  C   UNL     1      47.756   5.952  19.051  0.00  0.00    +0.000 A 
ATOM     15  C   UNL     1      47.664   4.859  18.189  0.00  0.00    +0.000 A 
ATOM     16  C   UNL     1      48.124   4.965  16.874  0.00  0.00    +0.000 A 
ATOM     17  C   UNL     1      48.671   6.168  16.423  0.00  0.00    +0.000 A 
ATOM     18  C   UNL     1      48.815   7.244  17.308  0.00  0.00    +0.000 A 
ATOM     19  C   UNL     1      48.336   7.141  18.614  0.00  0.00    +0.000 A 
ENDBRANCH  13  17
ENDBRANCH   1  13
TORSDOF 3
ENDMDL
