MODEL 1
REMARK VINA RESULT:    -7.846      0.000      0.000
REMARK INTER + INTRA:         -11.019
REMARK INTER:                 -10.598
REMARK INTRA:                  -0.421
REMARK UNBOUND:                -0.421
REMARK  Name = 
REMARK  6 active torsions:
REMARK  status: ('A' for Active; 'I' for Inactive)
REMARK    1  A    between atoms: C_2  and  C_4
REMARK    2  A    between atoms: C_8  and  O_9
REMARK    3  A    between atoms: O_9  and  C_10
REMARK    4  A    between atoms: C_10  and  C_11
REMARK    5  A    between atoms: C_12  and  C_13
REMARK    6  A    between atoms: C_17  and  C_18
REMARK                            x       y       z     vdW  Elec       q    Type
REMARK                         _______ _______ _______ _____ _____    ______ ____
ROOT
ATOM      1  C   UNL     1      44.360   4.193  12.512  0.00  0.00    +0.000 C 
ATOM      2  C   UNL     1      45.339   5.106  12.424  0.00  0.00    +0.000 C 
ENDROOT
BRANCH   2   3
ATOM      3  C   UNL     1      46.376   5.247  13.446  0.00  0.00    +0.000 A 
ATOM      4  C   UNL     1      47.238   6.345  13.420  0.00  0.00    +0.000 A 
ATOM      5  C   UNL     1      48.196   6.507  14.409  0.00  0.00    +0.000 A 
ATOM      6  C   UNL     1      48.260   5.608  15.461  0.00  0.00    +0.000 A 
ATOM      7  C   UNL     1      47.358   4.541  15.568  0.00  0.00    +0.000 A 
ATOM      8  C   UNL     1      46.442   4.348  14.518  0.00  0.00    +0.000 A 
BRANCH   7   9
ATOM      9  C   UNL     1      47.318   3.624  16.788  0.00  0.00    +0.000 C 
ATOM     10  C   UNL     1      47.348   4.420  18.108  0.00  0.00    +0.000 C 
ATOM     11  C   UNL     1      48.749   4.900  18.485  0.00  0.00    +0.000 C 
ATOM     12  N   UNL     1      49.732   3.815  18.514  0.00  0.00    +0.000 NA
ATOM     13  C   UNL     1      49.779   3.066  17.264  0.00  0.00    +0.000 C 
ATOM     14  C   UNL     1      48.407   2.535  16.830  0.00  0.00    +0.000 C 
ATOM     15  H   UNL     1      49.507   3.185  19.270  0.00  0.00    +0.000 HD
ENDBRANCH   7   9
ENDBRANCH   2   3
BRANCH   1  16
ATOM     16  C   UNL     1      43.391   3.935  11.416  0.00  0.00    +0.000 C 
BRANCH  16  17
ATOM     17  O   UNL     1      43.818   2.785  10.697  0.00  0.00    +0.000 OA
BRANCH  17  22
ATOM     18  C   UNL     1      46.207   2.083   8.061  0.00  0.00    +0.000 A 
ATOM     19  C   UNL     1      46.325   3.319   7.415  0.00  0.00    +0.000 A 
ATOM     20  C   UNL     1      45.606   4.417   7.886  0.00  0.00    +0.000 A 
ATOM     21  C   UNL     1      44.770   4.278   8.993  0.00  0.00    +0.000 A 
ATOM     22  C   UNL     1      44.640   3.041   9.632  0.00  0.00    +0.000 A 
ATOM     23  C   UNL     1      45.373   1.950   9.175  0.00  0.00    +0.000 A 
BRANCH  18  25
ATOM     24  N   UNL     1      48.016   1.164   6.729  0.00  0.00    +0.000 N 
ATOM     25  C   UNL     1      46.946   0.907   7.545  0.00  0.00    +0.000 C 
ATOM     26  O   UNL     1      46.631  -0.235   7.845  0.00  0.00    +0.000 OA
ATOM     27  H   UNL     1      48.568   0.369   6.437  0.00  0.00    +0.000 HD
ATOM     28  H   UNL     1      48.431   2.081   6.658  0.00  0.00    +0.000 HD
ENDBRANCH  18  25
ENDBRANCH  17  22
ENDBRANCH  16  17
ENDBRANCH   1  16
TORSDOF 6
ENDMDL
MODEL 2
REMARK VINA RESULT:    -7.722      3.559      8.480
REMARK INTER + INTRA:         -10.852
REMARK INTER:                 -10.488
REMARK INTRA:                  -0.364
REMARK UNBOUND:                -0.421
REMARK  Name = 
REMARK  6 active torsions:
REMARK  status: ('A' for Active; 'I' for Inactive)
REMARK    1  A    between atoms: C_2  and  C_4
REMARK    2  A    between atoms: C_8  and  O_9
REMARK    3  A    between atoms: O_9  and  C_10
REMARK    4  A    between atoms: C_10  and  C_11
REMARK    5  A    between atoms: C_12  and  C_13
REMARK    6  A    between atoms: C_17  and  C_18
REMARK                            x       y       z     vdW  Elec       q    Type
REMARK                         _______ _______ _______ _____ _____    ______ ____
ROOT
ATOM      1  C   UNL     1      47.317   4.259  15.967  0.00  0.00    +0.000 C 
ATOM      2  C   UNL     1      47.100   3.856  14.707  0.00  0.00    +0.000 C 
ENDROOT
BRANCH   2   3
ATOM      3  C   UNL     1      46.774   4.790  13.629  0.00  0.00    +0.000 A 
ATOM      4  C   UNL     1      47.640   5.847  13.335  0.00  0.00    +0.000 A 
ATOM      5  C   UNL     1      47.360   6.711  12.288  0.00  0.00    +0.000 A 
ATOM      6  C   UNL     1      46.247   6.492  11.491  0.00  0.00    +0.000 A 
ATOM      7  C   UNL     1      45.401   5.395  11.701  0.00  0.00    +0.000 A 
ATOM      8  C   UNL     1      45.657   4.571  12.813  0.00  0.00    +0.000 A 
BRANCH   7   9
ATOM      9  C   UNL     1      44.254   5.054  10.753  0.00  0.00    +0.000 C 
ATOM     10  C   UNL     1      43.122   4.290  11.471  0.00  0.00    +0.000 C 
ATOM     11  C   UNL     1      43.433   2.807  11.666  0.00  0.00    +0.000 C 
ATOM     12  N   UNL     1      43.800   2.135  10.418  0.00  0.00    +0.000 NA
ATOM     13  C   UNL     1      44.905   2.791   9.729  0.00  0.00    +0.000 C 
ATOM     14  C   UNL     1      44.656   4.283   9.482  0.00  0.00    +0.000 C 
ATOM     15  H   UNL     1      42.997   2.109   9.807  0.00  0.00    +0.000 HD
ENDBRANCH   7   9
ENDBRANCH   2   3
BRANCH   1  16
ATOM     16  C   UNL     1      47.795   3.347  17.039  0.00  0.00    +0.000 C 
BRANCH  16  17
ATOM     17  O   UNL     1      48.863   2.563  16.522  0.00  0.00    +0.000 OA
BRANCH  17  22
ATOM     18  C   UNL     1      52.203   1.767  17.687  0.00  0.00    +0.000 A 
ATOM     19  C   UNL     1      52.633   2.979  18.240  0.00  0.00    +0.000 A 
ATOM     20  C   UNL     1      51.778   4.079  18.243  0.00  0.00    +0.000 A 
ATOM     21  C   UNL     1      50.502   3.971  17.691  0.00  0.00    +0.000 A 
ATOM     22  C   UNL     1      50.074   2.766  17.126  0.00  0.00    +0.000 A 
ATOM     23  C   UNL     1      50.920   1.661  17.141  0.00  0.00    +0.000 A 
BRANCH  18  25
ATOM     24  N   UNL     1      52.787  -0.463  18.446  0.00  0.00    +0.000 N 
ATOM     25  C   UNL     1      53.120   0.604  17.654  0.00  0.00    +0.000 C 
ATOM     26  O   UNL     1      54.113   0.587  16.943  0.00  0.00    +0.000 OA
ATOM     27  H   UNL     1      53.367  -1.287  18.369  0.00  0.00    +0.000 HD
ATOM     28  H   UNL     1      51.869  -0.566  18.853  0.00  0.00    +0.000 HD
ENDBRANCH  18  25
ENDBRANCH  17  22
ENDBRANCH  16  17
ENDBRANCH   1  16
TORSDOF 6
ENDMDL
MODEL 3
REMARK VINA RESULT:    -6.987      4.204      6.699
REMARK INTER + INTRA:          -9.859
REMARK INTER:                  -8.844
REMARK INTRA:                  -1.015
REMARK UNBOUND:                -0.421
REMARK  Name = 
REMARK  6 active torsions:
REMARK  status: ('A' for Active; 'I' for Inactive)
REMARK    1  A    between atoms: C_2  and  C_4
REMARK    2  A    between atoms: C_8  and  O_9
REMARK    3  A    between atoms: O_9  and  C_10
REMARK    4  A    between atoms: C_10  and  C_11
REMARK    5  A    between atoms: C_12  and  C_13
REMARK    6  A    between atoms: C_17  and  C_18
REMARK                            x       y       z     vdW  Elec       q    Type
REMARK                         _______ _______ _______ _____ _____    ______ ____
ROOT
ATOM      1  C   UNL     1      46.986   6.176  13.432  0.00  0.00    +0.000 C 
ATOM      2  C   UNL     1      47.677   6.653  12.386  0.00  0.00    +0.000 C 
ENDROOT
BRANCH   2   3
ATOM      3  C   UNL     1      47.802   8.085  12.114  0.00  0.00    +0.000 A 
ATOM      4  C   UNL     1      49.001   8.600  11.615  0.00  0.00    +0.000 A 
ATOM      5  C   UNL     1      49.113   9.949  11.316  0.00  0.00    +0.000 A 
ATOM      6  C   UNL     1      48.013  10.781  11.456  0.00  0.00    +0.000 A 
ATOM      7  C   UNL     1      46.770  10.286  11.872  0.00  0.00    +0.000 A 
ATOM      8  C   UNL     1      46.693   8.931  12.244  0.00  0.00    +0.000 A 
BRANCH   7   9
ATOM      9  C   UNL     1      45.513  11.152  11.898  0.00  0.00    +0.000 C 
ATOM     10  C   UNL     1      44.228  10.303  11.808  0.00  0.00    +0.000 C 
ATOM     11  C   UNL     1      43.913   9.846  10.385  0.00  0.00    +0.000 C 
ATOM     12  N   UNL     1      43.868  10.955   9.429  0.00  0.00    +0.000 NA
ATOM     13  C   UNL     1      45.087  11.755   9.439  0.00  0.00    +0.000 C 
ATOM     14  C   UNL     1      45.457  12.266  10.836  0.00  0.00    +0.000 C 
ATOM     15  H   UNL     1      43.080  11.547   9.646  0.00  0.00    +0.000 HD
ENDBRANCH   7   9
ENDBRANCH   2   3
BRANCH   1  16
ATOM     16  C   UNL     1      46.975   4.739  13.809  0.00  0.00    +0.000 C 
BRANCH  16  17
ATOM     17  O   UNL     1      45.625   4.333  14.001  0.00  0.00    +0.000 OA
BRANCH  17  22
ATOM     18  C   UNL     1      44.317   4.064  10.631  0.00  0.00    +0.000 A 
ATOM     19  C   UNL     1      43.178   4.877  10.676  0.00  0.00    +0.000 A 
ATOM     20  C   UNL     1      42.855   5.548  11.855  0.00  0.00    +0.000 A 
ATOM     21  C   UNL     1      43.662   5.402  12.983  0.00  0.00    +0.000 A 
ATOM     22  C   UNL     1      44.792   4.580  12.944  0.00  0.00    +0.000 A 
ATOM     23  C   UNL     1      45.127   3.926  11.762  0.00  0.00    +0.000 A 
BRANCH  18  25
ATOM     24  N   UNL     1      44.949   1.997   9.528  0.00  0.00    +0.000 N 
ATOM     25  C   UNL     1      44.647   3.326   9.390  0.00  0.00    +0.000 C 
ATOM     26  O   UNL     1      44.632   3.867   8.294  0.00  0.00    +0.000 OA
ATOM     27  H   UNL     1      45.100   1.472   8.677  0.00  0.00    +0.000 HD
ATOM     28  H   UNL     1      44.743   1.482  10.372  0.00  0.00    +0.000 HD
ENDBRANCH  18  25
ENDBRANCH  17  22
ENDBRANCH  16  17
ENDBRANCH   1  16
TORSDOF 6
ENDMDL
MODEL 4
REMARK VINA RESULT:    -6.959      1.853      3.040
REMARK INTER + INTRA:          -9.821
REMARK INTER:                  -8.832
REMARK INTRA:                  -0.989
REMARK UNBOUND:                -0.421
REMARK  Name = 
REMARK  6 active torsions:
REMARK  status: ('A' for Active; 'I' for Inactive)
REMARK    1  A    between atoms: C_2  and  C_4
REMARK    2  A    between atoms: C_8  and  O_9
REMARK    3  A    between atoms: O_9  and  C_10
REMARK    4  A    between atoms: C_10  and  C_11
REMARK    5  A    between atoms: C_12  and  C_13
REMARK    6  A    between atoms: C_17  and  C_18
REMARK                            x       y       z     vdW  Elec       q    Type
REMARK                         _______ _______ _______ _____ _____    ______ ____
ROOT
ATOM      1  C   UNL     1      46.176   7.283  12.536  0.00  0.00    +0.000 C 
ATOM      2  C   UNL     1      47.342   6.620  12.563  0.00  0.00    +0.000 C 
ENDROOT
BRANCH   2   3
ATOM      3  C   UNL     1      48.199   6.587  13.748  0.00  0.00    +0.000 A 
ATOM      4  C   UNL     1      49.328   7.407  13.816  0.00  0.00    +0.000 A 
ATOM      5  C   UNL     1      50.122   7.412  14.953  0.00  0.00    +0.000 A 
ATOM      6  C   UNL     1      49.762   6.645  16.050  0.00  0.00    +0.000 A 
ATOM      7  C   UNL     1      48.591   5.875  16.051  0.00  0.00    +0.000 A 
ATOM      8  C   UNL     1      47.837   5.822  14.864  0.00  0.00    +0.000 A 
BRANCH   7   9
ATOM      9  C   UNL     1      48.100   5.136  17.294  0.00  0.00    +0.000 C 
ATOM     10  C   UNL     1      49.196   5.038  18.375  0.00  0.00    +0.000 C 
ATOM     11  C   UNL     1      50.216   3.935  18.092  0.00  0.00    +0.000 C 
ATOM     12  N   UNL     1      49.593   2.629  17.868  0.00  0.00    +0.000 NA
ATOM     13  C   UNL     1      48.585   2.661  16.815  0.00  0.00    +0.000 C 
ATOM     14  C   UNL     1      47.514   3.735  17.040  0.00  0.00    +0.000 C 
ATOM     15  H   UNL     1      49.165   2.315  18.727  0.00  0.00    +0.000 HD
ENDBRANCH   7   9
ENDBRANCH   2   3
BRANCH   1  16
ATOM     16  C   UNL     1      45.223   7.203  11.398  0.00  0.00    +0.000 C 
BRANCH  16  17
ATOM     17  O   UNL     1      43.992   6.676  11.876  0.00  0.00    +0.000 OA
BRANCH  17  22
ATOM     18  C   UNL     1      44.205   3.414  10.306  0.00  0.00    +0.000 A 
ATOM     19  C   UNL     1      43.746   2.557  11.313  0.00  0.00    +0.000 A 
ATOM     20  C   UNL     1      43.335   3.085  12.536  0.00  0.00    +0.000 A 
ATOM     21  C   UNL     1      43.388   4.462  12.753  0.00  0.00    +0.000 A 
ATOM     22  C   UNL     1      43.859   5.319  11.754  0.00  0.00    +0.000 A 
ATOM     23  C   UNL     1      44.250   4.795  10.526  0.00  0.00    +0.000 A 
BRANCH  18  25
ATOM     24  N   UNL     1      44.399   3.590   7.893  0.00  0.00    +0.000 N 
ATOM     25  C   UNL     1      44.671   2.855   9.016  0.00  0.00    +0.000 C 
ATOM     26  O   UNL     1      45.285   1.799   8.956  0.00  0.00    +0.000 OA
ATOM     27  H   UNL     1      44.782   3.251   7.022  0.00  0.00    +0.000 HD
ATOM     28  H   UNL     1      44.109   4.556   7.939  0.00  0.00    +0.000 HD
ENDBRANCH  18  25
ENDBRANCH  17  22
ENDBRANCH  16  17
ENDBRANCH   1  16
TORSDOF 6
ENDMDL
MODEL 5
REMARK VINA RESULT:    -6.953      2.428      3.365
REMARK INTER + INTRA:          -9.813
REMARK INTER:                  -9.053
REMARK INTRA:                  -0.760
REMARK UNBOUND:                -0.421
REMARK  Name = 
REMARK  6 active torsions:
REMARK  status: ('A' for Active; 'I' for Inactive)
REMARK    1  A    between atoms: C_2  and  C_4
REMARK    2  A    between atoms: C_8  and  O_9
REMARK    3  A    between atoms: O_9  and  C_10
REMARK    4  A    between atoms: C_10  and  C_11
REMARK    5  A    between atoms: C_12  and  C_13
REMARK    6  A    between atoms: C_17  and  C_18
REMARK                            x       y       z     vdW  Elec       q    Type
REMARK                         _______ _______ _______ _____ _____    ______ ____
ROOT
ATOM      1  C   UNL     1      46.277   7.306  12.890  0.00  0.00    +0.000 C 
ATOM      2  C   UNL     1      47.441   6.638  12.892  0.00  0.00    +0.000 C 
ENDROOT
BRANCH   2   3
ATOM      3  C   UNL     1      48.330   6.614  14.053  0.00  0.00    +0.000 A 
ATOM      4  C   UNL     1      49.404   7.503  14.130  0.00  0.00    +0.000 A 
ATOM      5  C   UNL     1      50.226   7.515  15.246  0.00  0.00    +0.000 A 
ATOM      6  C   UNL     1      49.947   6.682  16.317  0.00  0.00    +0.000 A 
ATOM      7  C   UNL     1      48.830   5.836  16.315  0.00  0.00    +0.000 A 
ATOM      8  C   UNL     1      48.050   5.782  15.145  0.00  0.00    +0.000 A 
BRANCH   7   9
ATOM      9  C   UNL     1      48.423   5.016  17.536  0.00  0.00    +0.000 C 
ATOM     10  C   UNL     1      49.601   4.812  18.511  0.00  0.00    +0.000 C 
ATOM     11  C   UNL     1      50.562   3.712  18.063  0.00  0.00    +0.000 C 
ATOM     12  N   UNL     1      49.886   2.441  17.796  0.00  0.00    +0.000 NA
ATOM     13  C   UNL     1      48.797   2.574  16.836  0.00  0.00    +0.000 C 
ATOM     14  C   UNL     1      47.779   3.651  17.230  0.00  0.00    +0.000 C 
ATOM     15  H   UNL     1      49.522   2.071  18.662  0.00  0.00    +0.000 HD
ENDBRANCH   7   9
ENDBRANCH   2   3
BRANCH   1  16
ATOM     16  C   UNL     1      45.294   7.218  11.780  0.00  0.00    +0.000 C 
BRANCH  16  17
ATOM     17  O   UNL     1      45.952   6.692  10.634  0.00  0.00    +0.000 OA
BRANCH  17  22
ATOM     18  C   UNL     1      44.282   3.483  10.880  0.00  0.00    +0.000 A 
ATOM     19  C   UNL     1      44.458   2.945   9.600  0.00  0.00    +0.000 A 
ATOM     20  C   UNL     1      45.170   3.663   8.640  0.00  0.00    +0.000 A 
ATOM     21  C   UNL     1      45.699   4.914   8.957  0.00  0.00    +0.000 A 
ATOM     22  C   UNL     1      45.514   5.459  10.231  0.00  0.00    +0.000 A 
ATOM     23  C   UNL     1      44.821   4.735  11.195  0.00  0.00    +0.000 A 
BRANCH  18  25
ATOM     24  N   UNL     1      43.569   3.195  13.182  0.00  0.00    +0.000 N 
ATOM     25  C   UNL     1      43.500   2.737  11.893  0.00  0.00    +0.000 C 
ATOM     26  O   UNL     1      42.810   1.773  11.593  0.00  0.00    +0.000 OA
ATOM     27  H   UNL     1      42.978   2.736  13.861  0.00  0.00    +0.000 HD
ATOM     28  H   UNL     1      43.934   4.108  13.410  0.00  0.00    +0.000 HD
ENDBRANCH  18  25
ENDBRANCH  17  22
ENDBRANCH  16  17
ENDBRANCH   1  16
TORSDOF 6
ENDMDL
MODEL 6
REMARK VINA RESULT:    -6.909      3.509      8.609
REMARK INTER + INTRA:          -9.753
REMARK INTER:                  -8.992
REMARK INTRA:                  -0.761
REMARK UNBOUND:                -0.421
REMARK  Name = 
REMARK  6 active torsions:
REMARK  status: ('A' for Active; 'I' for Inactive)
REMARK    1  A    between atoms: C_2  and  C_4
REMARK    2  A    between atoms: C_8  and  O_9
REMARK    3  A    between atoms: O_9  and  C_10
REMARK    4  A    between atoms: C_10  and  C_11
REMARK    5  A    between atoms: C_12  and  C_13
REMARK    6  A    between atoms: C_17  and  C_18
REMARK                            x       y       z     vdW  Elec       q    Type
REMARK                         _______ _______ _______ _____ _____    ______ ____
ROOT
ATOM      1  C   UNL     1      46.972   4.252  15.566  0.00  0.00    +0.000 C 
ATOM      2  C   UNL     1      47.498   5.303  14.917  0.00  0.00    +0.000 C 
ENDROOT
BRANCH   2   3
ATOM      3  C   UNL     1      47.001   5.751  13.617  0.00  0.00    +0.000 A 
ATOM      4  C   UNL     1      47.864   6.386  12.720  0.00  0.00    +0.000 A 
ATOM      5  C   UNL     1      47.411   6.775  11.469  0.00  0.00    +0.000 A 
ATOM      6  C   UNL     1      46.113   6.481  11.082  0.00  0.00    +0.000 A 
ATOM      7  C   UNL     1      45.243   5.770  11.920  0.00  0.00    +0.000 A 
ATOM      8  C   UNL     1      45.694   5.448  13.214  0.00  0.00    +0.000 A 
BRANCH   7   9
ATOM      9  C   UNL     1      43.861   5.312  11.463  0.00  0.00    +0.000 C 
ATOM     10  C   UNL     1      43.179   4.408  12.510  0.00  0.00    +0.000 C 
ATOM     11  C   UNL     1      43.691   2.969  12.482  0.00  0.00    +0.000 C 
ATOM     12  N   UNL     1      43.614   2.365  11.150  0.00  0.00    +0.000 NA
ATOM     13  C   UNL     1      44.294   3.159  10.133  0.00  0.00    +0.000 C 
ATOM     14  C   UNL     1      43.817   4.615  10.090  0.00  0.00    +0.000 C 
ATOM     15  H   UNL     1      42.645   2.255  10.892  0.00  0.00    +0.000 HD
ENDBRANCH   7   9
ENDBRANCH   2   3
BRANCH   1  16
ATOM     16  C   UNL     1      47.361   3.877  16.950  0.00  0.00    +0.000 C 
BRANCH  16  17
ATOM     17  O   UNL     1      48.111   2.670  16.897  0.00  0.00    +0.000 OA
BRANCH  17  22
ATOM     18  C   UNL     1      51.081   4.221  18.283  0.00  0.00    +0.000 A 
ATOM     19  C   UNL     1      52.057   3.233  18.103  0.00  0.00    +0.000 A 
ATOM     20  C   UNL     1      51.718   2.031  17.484  0.00  0.00    +0.000 A 
ATOM     21  C   UNL     1      50.410   1.816  17.052  0.00  0.00    +0.000 A 
ATOM     22  C   UNL     1      49.430   2.795  17.243  0.00  0.00    +0.000 A 
ATOM     23  C   UNL     1      49.772   4.002  17.842  0.00  0.00    +0.000 A 
BRANCH  18  25
ATOM     24  N   UNL     1      50.388   6.225  19.462  0.00  0.00    +0.000 N 
ATOM     25  C   UNL     1      51.431   5.487  18.968  0.00  0.00    +0.000 C 
ATOM     26  O   UNL     1      52.591   5.847  19.105  0.00  0.00    +0.000 OA
ATOM     27  H   UNL     1      50.626   7.050  19.996  0.00  0.00    +0.000 HD
ATOM     28  H   UNL     1      49.460   5.843  19.568  0.00  0.00    +0.000 HD
ENDBRANCH  18  25
ENDBRANCH  17  22
ENDBRANCH  16  17
ENDBRANCH   1  16
TORSDOF 6
ENDMDL
MODEL 7
REMARK VINA RESULT:    -6.781      3.487      8.100
REMARK INTER + INTRA:          -9.581
REMARK INTER:                  -8.668
REMARK INTRA:                  -0.914
REMARK UNBOUND:                -0.421
REMARK  Name = 
REMARK  6 active torsions:
REMARK  status: ('A' for Active; 'I' for Inactive)
REMARK    1  A    between atoms: C_2  and  C_4
REMARK    2  A    between atoms: C_8  and  O_9
REMARK    3  A    between atoms: O_9  and  C_10
REMARK    4  A    between atoms: C_10  and  C_11
REMARK    5  A    between atoms: C_12  and  C_13
REMARK    6  A    between atoms: C_17  and  C_18
REMARK                            x       y       z     vdW  Elec       q    Type
REMARK                         _______ _______ _______ _____ _____    ______ ____
ROOT
ATOM      1  C   UNL     1      48.818   7.201  14.996  0.00  0.00    +0.000 C 
ATOM      2  C   UNL     1      48.491   6.838  13.746  0.00  0.00    +0.000 C 
ENDROOT
BRANCH   2   3
ATOM      3  C   UNL     1      47.177   7.115  13.167  0.00  0.00    +0.000 A 
ATOM      4  C   UNL     1      46.986   8.253  12.380  0.00  0.00    +0.000 A 
ATOM      5  C   UNL     1      45.755   8.500  11.792  0.00  0.00    +0.000 A 
ATOM      6  C   UNL     1      44.725   7.583  11.937  0.00  0.00    +0.000 A 
ATOM      7  C   UNL     1      44.903   6.388  12.647  0.00  0.00    +0.000 A 
ATOM      8  C   UNL     1      46.134   6.189  13.300  0.00  0.00    +0.000 A 
BRANCH   7   9
ATOM      9  C   UNL     1      43.832   5.302  12.701  0.00  0.00    +0.000 C 
ATOM     10  C   UNL     1      44.439   3.908  12.957  0.00  0.00    +0.000 C 
ATOM     11  C   UNL     1      45.046   3.281  11.702  0.00  0.00    +0.000 C 
ATOM     12  N   UNL     1      44.108   3.238  10.578  0.00  0.00    +0.000 NA
ATOM     13  C   UNL     1      43.547   4.547  10.263  0.00  0.00    +0.000 C 
ATOM     14  C   UNL     1      42.903   5.231  11.475  0.00  0.00    +0.000 C 
ATOM     15  H   UNL     1      43.357   2.600  10.798  0.00  0.00    +0.000 HD
ENDBRANCH   7   9
ENDBRANCH   2   3
BRANCH   1  16
ATOM     16  C   UNL     1      50.191   7.064  15.547  0.00  0.00    +0.000 C 
BRANCH  16  17
ATOM     17  O   UNL     1      50.106   7.033  16.967  0.00  0.00    +0.000 OA
BRANCH  17  22
ATOM     18  C   UNL     1      49.519   3.498  17.520  0.00  0.00    +0.000 A 
ATOM     19  C   UNL     1      48.494   3.501  18.473  0.00  0.00    +0.000 A 
ATOM     20  C   UNL     1      47.972   4.713  18.922  0.00  0.00    +0.000 A 
ATOM     21  C   UNL     1      48.476   5.915  18.427  0.00  0.00    +0.000 A 
ATOM     22  C   UNL     1      49.510   5.915  17.485  0.00  0.00    +0.000 A 
ATOM     23  C   UNL     1      50.017   4.706  17.021  0.00  0.00    +0.000 A 
BRANCH  18  25
ATOM     24  N   UNL     1      51.108   1.689  17.824  0.00  0.00    +0.000 N 
ATOM     25  C   UNL     1      50.097   2.213  17.063  0.00  0.00    +0.000 C 
ATOM     26  O   UNL     1      49.682   1.637  16.068  0.00  0.00    +0.000 OA
ATOM     27  H   UNL     1      51.453   0.776  17.559  0.00  0.00    +0.000 HD
ATOM     28  H   UNL     1      51.304   2.017  18.759  0.00  0.00    +0.000 HD
ENDBRANCH  18  25
ENDBRANCH  17  22
ENDBRANCH  16  17
ENDBRANCH   1  16
TORSDOF 6
ENDMDL
MODEL 8
REMARK VINA RESULT:    -6.759      2.395      4.300
REMARK INTER + INTRA:          -9.550
REMARK INTER:                  -8.642
REMARK INTRA:                  -0.908
REMARK UNBOUND:                -0.421
REMARK  Name = 
REMARK  6 active torsions:
REMARK  status: ('A' for Active; 'I' for Inactive)
REMARK    1  A    between atoms: C_2  and  C_4
REMARK    2  A    between atoms: C_8  and  O_9
REMARK    3  A    between atoms: O_9  and  C_10
REMARK    4  A    between atoms: C_10  and  C_11
REMARK    5  A    between atoms: C_12  and  C_13
REMARK    6  A    between atoms: C_17  and  C_18
REMARK                            x       y       z     vdW  Elec       q    Type
REMARK                         _______ _______ _______ _____ _____    ______ ____
ROOT
ATOM      1  C   UNL     1      47.677   6.074  14.191  0.00  0.00    +0.000 C 
ATOM      2  C   UNL     1      47.346   4.892  14.732  0.00  0.00    +0.000 C 
ENDROOT
BRANCH   2   3
ATOM      3  C   UNL     1      47.689   4.535  16.108  0.00  0.00    +0.000 A 
ATOM      4  C   UNL     1      47.597   3.207  16.530  0.00  0.00    +0.000 A 
ATOM      5  C   UNL     1      47.961   2.855  17.821  0.00  0.00    +0.000 A 
ATOM      6  C   UNL     1      48.473   3.814  18.679  0.00  0.00    +0.000 A 
ATOM      7  C   UNL     1      48.660   5.140  18.267  0.00  0.00    +0.000 A 
ATOM      8  C   UNL     1      48.216   5.497  16.980  0.00  0.00    +0.000 A 
BRANCH   7   9
ATOM      9  C   UNL     1      49.351   6.180  19.145  0.00  0.00    +0.000 C 
ATOM     10  C   UNL     1      49.037   5.970  20.641  0.00  0.00    +0.000 C 
ATOM     11  C   UNL     1      47.665   6.509  21.043  0.00  0.00    +0.000 C 
ATOM     12  N   UNL     1      47.472   7.910  20.666  0.00  0.00    +0.000 NA
ATOM     13  C   UNL     1      47.706   8.148  19.246  0.00  0.00    +0.000 C 
ATOM     14  C   UNL     1      49.076   7.648  18.772  0.00  0.00    +0.000 C 
ATOM     15  H   UNL     1      48.099   8.488  21.207  0.00  0.00    +0.000 HD
ENDBRANCH   7   9
ENDBRANCH   2   3
BRANCH   1  16
ATOM     16  C   UNL     1      47.208   6.511  12.850  0.00  0.00    +0.000 C 
BRANCH  16  17
ATOM     17  O   UNL     1      45.813   6.782  12.925  0.00  0.00    +0.000 OA
BRANCH  17  22
ATOM     18  C   UNL     1      44.634   4.629  10.256  0.00  0.00    +0.000 A 
ATOM     19  C   UNL     1      43.559   3.960  10.852  0.00  0.00    +0.000 A 
ATOM     20  C   UNL     1      43.208   4.252  12.169  0.00  0.00    +0.000 A 
ATOM     21  C   UNL     1      43.930   5.204  12.888  0.00  0.00    +0.000 A 
ATOM     22  C   UNL     1      45.013   5.864  12.299  0.00  0.00    +0.000 A 
ATOM     23  C   UNL     1      45.351   5.588  10.979  0.00  0.00    +0.000 A 
BRANCH  18  25
ATOM     24  N   UNL     1      44.327   3.299   8.250  0.00  0.00    +0.000 N 
ATOM     25  C   UNL     1      45.030   4.299   8.868  0.00  0.00    +0.000 C 
ATOM     26  O   UNL     1      45.925   4.901   8.293  0.00  0.00    +0.000 OA
ATOM     27  H   UNL     1      44.542   3.123   7.278  0.00  0.00    +0.000 HD
ATOM     28  H   UNL     1      43.448   2.957   8.610  0.00  0.00    +0.000 HD
ENDBRANCH  18  25
ENDBRANCH  17  22
ENDBRANCH  16  17
ENDBRANCH   1  16
TORSDOF 6
ENDMDL
MODEL 9
REMARK VINA RESULT:    -6.690      3.623      7.946
REMARK INTER + INTRA:          -9.458
REMARK INTER:                  -8.500
REMARK INTRA:                  -0.958
REMARK UNBOUND:                -0.421
REMARK  Name = 
REMARK  6 active torsions:
REMARK  status: ('A' for Active; 'I' for Inactive)
REMARK    1  A    between atoms: C_2  and  C_4
REMARK    2  A    between atoms: C_8  and  O_9
REMARK    3  A    between atoms: O_9  and  C_10
REMARK    4  A    between atoms: C_10  and  C_11
REMARK    5  A    between atoms: C_12  and  C_13
REMARK    6  A    between atoms: C_17  and  C_18
REMARK                            x       y       z     vdW  Elec       q    Type
REMARK                         _______ _______ _______ _____ _____    ______ ____
ROOT
ATOM      1  C   UNL     1      48.380   8.521  14.688  0.00  0.00    +0.000 C 
ATOM      2  C   UNL     1      48.240   8.387  13.361  0.00  0.00    +0.000 C 
ENDROOT
BRANCH   2   3
ATOM      3  C   UNL     1      46.931   8.342  12.710  0.00  0.00    +0.000 A 
ATOM      4  C   UNL     1      46.276   9.529  12.375  0.00  0.00    +0.000 A 
ATOM      5  C   UNL     1      45.055   9.494  11.720  0.00  0.00    +0.000 A 
ATOM      6  C   UNL     1      44.508   8.278  11.343  0.00  0.00    +0.000 A 
ATOM      7  C   UNL     1      45.175   7.069  11.585  0.00  0.00    +0.000 A 
ATOM      8  C   UNL     1      46.376   7.117  12.316  0.00  0.00    +0.000 A 
BRANCH   7   9
ATOM      9  C   UNL     1      44.663   5.733  11.055  0.00  0.00    +0.000 C 
ATOM     10  C   UNL     1      43.156   5.546  11.326  0.00  0.00    +0.000 C 
ATOM     11  C   UNL     1      42.857   5.118  12.762  0.00  0.00    +0.000 C 
ATOM     12  N   UNL     1      43.606   3.927  13.168  0.00  0.00    +0.000 NA
ATOM     13  C   UNL     1      45.045   4.078  12.980  0.00  0.00    +0.000 C 
ATOM     14  C   UNL     1      45.424   4.490  11.553  0.00  0.00    +0.000 C 
ATOM     15  H   UNL     1      43.283   3.135  12.633  0.00  0.00    +0.000 HD
ENDBRANCH   7   9
ENDBRANCH   2   3
BRANCH   1  16
ATOM     16  C   UNL     1      49.696   8.721  15.349  0.00  0.00    +0.000 C 
BRANCH  16  17
ATOM     17  O   UNL     1      50.134   7.472  15.870  0.00  0.00    +0.000 OA
BRANCH  17  22
ATOM     18  C   UNL     1      47.931   4.876  17.118  0.00  0.00    +0.000 A 
ATOM     19  C   UNL     1      47.507   5.396  18.346  0.00  0.00    +0.000 A 
ATOM     20  C   UNL     1      47.950   6.653  18.755  0.00  0.00    +0.000 A 
ATOM     21  C   UNL     1      48.817   7.384  17.943  0.00  0.00    +0.000 A 
ATOM     22  C   UNL     1      49.253   6.861  16.722  0.00  0.00    +0.000 A 
ATOM     23  C   UNL     1      48.795   5.615  16.304  0.00  0.00    +0.000 A 
BRANCH  18  25
ATOM     24  N   UNL     1      46.865   2.761  17.644  0.00  0.00    +0.000 N 
ATOM     25  C   UNL     1      47.486   3.528  16.694  0.00  0.00    +0.000 C 
ATOM     26  O   UNL     1      47.647   3.126  15.552  0.00  0.00    +0.000 OA
ATOM     27  H   UNL     1      46.492   1.872  17.339  0.00  0.00    +0.000 HD
ATOM     28  H   UNL     1      46.516   3.150  18.507  0.00  0.00    +0.000 HD
ENDBRANCH  18  25
ENDBRANCH  17  22
ENDBRANCH  16  17
ENDBRANCH   1  16
TORSDOF 6
ENDMDL
