MODEL 1
REMARK VINA RESULT:    -7.397      0.000      0.000
REMARK INTER + INTRA:         -11.057
REMARK INTER:                 -10.425
REMARK INTRA:                  -0.633
REMARK UNBOUND:                -0.633
REMARK  Name = 
REMARK  8 active torsions:
REMARK  status: ('A' for Active; 'I' for Inactive)
REMARK    1  A    between atoms: N_1  and  C_2
REMARK    2  A    between atoms: C_2  and  C_3
REMARK    3  A    between atoms: C_7  and  C_8
REMARK    4  A    between atoms: C_8  and  C_9
REMARK    5  A    between atoms: C_9  and  N_10
REMARK    6  A    between atoms: N_10  and  C_11
REMARK    7  A    between atoms: CA_14  and  C_15
REMARK    8  A    between atoms: C_15  and  OXT_17
REMARK                            x       y       z     vdW  Elec       q    Type
REMARK                         _______ _______ _______ _____ _____    ______ ____
ROOT
ATOM      1  C   UNL     1      43.354   4.505  10.995  0.00  0.00    +0.000 C 
ENDROOT
BRANCH   1   2
ATOM      2  N   UNL     1      43.610   4.699   9.557  0.00  0.00    +0.000 N 
ATOM      3  H   UNL     1      43.820   5.668   9.328  0.00  0.00    +0.000 HD
BRANCH   2   4
ATOM      4  C   UNL     1      44.509   3.806   8.945  0.00  0.00    +0.000 A 
ATOM      5  C   UNL     1      45.480   4.216   8.025  0.00  0.00    +0.000 A 
ATOM      6  C   UNL     1      46.389   3.305   7.486  0.00  0.00    +0.000 A 
ATOM      7  CA  UNL     1      46.324   1.991   7.910  0.00  0.00    +0.000 A 
ATOM      8  N   UNL     1      45.438   1.529   8.838  0.00  0.00    +0.000 NA
ATOM      9  C   UNL     1      44.578   2.461   9.337  0.00  0.00    +0.000 A 
BRANCH   7  10
ATOM     10  C   UNL     1      47.274   0.986   7.344  0.00  0.00    +0.000 C 
ATOM     11  O   UNL     1      48.164   1.238   6.553  0.00  0.00    +0.000 OA
BRANCH  10  12
ATOM     12  OXT UNL     1      47.004  -0.252   7.826  0.00  0.00    +0.000 OA
ATOM     13  HXT UNL     1      47.854  -0.723   7.983  0.00  0.00    +0.000 HD
ENDBRANCH  10  12
ENDBRANCH   7  10
ENDBRANCH   2   4
ENDBRANCH   1   2
BRANCH   1  14
ATOM     14  C   UNL     1      43.550   5.802  11.791  0.00  0.00    +0.000 C 
BRANCH  14  19
ATOM     15  C   UNL     1      46.754   5.254  13.819  0.00  0.00    +0.000 A 
ATOM     16  C   UNL     1      47.671   6.001  13.067  0.00  0.00    +0.000 A 
ATOM     17  C   UNL     1      47.255   6.704  11.937  0.00  0.00    +0.000 A 
ATOM     18  C   UNL     1      45.919   6.661  11.534  0.00  0.00    +0.000 A 
ATOM     19  C   UNL     1      44.981   5.923  12.268  0.00  0.00    +0.000 A 
ATOM     20  C   UNL     1      45.408   5.233  13.414  0.00  0.00    +0.000 A 
BRANCH  15  21
ATOM     21  C   UNL     1      47.207   4.502  15.045  0.00  0.00    +0.000 C 
BRANCH  21  22
ATOM     22  N   UNL     1      47.484   3.099  14.749  0.00  0.00    +0.000 NA
ATOM     23  H   UNL     1      48.351   2.830  15.210  0.00  0.00    +0.000 HD
ATOM     24  H   UNL     1      47.651   3.004  13.749  0.00  0.00    +0.000 HD
ENDBRANCH  21  22
ENDBRANCH  15  21
ENDBRANCH  14  19
ENDBRANCH   1  14
TORSDOF 8
ENDMDL
MODEL 2
REMARK VINA RESULT:    -7.082      3.481      6.547
REMARK INTER + INTRA:         -10.613
REMARK INTER:                  -9.901
REMARK INTRA:                  -0.712
REMARK UNBOUND:                -0.633
REMARK  Name = 
REMARK  8 active torsions:
REMARK  status: ('A' for Active; 'I' for Inactive)
REMARK    1  A    between atoms: N_1  and  C_2
REMARK    2  A    between atoms: C_2  and  C_3
REMARK    3  A    between atoms: C_7  and  C_8
REMARK    4  A    between atoms: C_8  and  C_9
REMARK    5  A    between atoms: C_9  and  N_10
REMARK    6  A    between atoms: N_10  and  C_11
REMARK    7  A    between atoms: CA_14  and  C_15
REMARK    8  A    between atoms: C_15  and  OXT_17
REMARK                            x       y       z     vdW  Elec       q    Type
REMARK                         _______ _______ _______ _____ _____    ______ ____
ROOT
ATOM      1  C   UNL     1      43.970   3.413  11.282  0.00  0.00    +0.000 C 
ENDROOT
BRANCH   1   2
ATOM      2  N   UNL     1      44.871   3.111  12.407  0.00  0.00    +0.000 N 
ATOM      3  H   UNL     1      45.287   2.185  12.333  0.00  0.00    +0.000 HD
BRANCH   2   4
ATOM      4  C   UNL     1      45.824   4.091  12.740  0.00  0.00    +0.000 A 
ATOM      5  C   UNL     1      45.851   5.359  12.149  0.00  0.00    +0.000 A 
ATOM      6  C   UNL     1      46.778   6.320  12.551  0.00  0.00    +0.000 A 
ATOM      7  CA  UNL     1      47.650   5.997  13.574  0.00  0.00    +0.000 A 
ATOM      8  N   UNL     1      47.650   4.802  14.230  0.00  0.00    +0.000 NA
ATOM      9  C   UNL     1      46.721   3.901  13.802  0.00  0.00    +0.000 A 
BRANCH   7  10
ATOM     10  C   UNL     1      48.665   6.998  14.022  0.00  0.00    +0.000 C 
ATOM     11  O   UNL     1      48.494   7.813  14.909  0.00  0.00    +0.000 OA
BRANCH  10  12
ATOM     12  OXT UNL     1      49.805   6.882  13.297  0.00  0.00    +0.000 OA
ATOM     13  HXT UNL     1      50.009   5.926  13.181  0.00  0.00    +0.000 HD
ENDBRANCH  10  12
ENDBRANCH   7  10
ENDBRANCH   2   4
ENDBRANCH   1   2
BRANCH   1  14
ATOM     14  C   UNL     1      44.066   2.357  10.173  0.00  0.00    +0.000 C 
BRANCH  14  19
ATOM     15  C   UNL     1      46.702   2.140   7.400  0.00  0.00    +0.000 A 
ATOM     16  C   UNL     1      46.886   3.498   7.106  0.00  0.00    +0.000 A 
ATOM     17  C   UNL     1      46.194   4.476   7.818  0.00  0.00    +0.000 A 
ATOM     18  C   UNL     1      45.299   4.114   8.826  0.00  0.00    +0.000 A 
ATOM     19  C   UNL     1      45.097   2.763   9.141  0.00  0.00    +0.000 A 
ATOM     20  C   UNL     1      45.812   1.787   8.429  0.00  0.00    +0.000 A 
BRANCH  15  21
ATOM     21  C   UNL     1      47.458   1.084   6.634  0.00  0.00    +0.000 C 
BRANCH  21  22
ATOM     22  N   UNL     1      48.485   1.668   5.776  0.00  0.00    +0.000 NA
ATOM     23  H   UNL     1      48.129   1.719   4.823  0.00  0.00    +0.000 HD
ATOM     24  H   UNL     1      49.284   1.036   5.748  0.00  0.00    +0.000 HD
ENDBRANCH  21  22
ENDBRANCH  15  21
ENDBRANCH  14  19
ENDBRANCH   1  14
TORSDOF 8
ENDMDL
MODEL 3
REMARK VINA RESULT:    -6.945      1.701      2.562
REMARK INTER + INTRA:         -10.420
REMARK INTER:                  -9.885
REMARK INTRA:                  -0.535
REMARK UNBOUND:                -0.633
REMARK  Name = 
REMARK  8 active torsions:
REMARK  status: ('A' for Active; 'I' for Inactive)
REMARK    1  A    between atoms: N_1  and  C_2
REMARK    2  A    between atoms: C_2  and  C_3
REMARK    3  A    between atoms: C_7  and  C_8
REMARK    4  A    between atoms: C_8  and  C_9
REMARK    5  A    between atoms: C_9  and  N_10
REMARK    6  A    between atoms: N_10  and  C_11
REMARK    7  A    between atoms: CA_14  and  C_15
REMARK    8  A    between atoms: C_15  and  OXT_17
REMARK                            x       y       z     vdW  Elec       q    Type
REMARK                         _______ _______ _______ _____ _____    ______ ____
ROOT
ATOM      1  C   UNL     1      43.680   3.147  11.439  0.00  0.00    +0.000 C 
ENDROOT
BRANCH   1   2
ATOM      2  N   UNL     1      43.729   3.832  10.136  0.00  0.00    +0.000 N 
ATOM      3  H   UNL     1      43.737   4.846  10.231  0.00  0.00    +0.000 HD
BRANCH   2   4
ATOM      4  C   UNL     1      44.695   3.382   9.217  0.00  0.00    +0.000 A 
ATOM      5  C   UNL     1      45.414   4.246   8.384  0.00  0.00    +0.000 A 
ATOM      6  C   UNL     1      46.403   3.762   7.529  0.00  0.00    +0.000 A 
ATOM      7  CA  UNL     1      46.677   2.407   7.550  0.00  0.00    +0.000 A 
ATOM      8  N   UNL     1      46.053   1.513   8.368  0.00  0.00    +0.000 NA
ATOM      9  C   UNL     1      45.099   2.039   9.187  0.00  0.00    +0.000 A 
BRANCH   7  10
ATOM     10  C   UNL     1      47.722   1.851   6.637  0.00  0.00    +0.000 C 
ATOM     11  O   UNL     1      47.678   0.753   6.116  0.00  0.00    +0.000 OA
BRANCH  10  12
ATOM     12  OXT UNL     1      48.735   2.737   6.474  0.00  0.00    +0.000 OA
ATOM     13  HXT UNL     1      48.391   3.645   6.637  0.00  0.00    +0.000 HD
ENDBRANCH  10  12
ENDBRANCH   7  10
ENDBRANCH   2   4
ENDBRANCH   1   2
BRANCH   1  14
ATOM     14  C   UNL     1      43.507   4.137  12.599  0.00  0.00    +0.000 C 
BRANCH  14  19
ATOM     15  C   UNL     1      45.662   7.300  12.416  0.00  0.00    +0.000 A 
ATOM     16  C   UNL     1      46.849   6.843  13.005  0.00  0.00    +0.000 A 
ATOM     17  C   UNL     1      46.967   5.519  13.425  0.00  0.00    +0.000 A 
ATOM     18  C   UNL     1      45.897   4.634  13.275  0.00  0.00    +0.000 A 
ATOM     19  C   UNL     1      44.699   5.065  12.689  0.00  0.00    +0.000 A 
ATOM     20  C   UNL     1      44.598   6.396  12.253  0.00  0.00    +0.000 A 
BRANCH  15  21
ATOM     21  C   UNL     1      45.541   8.731  11.956  0.00  0.00    +0.000 C 
BRANCH  21  22
ATOM     22  N   UNL     1      44.729   9.528  12.871  0.00  0.00    +0.000 NA
ATOM     23  H   UNL     1      44.991  10.508  12.775  0.00  0.00    +0.000 HD
ATOM     24  H   UNL     1      44.961   9.263  13.827  0.00  0.00    +0.000 HD
ENDBRANCH  21  22
ENDBRANCH  15  21
ENDBRANCH  14  19
ENDBRANCH   1  14
TORSDOF 8
ENDMDL
MODEL 4
REMARK VINA RESULT:    -6.894      3.445      6.960
REMARK INTER + INTRA:         -10.348
REMARK INTER:                  -9.954
REMARK INTRA:                  -0.394
REMARK UNBOUND:                -0.633
REMARK  Name = 
REMARK  8 active torsions:
REMARK  status: ('A' for Active; 'I' for Inactive)
REMARK    1  A    between atoms: N_1  and  C_2
REMARK    2  A    between atoms: C_2  and  C_3
REMARK    3  A    between atoms: C_7  and  C_8
REMARK    4  A    between atoms: C_8  and  C_9
REMARK    5  A    between atoms: C_9  and  N_10
REMARK    6  A    between atoms: N_10  and  C_11
REMARK    7  A    between atoms: CA_14  and  C_15
REMARK    8  A    between atoms: C_15  and  OXT_17
REMARK                            x       y       z     vdW  Elec       q    Type
REMARK                         _______ _______ _______ _____ _____    ______ ____
ROOT
ATOM      1  C   UNL     1      45.724   5.275   9.317  0.00  0.00    +0.000 C 
ENDROOT
BRANCH   1   2
ATOM      2  N   UNL     1      45.199   5.890  10.548  0.00  0.00    +0.000 N 
ATOM      3  H   UNL     1      44.182   5.857  10.594  0.00  0.00    +0.000 HD
BRANCH   2   4
ATOM      4  C   UNL     1      45.794   5.496  11.760  0.00  0.00    +0.000 A 
ATOM      5  C   UNL     1      46.691   6.304  12.466  0.00  0.00    +0.000 A 
ATOM      6  C   UNL     1      47.213   5.897  13.694  0.00  0.00    +0.000 A 
ATOM      7  CA  UNL     1      46.795   4.685  14.210  0.00  0.00    +0.000 A 
ATOM      8  N   UNL     1      45.888   3.867  13.604  0.00  0.00    +0.000 NA
ATOM      9  C   UNL     1      45.405   4.315  12.411  0.00  0.00    +0.000 A 
BRANCH   7  10
ATOM     10  C   UNL     1      47.343   4.212  15.518  0.00  0.00    +0.000 C 
ATOM     11  O   UNL     1      47.734   3.081  15.739  0.00  0.00    +0.000 OA
BRANCH  10  12
ATOM     12  OXT UNL     1      47.338   5.214  16.430  0.00  0.00    +0.000 OA
ATOM     13  HXT UNL     1      47.814   5.988  16.051  0.00  0.00    +0.000 HD
ENDBRANCH  10  12
ENDBRANCH   7  10
ENDBRANCH   2   4
ENDBRANCH   1   2
BRANCH   1  14
ATOM     14  C   UNL     1      44.736   4.267   8.714  0.00  0.00    +0.000 C 
BRANCH  14  19
ATOM     15  C   UNL     1      46.955   2.243   6.335  0.00  0.00    +0.000 A 
ATOM     16  C   UNL     1      46.994   1.009   6.998  0.00  0.00    +0.000 A 
ATOM     17  C   UNL     1      46.284   0.820   8.183  0.00  0.00    +0.000 A 
ATOM     18  C   UNL     1      45.533   1.863   8.729  0.00  0.00    +0.000 A 
ATOM     19  C   UNL     1      45.477   3.106   8.085  0.00  0.00    +0.000 A 
ATOM     20  C   UNL     1      46.182   3.281   6.884  0.00  0.00    +0.000 A 
BRANCH  15  21
ATOM     21  C   UNL     1      47.718   2.442   5.050  0.00  0.00    +0.000 C 
BRANCH  21  22
ATOM     22  N   UNL     1      47.724   1.235   4.229  0.00  0.00    +0.000 NA
ATOM     23  H   UNL     1      48.677   0.878   4.174  0.00  0.00    +0.000 HD
ATOM     24  H   UNL     1      47.458   1.487   3.279  0.00  0.00    +0.000 HD
ENDBRANCH  21  22
ENDBRANCH  15  21
ENDBRANCH  14  19
ENDBRANCH   1  14
TORSDOF 8
ENDMDL
MODEL 5
REMARK VINA RESULT:    -6.212      1.587      2.211
REMARK INTER + INTRA:          -9.387
REMARK INTER:                  -8.924
REMARK INTRA:                  -0.464
REMARK UNBOUND:                -0.633
REMARK  Name = 
REMARK  8 active torsions:
REMARK  status: ('A' for Active; 'I' for Inactive)
REMARK    1  A    between atoms: N_1  and  C_2
REMARK    2  A    between atoms: C_2  and  C_3
REMARK    3  A    between atoms: C_7  and  C_8
REMARK    4  A    between atoms: C_8  and  C_9
REMARK    5  A    between atoms: C_9  and  N_10
REMARK    6  A    between atoms: N_10  and  C_11
REMARK    7  A    between atoms: CA_14  and  C_15
REMARK    8  A    between atoms: C_15  and  OXT_17
REMARK                            x       y       z     vdW  Elec       q    Type
REMARK                         _______ _______ _______ _____ _____    ______ ____
ROOT
ATOM      1  C   UNL     1      44.221   5.240  11.160  0.00  0.00    +0.000 C 
ENDROOT
BRANCH   1   2
ATOM      2  N   UNL     1      43.765   4.803   9.830  0.00  0.00    +0.000 N 
ATOM      3  H   UNL     1      43.456   5.581   9.251  0.00  0.00    +0.000 HD
BRANCH   2   4
ATOM      4  C   UNL     1      44.609   3.924   9.125  0.00  0.00    +0.000 A 
ATOM      5  C   UNL     1      45.454   4.344   8.092  0.00  0.00    +0.000 A 
ATOM      6  C   UNL     1      46.316   3.450   7.460  0.00  0.00    +0.000 A 
ATOM      7  CA  UNL     1      46.337   2.140   7.903  0.00  0.00    +0.000 A 
ATOM      8  N   UNL     1      45.579   1.670   8.935  0.00  0.00    +0.000 NA
ATOM      9  C   UNL     1      44.759   2.587   9.521  0.00  0.00    +0.000 A 
BRANCH   7  10
ATOM     10  C   UNL     1      47.240   1.151   7.240  0.00  0.00    +0.000 C 
ATOM     11  O   UNL     1      46.989  -0.031   7.095  0.00  0.00    +0.000 OA
BRANCH  10  12
ATOM     12  OXT UNL     1      48.384   1.749   6.828  0.00  0.00    +0.000 OA
ATOM     13  HXT UNL     1      49.148   1.298   7.254  0.00  0.00    +0.000 HD
ENDBRANCH  10  12
ENDBRANCH   7  10
ENDBRANCH   2   4
ENDBRANCH   1   2
BRANCH   1  14
ATOM     14  C   UNL     1      45.563   5.982  11.090  0.00  0.00    +0.000 C 
BRANCH  14  19
ATOM     15  C   UNL     1      48.119   6.469  13.903  0.00  0.00    +0.000 A 
ATOM     16  C   UNL     1      47.751   5.435  14.774  0.00  0.00    +0.000 A 
ATOM     17  C   UNL     1      46.711   4.566  14.442  0.00  0.00    +0.000 A 
ATOM     18  C   UNL     1      46.017   4.725  13.242  0.00  0.00    +0.000 A 
ATOM     19  C   UNL     1      46.365   5.750  12.353  0.00  0.00    +0.000 A 
ATOM     20  C   UNL     1      47.424   6.609  12.689  0.00  0.00    +0.000 A 
BRANCH  15  21
ATOM     21  C   UNL     1      49.247   7.402  14.262  0.00  0.00    +0.000 C 
BRANCH  21  22
ATOM     22  N   UNL     1      49.152   8.670  13.545  0.00  0.00    +0.000 NA
ATOM     23  H   UNL     1      50.020   8.828  13.036  0.00  0.00    +0.000 HD
ATOM     24  H   UNL     1      49.079   9.425  14.226  0.00  0.00    +0.000 HD
ENDBRANCH  21  22
ENDBRANCH  15  21
ENDBRANCH  14  19
ENDBRANCH   1  14
TORSDOF 8
ENDMDL
MODEL 6
REMARK VINA RESULT:    -6.200      3.864      6.748
REMARK INTER + INTRA:          -9.370
REMARK INTER:                  -8.732
REMARK INTRA:                  -0.638
REMARK UNBOUND:                -0.633
REMARK  Name = 
REMARK  8 active torsions:
REMARK  status: ('A' for Active; 'I' for Inactive)
REMARK    1  A    between atoms: N_1  and  C_2
REMARK    2  A    between atoms: C_2  and  C_3
REMARK    3  A    between atoms: C_7  and  C_8
REMARK    4  A    between atoms: C_8  and  C_9
REMARK    5  A    between atoms: C_9  and  N_10
REMARK    6  A    between atoms: N_10  and  C_11
REMARK    7  A    between atoms: CA_14  and  C_15
REMARK    8  A    between atoms: C_15  and  OXT_17
REMARK                            x       y       z     vdW  Elec       q    Type
REMARK                         _______ _______ _______ _____ _____    ______ ____
ROOT
ATOM      1  C   UNL     1      46.381   7.428  12.604  0.00  0.00    +0.000 C 
ENDROOT
BRANCH   1   2
ATOM      2  N   UNL     1      47.334   6.305  12.612  0.00  0.00    +0.000 N 
ATOM      3  H   UNL     1      48.233   6.557  12.205  0.00  0.00    +0.000 HD
BRANCH   2   4
ATOM      4  C   UNL     1      47.482   5.604  13.823  0.00  0.00    +0.000 A 
ATOM      5  C   UNL     1      48.132   6.141  14.939  0.00  0.00    +0.000 A 
ATOM      6  C   UNL     1      48.205   5.433  16.138  0.00  0.00    +0.000 A 
ATOM      7  CA  UNL     1      47.588   4.197  16.204  0.00  0.00    +0.000 A 
ATOM      8  N   UNL     1      46.896   3.632  15.175  0.00  0.00    +0.000 NA
ATOM      9  C   UNL     1      46.851   4.368  14.029  0.00  0.00    +0.000 A 
BRANCH   7  10
ATOM     10  C   UNL     1      47.657   3.405  17.470  0.00  0.00    +0.000 C 
ATOM     11  O   UNL     1      48.634   3.330  18.191  0.00  0.00    +0.000 OA
BRANCH  10  12
ATOM     12  OXT UNL     1      46.482   2.772  17.702  0.00  0.00    +0.000 OA
ATOM     13  HXT UNL     1      45.871   2.954  16.953  0.00  0.00    +0.000 HD
ENDBRANCH  10  12
ENDBRANCH   7  10
ENDBRANCH   2   4
ENDBRANCH   1   2
BRANCH   1  14
ATOM     14  C   UNL     1      45.346   7.292  11.479  0.00  0.00    +0.000 C 
BRANCH  14  19
ATOM     15  C   UNL     1      44.190   3.715  10.734  0.00  0.00    +0.000 A 
ATOM     16  C   UNL     1      43.397   3.456  11.860  0.00  0.00    +0.000 A 
ATOM     17  C   UNL     1      43.208   4.436  12.834  0.00  0.00    +0.000 A 
ATOM     18  C   UNL     1      43.817   5.686  12.703  0.00  0.00    +0.000 A 
ATOM     19  C   UNL     1      44.614   5.971  11.587  0.00  0.00    +0.000 A 
ATOM     20  C   UNL     1      44.784   4.983  10.604  0.00  0.00    +0.000 A 
BRANCH  15  21
ATOM     21  C   UNL     1      44.386   2.656   9.680  0.00  0.00    +0.000 C 
BRANCH  21  22
ATOM     22  N   UNL     1      44.350   3.217   8.333  0.00  0.00    +0.000 NA
ATOM     23  H   UNL     1      44.775   2.554   7.687  0.00  0.00    +0.000 HD
ATOM     24  H   UNL     1      44.935   4.051   8.312  0.00  0.00    +0.000 HD
ENDBRANCH  21  22
ENDBRANCH  15  21
ENDBRANCH  14  19
ENDBRANCH   1  14
TORSDOF 8
ENDMDL
MODEL 7
REMARK VINA RESULT:    -6.157      3.666      6.822
REMARK INTER + INTRA:          -9.309
REMARK INTER:                  -8.982
REMARK INTRA:                  -0.327
REMARK UNBOUND:                -0.633
REMARK  Name = 
REMARK  8 active torsions:
REMARK  status: ('A' for Active; 'I' for Inactive)
REMARK    1  A    between atoms: N_1  and  C_2
REMARK    2  A    between atoms: C_2  and  C_3
REMARK    3  A    between atoms: C_7  and  C_8
REMARK    4  A    between atoms: C_8  and  C_9
REMARK    5  A    between atoms: C_9  and  N_10
REMARK    6  A    between atoms: N_10  and  C_11
REMARK    7  A    between atoms: CA_14  and  C_15
REMARK    8  A    between atoms: C_15  and  OXT_17
REMARK                            x       y       z     vdW  Elec       q    Type
REMARK                         _______ _______ _______ _____ _____    ______ ____
ROOT
ATOM      1  C   UNL     1      46.621   6.519  11.226  0.00  0.00    +0.000 C 
ENDROOT
BRANCH   1   2
ATOM      2  N   UNL     1      46.910   7.054  12.567  0.00  0.00    +0.000 N 
ATOM      3  H   UNL     1      46.290   7.820  12.820  0.00  0.00    +0.000 HD
BRANCH   2   4
ATOM      4  C   UNL     1      47.044   6.119  13.610  0.00  0.00    +0.000 A 
ATOM      5  C   UNL     1      46.338   4.912  13.646  0.00  0.00    +0.000 A 
ATOM      6  C   UNL     1      46.545   3.988  14.670  0.00  0.00    +0.000 A 
ATOM      7  CA  UNL     1      47.493   4.283  15.633  0.00  0.00    +0.000 A 
ATOM      8  N   UNL     1      48.253   5.415  15.636  0.00  0.00    +0.000 NA
ATOM      9  C   UNL     1      48.015   6.281  14.610  0.00  0.00    +0.000 A 
BRANCH   7  10
ATOM     10  C   UNL     1      47.732   3.322  16.752  0.00  0.00    +0.000 C 
ATOM     11  O   UNL     1      48.789   2.760  16.972  0.00  0.00    +0.000 OA
BRANCH  10  12
ATOM     12  OXT UNL     1      46.605   3.152  17.486  0.00  0.00    +0.000 OA
ATOM     13  HXT UNL     1      46.405   3.992  17.957  0.00  0.00    +0.000 HD
ENDBRANCH  10  12
ENDBRANCH   7  10
ENDBRANCH   2   4
ENDBRANCH   1   2
BRANCH   1  14
ATOM     14  C   UNL     1      45.124   6.243  11.030  0.00  0.00    +0.000 C 
BRANCH  14  19
ATOM     15  C   UNL     1      45.401   3.441   8.431  0.00  0.00    +0.000 A 
ATOM     16  C   UNL     1      44.675   2.423   9.064  0.00  0.00    +0.000 A 
ATOM     17  C   UNL     1      44.073   2.648  10.302  0.00  0.00    +0.000 A 
ATOM     18  C   UNL     1      44.196   3.888  10.930  0.00  0.00    +0.000 A 
ATOM     19  C   UNL     1      44.914   4.924  10.318  0.00  0.00    +0.000 A 
ATOM     20  C   UNL     1      45.502   4.692   9.064  0.00  0.00    +0.000 A 
BRANCH  15  21
ATOM     21  C   UNL     1      46.044   3.198   7.089  0.00  0.00    +0.000 C 
BRANCH  21  22
ATOM     22  N   UNL     1      46.953   4.278   6.719  0.00  0.00    +0.000 NA
ATOM     23  H   UNL     1      47.876   3.886   6.540  0.00  0.00    +0.000 HD
ATOM     24  H   UNL     1      47.059   4.903   7.517  0.00  0.00    +0.000 HD
ENDBRANCH  21  22
ENDBRANCH  15  21
ENDBRANCH  14  19
ENDBRANCH   1  14
TORSDOF 8
ENDMDL
MODEL 8
REMARK VINA RESULT:    -6.156      1.756      2.348
REMARK INTER + INTRA:          -9.307
REMARK INTER:                  -8.839
REMARK INTRA:                  -0.469
REMARK UNBOUND:                -0.633
REMARK  Name = 
REMARK  8 active torsions:
REMARK  status: ('A' for Active; 'I' for Inactive)
REMARK    1  A    between atoms: N_1  and  C_2
REMARK    2  A    between atoms: C_2  and  C_3
REMARK    3  A    between atoms: C_7  and  C_8
REMARK    4  A    between atoms: C_8  and  C_9
REMARK    5  A    between atoms: C_9  and  N_10
REMARK    6  A    between atoms: N_10  and  C_11
REMARK    7  A    between atoms: CA_14  and  C_15
REMARK    8  A    between atoms: C_15  and  OXT_17
REMARK                            x       y       z     vdW  Elec       q    Type
REMARK                         _______ _______ _______ _____ _____    ______ ____
ROOT
ATOM      1  C   UNL     1      43.845   5.156  11.216  0.00  0.00    +0.000 C 
ENDROOT
BRANCH   1   2
ATOM      2  N   UNL     1      43.647   3.886  10.497  0.00  0.00    +0.000 N 
ATOM      3  H   UNL     1      42.708   3.802  10.112  0.00  0.00    +0.000 HD
BRANCH   2   4
ATOM      4  C   UNL     1      44.634   3.523   9.562  0.00  0.00    +0.000 A 
ATOM      5  C   UNL     1      44.970   2.193   9.287  0.00  0.00    +0.000 A 
ATOM      6  C   UNL     1      45.914   1.877   8.311  0.00  0.00    +0.000 A 
ATOM      7  CA  UNL     1      46.486   2.915   7.598  0.00  0.00    +0.000 A 
ATOM      8  N   UNL     1      46.174   4.229   7.776  0.00  0.00    +0.000 NA
ATOM      9  C   UNL     1      45.241   4.482   8.738  0.00  0.00    +0.000 A 
BRANCH   7  10
ATOM     10  C   UNL     1      47.511   2.613   6.552  0.00  0.00    +0.000 C 
ATOM     11  O   UNL     1      48.498   1.922   6.724  0.00  0.00    +0.000 OA
BRANCH  10  12
ATOM     12  OXT UNL     1      47.197   3.225   5.384  0.00  0.00    +0.000 OA
ATOM     13  HXT UNL     1      47.844   3.948   5.222  0.00  0.00    +0.000 HD
ENDBRANCH  10  12
ENDBRANCH   7  10
ENDBRANCH   2   4
ENDBRANCH   1   2
BRANCH   1  14
ATOM     14  C   UNL     1      44.966   5.053  12.260  0.00  0.00    +0.000 C 
BRANCH  14  19
ATOM     15  C   UNL     1      47.440   7.761  13.368  0.00  0.00    +0.000 A 
ATOM     16  C   UNL     1      46.833   8.905  12.833  0.00  0.00    +0.000 A 
ATOM     17  C   UNL     1      45.620   8.811  12.152  0.00  0.00    +0.000 A 
ATOM     18  C   UNL     1      45.001   7.571  11.985  0.00  0.00    +0.000 A 
ATOM     19  C   UNL     1      45.586   6.411  12.510  0.00  0.00    +0.000 A 
ATOM     20  C   UNL     1      46.799   6.520  13.209  0.00  0.00    +0.000 A 
BRANCH  15  21
ATOM     21  C   UNL     1      48.749   7.867  14.109  0.00  0.00    +0.000 C 
BRANCH  21  22
ATOM     22  N   UNL     1      49.159   6.585  14.673  0.00  0.00    +0.000 NA
ATOM     23  H   UNL     1      49.012   6.605  15.681  0.00  0.00    +0.000 HD
ATOM     24  H   UNL     1      50.162   6.474  14.533  0.00  0.00    +0.000 HD
ENDBRANCH  21  22
ENDBRANCH  15  21
ENDBRANCH  14  19
ENDBRANCH   1  14
TORSDOF 8
ENDMDL
MODEL 9
REMARK VINA RESULT:    -6.047      3.370      5.441
REMARK INTER + INTRA:          -9.154
REMARK INTER:                  -8.605
REMARK INTRA:                  -0.549
REMARK UNBOUND:                -0.633
REMARK  Name = 
REMARK  8 active torsions:
REMARK  status: ('A' for Active; 'I' for Inactive)
REMARK    1  A    between atoms: N_1  and  C_2
REMARK    2  A    between atoms: C_2  and  C_3
REMARK    3  A    between atoms: C_7  and  C_8
REMARK    4  A    between atoms: C_8  and  C_9
REMARK    5  A    between atoms: C_9  and  N_10
REMARK    6  A    between atoms: N_10  and  C_11
REMARK    7  A    between atoms: CA_14  and  C_15
REMARK    8  A    between atoms: C_15  and  OXT_17
REMARK                            x       y       z     vdW  Elec       q    Type
REMARK                         _______ _______ _______ _____ _____    ______ ____
ROOT
ATOM      1  C   UNL     1      48.376   6.807  14.036  0.00  0.00    +0.000 C 
ENDROOT
BRANCH   1   2
ATOM      2  N   UNL     1      46.978   7.162  13.736  0.00  0.00    +0.000 N 
ATOM      3  H   UNL     1      46.902   8.044  13.234  0.00  0.00    +0.000 HD
BRANCH   2   4
ATOM      4  C   UNL     1      46.176   6.158  13.163  0.00  0.00    +0.000 A 
ATOM      5  C   UNL     1      45.628   6.261  11.880  0.00  0.00    +0.000 A 
ATOM      6  C   UNL     1      44.886   5.217  11.329  0.00  0.00    +0.000 A 
ATOM      7  CA  UNL     1      44.733   4.062  12.073  0.00  0.00    +0.000 A 
ATOM      8  N   UNL     1      45.279   3.870  13.308  0.00  0.00    +0.000 NA
ATOM      9  C   UNL     1      45.999   4.919  13.797  0.00  0.00    +0.000 A 
BRANCH   7  10
ATOM     10  C   UNL     1      43.934   2.927  11.519  0.00  0.00    +0.000 C 
ATOM     11  O   UNL     1      43.703   2.751  10.337  0.00  0.00    +0.000 OA
BRANCH  10  12
ATOM     12  OXT UNL     1      43.491   2.122  12.515  0.00  0.00    +0.000 OA
ATOM     13  HXT UNL     1      42.696   2.534  12.924  0.00  0.00    +0.000 HD
ENDBRANCH  10  12
ENDBRANCH   7  10
ENDBRANCH   2   4
ENDBRANCH   1   2
BRANCH   1  14
ATOM     14  C   UNL     1      48.822   7.343  15.403  0.00  0.00    +0.000 C 
BRANCH  14  19
ATOM     15  C   UNL     1      48.930   4.070  17.394  0.00  0.00    +0.000 A 
ATOM     16  C   UNL     1      50.283   4.031  17.760  0.00  0.00    +0.000 A 
ATOM     17  C   UNL     1      51.145   5.065  17.398  0.00  0.00    +0.000 A 
ATOM     18  C   UNL     1      50.671   6.150  16.656  0.00  0.00    +0.000 A 
ATOM     19  C   UNL     1      49.324   6.215  16.279  0.00  0.00    +0.000 A 
ATOM     20  C   UNL     1      48.461   5.176  16.663  0.00  0.00    +0.000 A 
BRANCH  15  21
ATOM     21  C   UNL     1      47.999   2.954  17.793  0.00  0.00    +0.000 C 
BRANCH  21  22
ATOM     22  N   UNL     1      46.611   3.261  17.464  0.00  0.00    +0.000 NA
ATOM     23  H   UNL     1      46.300   4.041  18.040  0.00  0.00    +0.000 HD
ATOM     24  H   UNL     1      46.031   2.465  17.724  0.00  0.00    +0.000 HD
ENDBRANCH  21  22
ENDBRANCH  15  21
ENDBRANCH  14  19
ENDBRANCH   1  14
TORSDOF 8
ENDMDL
