MODEL 1
REMARK VINA RESULT:    -8.146      0.000      0.000
REMARK INTER + INTRA:         -12.219
REMARK INTER:                 -11.480
REMARK INTRA:                  -0.739
REMARK UNBOUND:                -0.739
REMARK  Name = 
REMARK  7 active torsions:
REMARK  status: ('A' for Active; 'I' for Inactive)
REMARK    1  A    between atoms: C_2  and  C_4
REMARK    2  A    between atoms: C_7  and  O_8
REMARK    3  A    between atoms: O_8  and  C_9
REMARK    4  A    between atoms: C_9  and  C_10
REMARK    5  A    between atoms: C_11  and  C_12
REMARK    6  A    between atoms: C_16  and  O_17
REMARK    7  A    between atoms: O_17  and  C_18
REMARK                            x       y       z     vdW  Elec       q    Type
REMARK                         _______ _______ _______ _____ _____    ______ ____
ROOT
ATOM      1  C   UNL     1      44.773   3.723  12.141  0.00  0.00    +0.000 C 
ATOM      2  C   UNL     1      45.066   5.030  12.035  0.00  0.00    +0.000 C 
ENDROOT
BRANCH   2   3
ATOM      3  C   UNL     1      46.228   5.663  12.673  0.00  0.00    +0.000 A 
ATOM      4  C   UNL     1      46.796   6.791  12.071  0.00  0.00    +0.000 A 
ATOM      5  C   UNL     1      47.923   7.401  12.630  0.00  0.00    +0.000 A 
ATOM      6  C   UNL     1      48.492   6.894  13.799  0.00  0.00    +0.000 A 
ATOM      7  C   UNL     1      47.922   5.783  14.415  0.00  0.00    +0.000 A 
ATOM      8  C   UNL     1      46.786   5.186  13.865  0.00  0.00    +0.000 A 
BRANCH   7   9
ATOM      9  O   UNL     1      48.371   5.212  15.579  0.00  0.00    +0.000 OA
BRANCH   9  10
ATOM     10  C   UNL     1      47.461   4.405  16.359  0.00  0.00    +0.000 C 
ATOM     11  C   UNL     1      47.321   4.716  17.862  0.00  0.00    +0.000 C 
ATOM     12  N   UNL     1      47.592   3.308  18.194  0.00  0.00    +0.000 NA
ATOM     13  C   UNL     1      48.036   3.049  16.817  0.00  0.00    +0.000 C 
ATOM     14  H   UNL     1      46.766   2.777  18.470  0.00  0.00    +0.000 HD
ENDBRANCH   9  10
ENDBRANCH   7   9
ENDBRANCH   2   3
BRANCH   1  15
ATOM     15  C   UNL     1      43.675   3.056  11.380  0.00  0.00    +0.000 C 
BRANCH  15  16
ATOM     16  O   UNL     1      43.571   3.655  10.092  0.00  0.00    +0.000 OA
BRANCH  16  20
ATOM     17  C   UNL     1      46.539   2.360   7.464  0.00  0.00    +0.000 A 
ATOM     18  C   UNL     1      46.215   3.720   7.489  0.00  0.00    +0.000 A 
ATOM     19  C   UNL     1      45.224   4.188   8.353  0.00  0.00    +0.000 A 
ATOM     20  C   UNL     1      44.545   3.305   9.196  0.00  0.00    +0.000 A 
ATOM     21  C   UNL     1      44.856   1.942   9.155  0.00  0.00    +0.000 A 
ATOM     22  C   UNL     1      45.844   1.467   8.287  0.00  0.00    +0.000 A 
BRANCH  17  24
ATOM     23  N   UNL     1      48.699   2.630   6.382  0.00  0.00    +0.000 N 
ATOM     24  C   UNL     1      47.598   1.840   6.565  0.00  0.00    +0.000 C 
ATOM     25  O   UNL     1      47.514   0.737   6.038  0.00  0.00    +0.000 OA
ATOM     26  H   UNL     1      49.458   2.222   5.851  0.00  0.00    +0.000 HD
ATOM     27  H   UNL     1      48.918   3.399   6.999  0.00  0.00    +0.000 HD
ENDBRANCH  17  24
ENDBRANCH  16  20
ENDBRANCH  15  16
ENDBRANCH   1  15
TORSDOF 7
ENDMDL
MODEL 2
REMARK VINA RESULT:    -7.487      1.482      1.757
REMARK INTER + INTRA:         -11.290
REMARK INTER:                 -10.507
REMARK INTRA:                  -0.783
REMARK UNBOUND:                -0.739
REMARK  Name = 
REMARK  7 active torsions:
REMARK  status: ('A' for Active; 'I' for Inactive)
REMARK    1  A    between atoms: C_2  and  C_4
REMARK    2  A    between atoms: C_7  and  O_8
REMARK    3  A    between atoms: O_8  and  C_9
REMARK    4  A    between atoms: C_9  and  C_10
REMARK    5  A    between atoms: C_11  and  C_12
REMARK    6  A    between atoms: C_16  and  O_17
REMARK    7  A    between atoms: O_17  and  C_18
REMARK                            x       y       z     vdW  Elec       q    Type
REMARK                         _______ _______ _______ _____ _____    ______ ____
ROOT
ATOM      1  C   UNL     1      44.898   3.996  12.031  0.00  0.00    +0.000 C 
ATOM      2  C   UNL     1      44.637   5.242  12.460  0.00  0.00    +0.000 C 
ENDROOT
BRANCH   2   3
ATOM      3  C   UNL     1      45.672   6.207  12.855  0.00  0.00    +0.000 A 
ATOM      4  C   UNL     1      45.471   7.563  12.579  0.00  0.00    +0.000 A 
ATOM      5  C   UNL     1      46.449   8.507  12.909  0.00  0.00    +0.000 A 
ATOM      6  C   UNL     1      47.635   8.106  13.523  0.00  0.00    +0.000 A 
ATOM      7  C   UNL     1      47.836   6.761  13.818  0.00  0.00    +0.000 A 
ATOM      8  C   UNL     1      46.851   5.822  13.504  0.00  0.00    +0.000 A 
BRANCH   7   9
ATOM      9  O   UNL     1      48.945   6.250  14.445  0.00  0.00    +0.000 OA
BRANCH   9  10
ATOM     10  C   UNL     1      49.349   6.805  15.716  0.00  0.00    +0.000 C 
ATOM     11  C   UNL     1      50.855   6.995  15.980  0.00  0.00    +0.000 C 
ATOM     12  N   UNL     1      50.744   6.250  17.244  0.00  0.00    +0.000 NA
ATOM     13  C   UNL     1      49.399   5.788  16.875  0.00  0.00    +0.000 C 
ATOM     14  H   UNL     1      50.767   6.836  18.078  0.00  0.00    +0.000 HD
ENDBRANCH   9  10
ENDBRANCH   7   9
ENDBRANCH   2   3
BRANCH   1  15
ATOM     15  C   UNL     1      43.857   3.068  11.499  0.00  0.00    +0.000 C 
BRANCH  15  16
ATOM     16  O   UNL     1      43.555   3.429  10.155  0.00  0.00    +0.000 OA
BRANCH  16  20
ATOM     17  C   UNL     1      46.532   2.340   7.445  0.00  0.00    +0.000 A 
ATOM     18  C   UNL     1      46.133   3.680   7.497  0.00  0.00    +0.000 A 
ATOM     19  C   UNL     1      45.136   4.079   8.390  0.00  0.00    +0.000 A 
ATOM     20  C   UNL     1      44.527   3.148   9.233  0.00  0.00    +0.000 A 
ATOM     21  C   UNL     1      44.912   1.805   9.164  0.00  0.00    +0.000 A 
ATOM     22  C   UNL     1      45.906   1.399   8.268  0.00  0.00    +0.000 A 
BRANCH  17  24
ATOM     23  N   UNL     1      48.686   2.712   6.381  0.00  0.00    +0.000 N 
ATOM     24  C   UNL     1      47.599   1.894   6.515  0.00  0.00    +0.000 C 
ATOM     25  O   UNL     1      47.532   0.825   5.922  0.00  0.00    +0.000 OA
ATOM     26  H   UNL     1      49.452   2.350   5.827  0.00  0.00    +0.000 HD
ATOM     27  H   UNL     1      48.893   3.445   7.045  0.00  0.00    +0.000 HD
ENDBRANCH  17  24
ENDBRANCH  16  20
ENDBRANCH  15  16
ENDBRANCH   1  15
TORSDOF 7
ENDMDL
MODEL 3
REMARK VINA RESULT:    -7.266      2.057      2.884
REMARK INTER + INTRA:         -10.979
REMARK INTER:                 -10.176
REMARK INTRA:                  -0.803
REMARK UNBOUND:                -0.739
REMARK  Name = 
REMARK  7 active torsions:
REMARK  status: ('A' for Active; 'I' for Inactive)
REMARK    1  A    between atoms: C_2  and  C_4
REMARK    2  A    between atoms: C_7  and  O_8
REMARK    3  A    between atoms: O_8  and  C_9
REMARK    4  A    between atoms: C_9  and  C_10
REMARK    5  A    between atoms: C_11  and  C_12
REMARK    6  A    between atoms: C_16  and  O_17
REMARK    7  A    between atoms: O_17  and  C_18
REMARK                            x       y       z     vdW  Elec       q    Type
REMARK                         _______ _______ _______ _____ _____    ______ ____
ROOT
ATOM      1  C   UNL     1      44.467   4.962  11.972  0.00  0.00    +0.000 C 
ATOM      2  C   UNL     1      44.350   6.122  11.305  0.00  0.00    +0.000 C 
ENDROOT
BRANCH   2   3
ATOM      3  C   UNL     1      44.930   7.392  11.763  0.00  0.00    +0.000 A 
ATOM      4  C   UNL     1      44.407   8.591  11.266  0.00  0.00    +0.000 A 
ATOM      5  C   UNL     1      44.955   9.818  11.651  0.00  0.00    +0.000 A 
ATOM      6  C   UNL     1      46.028   9.861  12.542  0.00  0.00    +0.000 A 
ATOM      7  C   UNL     1      46.543   8.675  13.056  0.00  0.00    +0.000 A 
ATOM      8  C   UNL     1      45.983   7.451  12.683  0.00  0.00    +0.000 A 
BRANCH   7   9
ATOM      9  O   UNL     1      47.573   8.590  13.958  0.00  0.00    +0.000 OA
BRANCH   9  10
ATOM     10  C   UNL     1      48.365   7.382  14.005  0.00  0.00    +0.000 C 
ATOM     11  C   UNL     1      48.777   6.837  15.386  0.00  0.00    +0.000 C 
ATOM     12  N   UNL     1      50.187   6.793  14.965  0.00  0.00    +0.000 NA
ATOM     13  C   UNL     1      49.875   7.594  13.772  0.00  0.00    +0.000 C 
ATOM     14  H   UNL     1      50.533   5.857  14.757  0.00  0.00    +0.000 HD
ENDBRANCH   9  10
ENDBRANCH   7   9
ENDBRANCH   2   3
BRANCH   1  15
ATOM     15  C   UNL     1      43.998   3.649  11.437  0.00  0.00    +0.000 C 
BRANCH  15  16
ATOM     16  O   UNL     1      43.742   3.780  10.042  0.00  0.00    +0.000 OA
BRANCH  16  20
ATOM     17  C   UNL     1      46.625   2.325   7.402  0.00  0.00    +0.000 A 
ATOM     18  C   UNL     1      45.990   1.424   8.262  0.00  0.00    +0.000 A 
ATOM     19  C   UNL     1      45.023   1.876   9.161  0.00  0.00    +0.000 A 
ATOM     20  C   UNL     1      44.684   3.230   9.214  0.00  0.00    +0.000 A 
ATOM     21  C   UNL     1      45.335   4.133   8.369  0.00  0.00    +0.000 A 
ATOM     22  C   UNL     1      46.309   3.686   7.470  0.00  0.00    +0.000 A 
BRANCH  17  24
ATOM     23  N   UNL     1      48.741   2.667   6.255  0.00  0.00    +0.000 N 
ATOM     24  C   UNL     1      47.646   1.867   6.428  0.00  0.00    +0.000 C 
ATOM     25  O   UNL     1      47.537   0.802   5.833  0.00  0.00    +0.000 OA
ATOM     26  H   UNL     1      49.478   2.295   5.668  0.00  0.00    +0.000 HD
ATOM     27  H   UNL     1      48.987   3.392   6.913  0.00  0.00    +0.000 HD
ENDBRANCH  17  24
ENDBRANCH  16  20
ENDBRANCH  15  16
ENDBRANCH   1  15
TORSDOF 7
ENDMDL
MODEL 4
REMARK VINA RESULT:    -6.933      2.861      4.044
REMARK INTER + INTRA:         -10.509
REMARK INTER:                  -9.872
REMARK INTRA:                  -0.638
REMARK UNBOUND:                -0.739
REMARK  Name = 
REMARK  7 active torsions:
REMARK  status: ('A' for Active; 'I' for Inactive)
REMARK    1  A    between atoms: C_2  and  C_4
REMARK    2  A    between atoms: C_7  and  O_8
REMARK    3  A    between atoms: O_8  and  C_9
REMARK    4  A    between atoms: C_9  and  C_10
REMARK    5  A    between atoms: C_11  and  C_12
REMARK    6  A    between atoms: C_16  and  O_17
REMARK    7  A    between atoms: O_17  and  C_18
REMARK                            x       y       z     vdW  Elec       q    Type
REMARK                         _______ _______ _______ _____ _____    ______ ____
ROOT
ATOM      1  C   UNL     1      44.815   5.028  11.402  0.00  0.00    +0.000 C 
ATOM      2  C   UNL     1      45.391   6.240  11.469  0.00  0.00    +0.000 C 
ENDROOT
BRANCH   2   3
ATOM      3  C   UNL     1      46.669   6.503  12.145  0.00  0.00    +0.000 A 
ATOM      4  C   UNL     1      46.844   6.048  13.456  0.00  0.00    +0.000 A 
ATOM      5  C   UNL     1      48.032   6.309  14.145  0.00  0.00    +0.000 A 
ATOM      6  C   UNL     1      49.060   7.024  13.529  0.00  0.00    +0.000 A 
ATOM      7  C   UNL     1      48.902   7.465  12.218  0.00  0.00    +0.000 A 
ATOM      8  C   UNL     1      47.721   7.188  11.527  0.00  0.00    +0.000 A 
BRANCH   7   9
ATOM      9  O   UNL     1      49.849   8.149  11.498  0.00  0.00    +0.000 OA
BRANCH   9  10
ATOM     10  C   UNL     1      50.437   9.339  12.069  0.00  0.00    +0.000 C 
ATOM     11  C   UNL     1      50.868  10.467  11.112  0.00  0.00    +0.000 C 
ATOM     12  N   UNL     1      52.213  10.481  11.709  0.00  0.00    +0.000 NA
ATOM     13  C   UNL     1      51.938   9.216  12.405  0.00  0.00    +0.000 C 
ATOM     14  H   UNL     1      52.386  11.269  12.333  0.00  0.00    +0.000 HD
ENDBRANCH   9  10
ENDBRANCH   7   9
ENDBRANCH   2   3
BRANCH   1  15
ATOM     15  C   UNL     1      43.591   4.737  10.599  0.00  0.00    +0.000 C 
BRANCH  15  16
ATOM     16  O   UNL     1      43.646   3.390  10.138  0.00  0.00    +0.000 OA
BRANCH  16  20
ATOM     17  C   UNL     1      46.570   2.364   7.347  0.00  0.00    +0.000 A 
ATOM     18  C   UNL     1      46.104   3.682   7.374  0.00  0.00    +0.000 A 
ATOM     19  C   UNL     1      45.123   4.060   8.293  0.00  0.00    +0.000 A 
ATOM     20  C   UNL     1      44.596   3.127   9.188  0.00  0.00    +0.000 A 
ATOM     21  C   UNL     1      45.047   1.804   9.145  0.00  0.00    +0.000 A 
ATOM     22  C   UNL     1      46.026   1.419   8.224  0.00  0.00    +0.000 A 
BRANCH  17  24
ATOM     23  N   UNL     1      48.743   2.721   6.317  0.00  0.00    +0.000 N 
ATOM     24  C   UNL     1      47.622   1.942   6.390  0.00  0.00    +0.000 C 
ATOM     25  O   UNL     1      47.514   0.921   5.721  0.00  0.00    +0.000 OA
ATOM     26  H   UNL     1      49.496   2.368   5.740  0.00  0.00    +0.000 HD
ATOM     27  H   UNL     1      48.977   3.395   7.032  0.00  0.00    +0.000 HD
ENDBRANCH  17  24
ENDBRANCH  16  20
ENDBRANCH  15  16
ENDBRANCH   1  15
TORSDOF 7
ENDMDL
MODEL 5
REMARK VINA RESULT:    -6.740      1.638      8.562
REMARK INTER + INTRA:         -10.237
REMARK INTER:                 -10.310
REMARK INTRA:                   0.073
REMARK UNBOUND:                -0.739
REMARK  Name = 
REMARK  7 active torsions:
REMARK  status: ('A' for Active; 'I' for Inactive)
REMARK    1  A    between atoms: C_2  and  C_4
REMARK    2  A    between atoms: C_7  and  O_8
REMARK    3  A    between atoms: O_8  and  C_9
REMARK    4  A    between atoms: C_9  and  C_10
REMARK    5  A    between atoms: C_11  and  C_12
REMARK    6  A    between atoms: C_16  and  O_17
REMARK    7  A    between atoms: O_17  and  C_18
REMARK                            x       y       z     vdW  Elec       q    Type
REMARK                         _______ _______ _______ _____ _____    ______ ____
ROOT
ATOM      1  C   UNL     1      46.583   6.311  12.017  0.00  0.00    +0.000 C 
ATOM      2  C   UNL     1      45.763   6.384  10.955  0.00  0.00    +0.000 C 
ENDROOT
BRANCH   2   3
ATOM      3  C   UNL     1      45.391   5.229  10.127  0.00  0.00    +0.000 A 
ATOM      4  C   UNL     1      44.478   4.299  10.637  0.00  0.00    +0.000 A 
ATOM      5  C   UNL     1      44.127   3.169   9.892  0.00  0.00    +0.000 A 
ATOM      6  C   UNL     1      44.679   2.958   8.629  0.00  0.00    +0.000 A 
ATOM      7  C   UNL     1      45.573   3.887   8.106  0.00  0.00    +0.000 A 
ATOM      8  C   UNL     1      45.910   5.024   8.843  0.00  0.00    +0.000 A 
BRANCH   7   9
ATOM      9  O   UNL     1      46.159   3.806   6.867  0.00  0.00    +0.000 OA
BRANCH   9  10
ATOM     10  C   UNL     1      46.578   2.513   6.375  0.00  0.00    +0.000 C 
ATOM     11  C   UNL     1      47.898   1.925   6.912  0.00  0.00    +0.000 C 
ATOM     12  N   UNL     1      48.382   1.716   5.538  0.00  0.00    +0.000 NA
ATOM     13  C   UNL     1      47.291   2.547   5.008  0.00  0.00    +0.000 C 
ATOM     14  H   UNL     1      48.353   0.746   5.227  0.00  0.00    +0.000 HD
ENDBRANCH   9  10
ENDBRANCH   7   9
ENDBRANCH   2   3
BRANCH   1  15
ATOM     15  C   UNL     1      46.849   7.456  12.938  0.00  0.00    +0.000 C 
BRANCH  15  16
ATOM     16  O   UNL     1      48.117   7.269  13.559  0.00  0.00    +0.000 OA
BRANCH  16  20
ATOM     17  C   UNL     1      47.972   4.547  16.716  0.00  0.00    +0.000 A 
ATOM     18  C   UNL     1      48.785   5.678  16.845  0.00  0.00    +0.000 A 
ATOM     19  C   UNL     1      48.860   6.608  15.807  0.00  0.00    +0.000 A 
ATOM     20  C   UNL     1      48.131   6.417  14.631  0.00  0.00    +0.000 A 
ATOM     21  C   UNL     1      47.336   5.274  14.495  0.00  0.00    +0.000 A 
ATOM     22  C   UNL     1      47.261   4.337  15.530  0.00  0.00    +0.000 A 
BRANCH  17  24
ATOM     23  N   UNL     1      46.839   2.652  17.732  0.00  0.00    +0.000 N 
ATOM     24  C   UNL     1      47.864   3.552  17.811  0.00  0.00    +0.000 C 
ATOM     25  O   UNL     1      48.677   3.509  18.727  0.00  0.00    +0.000 OA
ATOM     26  H   UNL     1      46.836   1.915  18.427  0.00  0.00    +0.000 HD
ATOM     27  H   UNL     1      46.330   2.489  16.875  0.00  0.00    +0.000 HD
ENDBRANCH  17  24
ENDBRANCH  16  20
ENDBRANCH  15  16
ENDBRANCH   1  15
TORSDOF 7
ENDMDL
MODEL 6
REMARK VINA RESULT:    -6.327      3.482      8.356
REMARK INTER + INTRA:          -9.656
REMARK INTER:                  -9.027
REMARK INTRA:                  -0.629
REMARK UNBOUND:                -0.739
REMARK  Name = 
REMARK  7 active torsions:
REMARK  status: ('A' for Active; 'I' for Inactive)
REMARK    1  A    between atoms: C_2  and  C_4
REMARK    2  A    between atoms: C_7  and  O_8
REMARK    3  A    between atoms: O_8  and  C_9
REMARK    4  A    between atoms: C_9  and  C_10
REMARK    5  A    between atoms: C_11  and  C_12
REMARK    6  A    between atoms: C_16  and  O_17
REMARK    7  A    between atoms: O_17  and  C_18
REMARK                            x       y       z     vdW  Elec       q    Type
REMARK                         _______ _______ _______ _____ _____    ______ ____
ROOT
ATOM      1  C   UNL     1      47.339   4.233  15.878  0.00  0.00    +0.000 C 
ATOM      2  C   UNL     1      47.836   5.312  15.250  0.00  0.00    +0.000 C 
ENDROOT
BRANCH   2   3
ATOM      3  C   UNL     1      47.413   5.748  13.912  0.00  0.00    +0.000 A 
ATOM      4  C   UNL     1      48.134   6.764  13.276  0.00  0.00    +0.000 A 
ATOM      5  C   UNL     1      47.742   7.230  12.017  0.00  0.00    +0.000 A 
ATOM      6  C   UNL     1      46.629   6.683  11.379  0.00  0.00    +0.000 A 
ATOM      7  C   UNL     1      45.916   5.660  11.997  0.00  0.00    +0.000 A 
ATOM      8  C   UNL     1      46.320   5.183  13.246  0.00  0.00    +0.000 A 
BRANCH   7   9
ATOM      9  O   UNL     1      44.825   5.024  11.459  0.00  0.00    +0.000 OA
BRANCH   9  10
ATOM     10  C   UNL     1      44.678   3.600  11.655  0.00  0.00    +0.000 C 
ATOM     11  C   UNL     1      44.014   2.778  10.533  0.00  0.00    +0.000 C 
ATOM     12  N   UNL     1      43.063   2.201  11.498  0.00  0.00    +0.000 NA
ATOM     13  C   UNL     1      43.461   3.191  12.510  0.00  0.00    +0.000 C 
ATOM     14  H   UNL     1      43.265   1.237  11.760  0.00  0.00    +0.000 HD
ENDBRANCH   9  10
ENDBRANCH   7   9
ENDBRANCH   2   3
BRANCH   1  15
ATOM     15  C   UNL     1      47.667   3.872  17.289  0.00  0.00    +0.000 C 
BRANCH  15  16
ATOM     16  O   UNL     1      48.930   4.434  17.631  0.00  0.00    +0.000 OA
BRANCH  16  20
ATOM     17  C   UNL     1      52.296   1.972  17.684  0.00  0.00    +0.000 A 
ATOM     18  C   UNL     1      51.074   1.426  17.278  0.00  0.00    +0.000 A 
ATOM     19  C   UNL     1      49.926   2.220  17.251  0.00  0.00    +0.000 A 
ATOM     20  C   UNL     1      49.986   3.562  17.633  0.00  0.00    +0.000 A 
ATOM     21  C   UNL     1      51.204   4.100  18.059  0.00  0.00    +0.000 A 
ATOM     22  C   UNL     1      52.356   3.308  18.092  0.00  0.00    +0.000 A 
BRANCH  17  24
ATOM     23  N   UNL     1      53.467  -0.085  17.126  0.00  0.00    +0.000 N 
ATOM     24  C   UNL     1      53.532   1.152  17.706  0.00  0.00    +0.000 C 
ATOM     25  O   UNL     1      54.577   1.573  18.186  0.00  0.00    +0.000 OA
ATOM     26  H   UNL     1      54.341  -0.592  17.055  0.00  0.00    +0.000 HD
ATOM     27  H   UNL     1      52.721  -0.345  16.497  0.00  0.00    +0.000 HD
ENDBRANCH  17  24
ENDBRANCH  16  20
ENDBRANCH  15  16
ENDBRANCH   1  15
TORSDOF 7
ENDMDL
MODEL 7
REMARK VINA RESULT:    -6.185      1.797      2.688
REMARK INTER + INTRA:          -9.456
REMARK INTER:                  -8.794
REMARK INTRA:                  -0.661
REMARK UNBOUND:                -0.739
REMARK  Name = 
REMARK  7 active torsions:
REMARK  status: ('A' for Active; 'I' for Inactive)
REMARK    1  A    between atoms: C_2  and  C_4
REMARK    2  A    between atoms: C_7  and  O_8
REMARK    3  A    between atoms: O_8  and  C_9
REMARK    4  A    between atoms: C_9  and  C_10
REMARK    5  A    between atoms: C_11  and  C_12
REMARK    6  A    between atoms: C_16  and  O_17
REMARK    7  A    between atoms: O_17  and  C_18
REMARK                            x       y       z     vdW  Elec       q    Type
REMARK                         _______ _______ _______ _____ _____    ______ ____
ROOT
ATOM      1  C   UNL     1      45.451   4.815  12.709  0.00  0.00    +0.000 C 
ATOM      2  C   UNL     1      46.418   5.527  13.312  0.00  0.00    +0.000 C 
ENDROOT
BRANCH   2   3
ATOM      3  C   UNL     1      47.159   5.066  14.493  0.00  0.00    +0.000 A 
ATOM      4  C   UNL     1      47.063   3.721  14.867  0.00  0.00    +0.000 A 
ATOM      5  C   UNL     1      47.726   3.252  16.005  0.00  0.00    +0.000 A 
ATOM      6  C   UNL     1      48.497   4.120  16.779  0.00  0.00    +0.000 A 
ATOM      7  C   UNL     1      48.614   5.455  16.404  0.00  0.00    +0.000 A 
ATOM      8  C   UNL     1      47.965   5.918  15.257  0.00  0.00    +0.000 A 
BRANCH   7   9
ATOM      9  O   UNL     1      49.363   6.396  17.065  0.00  0.00    +0.000 OA
BRANCH   9  10
ATOM     10  C   UNL     1      49.181   6.561  18.489  0.00  0.00    +0.000 C 
ATOM     11  C   UNL     1      47.797   7.013  18.996  0.00  0.00    +0.000 C 
ATOM     12  N   UNL     1      48.417   8.112  19.755  0.00  0.00    +0.000 NA
ATOM     13  C   UNL     1      49.690   7.905  19.050  0.00  0.00    +0.000 C 
ATOM     14  H   UNL     1      48.468   7.950  20.760  0.00  0.00    +0.000 HD
ENDBRANCH   9  10
ENDBRANCH   7   9
ENDBRANCH   2   3
BRANCH   1  15
ATOM     15  C   UNL     1      44.797   5.223  11.430  0.00  0.00    +0.000 C 
BRANCH  15  16
ATOM     16  O   UNL     1      44.336   4.059  10.751  0.00  0.00    +0.000 OA
BRANCH  16  20
ATOM     17  C   UNL     1      46.496   2.744   7.435  0.00  0.00    +0.000 A 
ATOM     18  C   UNL     1      46.317   4.119   7.614  0.00  0.00    +0.000 A 
ATOM     19  C   UNL     1      45.596   4.595   8.711  0.00  0.00    +0.000 A 
ATOM     20  C   UNL     1      45.045   3.704   9.635  0.00  0.00    +0.000 A 
ATOM     21  C   UNL     1      45.206   2.329   9.443  0.00  0.00    +0.000 A 
ATOM     22  C   UNL     1      45.923   1.847   8.343  0.00  0.00    +0.000 A 
BRANCH  17  24
ATOM     23  N   UNL     1      48.621   2.423   6.299  0.00  0.00    +0.000 N 
ATOM     24  C   UNL     1      47.270   2.215   6.285  0.00  0.00    +0.000 C 
ATOM     25  O   UNL     1      46.734   1.585   5.381  0.00  0.00    +0.000 OA
ATOM     26  H   UNL     1      49.151   1.969   5.565  0.00  0.00    +0.000 HD
ATOM     27  H   UNL     1      49.116   2.689   7.139  0.00  0.00    +0.000 HD
ENDBRANCH  17  24
ENDBRANCH  16  20
ENDBRANCH  15  16
ENDBRANCH   1  15
TORSDOF 7
ENDMDL
MODEL 8
REMARK VINA RESULT:    -5.916      3.159      8.173
REMARK INTER + INTRA:          -9.076
REMARK INTER:                  -8.250
REMARK INTRA:                  -0.826
REMARK UNBOUND:                -0.739
REMARK  Name = 
REMARK  7 active torsions:
REMARK  status: ('A' for Active; 'I' for Inactive)
REMARK    1  A    between atoms: C_2  and  C_4
REMARK    2  A    between atoms: C_7  and  O_8
REMARK    3  A    between atoms: O_8  and  C_9
REMARK    4  A    between atoms: C_9  and  C_10
REMARK    5  A    between atoms: C_11  and  C_12
REMARK    6  A    between atoms: C_16  and  O_17
REMARK    7  A    between atoms: O_17  and  C_18
REMARK                            x       y       z     vdW  Elec       q    Type
REMARK                         _______ _______ _______ _____ _____    ______ ____
ROOT
ATOM      1  C   UNL     1      48.278   8.119  15.019  0.00  0.00    +0.000 C 
ATOM      2  C   UNL     1      48.044   7.339  13.950  0.00  0.00    +0.000 C 
ENDROOT
BRANCH   2   3
ATOM      3  C   UNL     1      46.885   7.494  13.061  0.00  0.00    +0.000 A 
ATOM      4  C   UNL     1      46.251   8.739  12.990  0.00  0.00    +0.000 A 
ATOM      5  C   UNL     1      45.124   8.917  12.182  0.00  0.00    +0.000 A 
ATOM      6  C   UNL     1      44.622   7.854  11.432  0.00  0.00    +0.000 A 
ATOM      7  C   UNL     1      45.257   6.616  11.481  0.00  0.00    +0.000 A 
ATOM      8  C   UNL     1      46.392   6.446  12.276  0.00  0.00    +0.000 A 
BRANCH   7   9
ATOM      9  O   UNL     1      44.875   5.507  10.769  0.00  0.00    +0.000 OA
BRANCH   9  10
ATOM     10  C   UNL     1      44.780   4.237  11.451  0.00  0.00    +0.000 C 
ATOM     11  C   UNL     1      44.515   2.976  10.605  0.00  0.00    +0.000 C 
ATOM     12  N   UNL     1      43.375   2.619  11.465  0.00  0.00    +0.000 NA
ATOM     13  C   UNL     1      43.403   3.951  12.087  0.00  0.00    +0.000 C 
ATOM     14  H   UNL     1      43.562   1.855  12.113  0.00  0.00    +0.000 HD
ENDBRANCH   9  10
ENDBRANCH   7   9
ENDBRANCH   2   3
BRANCH   1  15
ATOM     15  C   UNL     1      49.524   8.050  15.838  0.00  0.00    +0.000 C 
BRANCH  15  16
ATOM     16  O   UNL     1      49.228   7.426  17.084  0.00  0.00    +0.000 OA
BRANCH  16  20
ATOM     17  C   UNL     1      50.619   3.506  17.394  0.00  0.00    +0.000 A 
ATOM     18  C   UNL     1      49.241   3.721  17.296  0.00  0.00    +0.000 A 
ATOM     19  C   UNL     1      48.739   5.020  17.194  0.00  0.00    +0.000 A 
ATOM     20  C   UNL     1      49.607   6.115  17.194  0.00  0.00    +0.000 A 
ATOM     21  C   UNL     1      50.983   5.899  17.314  0.00  0.00    +0.000 A 
ATOM     22  C   UNL     1      51.490   4.600  17.421  0.00  0.00    +0.000 A 
BRANCH  17  24
ATOM     23  N   UNL     1      52.190   1.938  18.384  0.00  0.00    +0.000 N 
ATOM     24  C   UNL     1      51.177   2.135  17.488  0.00  0.00    +0.000 C 
ATOM     25  O   UNL     1      50.727   1.209  16.825  0.00  0.00    +0.000 OA
ATOM     26  H   UNL     1      52.491   0.980  18.515  0.00  0.00    +0.000 HD
ATOM     27  H   UNL     1      52.392   2.597  19.122  0.00  0.00    +0.000 HD
ENDBRANCH  17  24
ENDBRANCH  16  20
ENDBRANCH  15  16
ENDBRANCH   1  15
TORSDOF 7
ENDMDL
MODEL 9
REMARK VINA RESULT:    -5.836      3.491      5.357
REMARK INTER + INTRA:          -8.963
REMARK INTER:                  -8.525
REMARK INTRA:                  -0.438
REMARK UNBOUND:                -0.739
REMARK  Name = 
REMARK  7 active torsions:
REMARK  status: ('A' for Active; 'I' for Inactive)
REMARK    1  A    between atoms: C_2  and  C_4
REMARK    2  A    between atoms: C_7  and  O_8
REMARK    3  A    between atoms: O_8  and  C_9
REMARK    4  A    between atoms: C_9  and  C_10
REMARK    5  A    between atoms: C_11  and  C_12
REMARK    6  A    between atoms: C_16  and  O_17
REMARK    7  A    between atoms: O_17  and  C_18
REMARK                            x       y       z     vdW  Elec       q    Type
REMARK                         _______ _______ _______ _____ _____    ______ ____
ROOT
ATOM      1  C   UNL     1      48.392   7.898  14.544  0.00  0.00    +0.000 C 
ATOM      2  C   UNL     1      49.579   7.276  14.634  0.00  0.00    +0.000 C 
ENDROOT
BRANCH   2   3
ATOM      3  C   UNL     1      50.113   6.704  15.878  0.00  0.00    +0.000 A 
ATOM      4  C   UNL     1      51.375   7.114  16.321  0.00  0.00    +0.000 A 
ATOM      5  C   UNL     1      51.931   6.567  17.482  0.00  0.00    +0.000 A 
ATOM      6  C   UNL     1      51.230   5.610  18.215  0.00  0.00    +0.000 A 
ATOM      7  C   UNL     1      49.966   5.210  17.792  0.00  0.00    +0.000 A 
ATOM      8  C   UNL     1      49.405   5.770  16.643  0.00  0.00    +0.000 A 
BRANCH   7   9
ATOM      9  O   UNL     1      49.170   4.301  18.442  0.00  0.00    +0.000 OA
BRANCH   9  10
ATOM     10  C   UNL     1      49.199   2.919  18.022  0.00  0.00    +0.000 C 
ATOM     11  C   UNL     1      50.441   2.417  17.260  0.00  0.00    +0.000 C 
ATOM     12  N   UNL     1      49.588   1.896  16.180  0.00  0.00    +0.000 NA
ATOM     13  C   UNL     1      48.431   2.628  16.716  0.00  0.00    +0.000 C 
ATOM     14  H   UNL     1      49.477   0.883  16.186  0.00  0.00    +0.000 HD
ENDBRANCH   9  10
ENDBRANCH   7   9
ENDBRANCH   2   3
BRANCH   1  15
ATOM     15  C   UNL     1      47.791   8.353  13.256  0.00  0.00    +0.000 C 
BRANCH  15  16
ATOM     16  O   UNL     1      47.978   7.340  12.272  0.00  0.00    +0.000 OA
BRANCH  16  20
ATOM     17  C   UNL     1      44.927   4.512  11.978  0.00  0.00    +0.000 A 
ATOM     18  C   UNL     1      45.872   4.373  13.000  0.00  0.00    +0.000 A 
ATOM     19  C   UNL     1      46.909   5.299  13.126  0.00  0.00    +0.000 A 
ATOM     20  C   UNL     1      47.015   6.367  12.233  0.00  0.00    +0.000 A 
ATOM     21  C   UNL     1      46.082   6.493  11.199  0.00  0.00    +0.000 A 
ATOM     22  C   UNL     1      45.045   5.565  11.065  0.00  0.00    +0.000 A 
BRANCH  17  24
ATOM     23  N   UNL     1      43.896   2.384  12.544  0.00  0.00    +0.000 N 
ATOM     24  C   UNL     1      43.808   3.549  11.833  0.00  0.00    +0.000 C 
ATOM     25  O   UNL     1      42.829   3.797  11.140  0.00  0.00    +0.000 OA
ATOM     26  H   UNL     1      43.081   1.783  12.518  0.00  0.00    +0.000 HD
ATOM     27  H   UNL     1      44.538   2.272  13.315  0.00  0.00    +0.000 HD
ENDBRANCH  17  24
ENDBRANCH  16  20
ENDBRANCH  15  16
ENDBRANCH   1  15
TORSDOF 7
ENDMDL
