MODEL 1
REMARK VINA RESULT:    -7.812      0.000      0.000
REMARK INTER + INTRA:         -12.156
REMARK INTER:                 -10.552
REMARK INTRA:                  -1.603
REMARK UNBOUND:                -1.603
REMARK  Name = 
REMARK  7 active torsions:
REMARK  status: ('A' for Active; 'I' for Inactive)
REMARK    1  A    between atoms: C_1  and  C_2
REMARK    2  A    between atoms: C_2  and  N_3
REMARK    3  A    between atoms: N_3  and  C_4
REMARK    4  A    between atoms: C_4  and  C_5
REMARK    5  A    between atoms: C_8  and  C_9
REMARK    6  A    between atoms: C_9  and  C_10
REMARK    7  A    between atoms: C_18  and  C_20
REMARK                            x       y       z     vdW  Elec       q    Type
REMARK                         _______ _______ _______ _____ _____    ______ ____
ROOT
ATOM      1  N   UNL     1      46.430   7.141  12.159  0.00  0.00    +0.000 N 
ATOM      2  C   UNL     1      45.137   6.810  11.720  0.00  0.00    +0.000 C 
ATOM      3  O   UNL     1      44.319   7.677  11.420  0.00  0.00    +0.000 OA
ENDROOT
BRANCH   2   4
ATOM      4  C   UNL     1      44.727   5.405  11.666  0.00  0.00    +0.000 A 
ATOM      5  C   UNL     1      44.005   4.757  12.653  0.00  0.00    +0.000 A 
ATOM      6  S   UNL     1      43.560   3.163  12.230  0.00  0.00    +0.000 S 
ATOM      7  C   UNL     1      44.222   3.334  10.670  0.00  0.00    +0.000 A 
ATOM      8  N   UNL     1      44.089   2.357   9.736  0.00  0.00    +0.000 NA
ATOM      9  C   UNL     1      44.577   2.663   8.579  0.00  0.00    +0.000 A 
ATOM     10  N   UNL     1      45.220   3.838   8.285  0.00  0.00    +0.000 N 
ATOM     11  C   UNL     1      45.496   4.799   9.235  0.00  0.00    +0.000 A 
ATOM     12  O   UNL     1      46.272   5.717   9.004  0.00  0.00    +0.000 OA
ATOM     13  C   UNL     1      44.853   4.552  10.513  0.00  0.00    +0.000 A 
ATOM     14  H   UNL     1      45.642   3.985   7.379  0.00  0.00    +0.000 HD
ENDBRANCH   2   4
BRANCH   1  16
ATOM     15  C   UNL     1      48.138   8.947  11.949  0.00  0.00    +0.000 C 
ATOM     16  C   UNL     1      46.705   8.578  12.315  0.00  0.00    +0.000 C 
ENDBRANCH   1  16
BRANCH   1  17
ATOM     17  C   UNL     1      47.461   6.144  12.506  0.00  0.00    +0.000 C 
BRANCH  17  18
ATOM     18  C   UNL     1      47.597   5.818  13.971  0.00  0.00    +0.000 A 
ATOM     19  C   UNL     1      48.435   6.583  14.799  0.00  0.00    +0.000 A 
ATOM     20  C   UNL     1      48.733   6.149  16.092  0.00  0.00    +0.000 A 
ATOM     21  C   UNL     1      48.194   4.951  16.576  0.00  0.00    +0.000 A 
ATOM     22  C   UNL     1      47.266   4.257  15.790  0.00  0.00    +0.000 A 
ATOM     23  C   UNL     1      46.967   4.687  14.498  0.00  0.00    +0.000 A 
BRANCH  21  24
ATOM     24  C   UNL     1      48.659   4.374  17.890  0.00  0.00    +0.000 C 
BRANCH  24  25
ATOM     25  C   UNL     1      49.958   3.613  17.830  0.00  0.00    +0.000 A 
ATOM     26  C   UNL     1      51.149   4.200  18.279  0.00  0.00    +0.000 A 
ATOM     27  C   UNL     1      52.346   3.487  18.242  0.00  0.00    +0.000 A 
ATOM     28  C   UNL     1      52.365   2.183  17.751  0.00  0.00    +0.000 A 
ATOM     29  C   UNL     1      51.189   1.590  17.300  0.00  0.00    +0.000 A 
ATOM     30  C   UNL     1      49.990   2.302  17.333  0.00  0.00    +0.000 A 
ENDBRANCH  24  25
ENDBRANCH  21  24
ENDBRANCH  17  18
ENDBRANCH   1  17
TORSDOF 6
ENDMDL
MODEL 2
REMARK VINA RESULT:    -7.029      4.005      7.955
REMARK INTER + INTRA:         -11.097
REMARK INTER:                  -9.514
REMARK INTRA:                  -1.583
REMARK UNBOUND:                -1.603
REMARK  Name = 
REMARK  7 active torsions:
REMARK  status: ('A' for Active; 'I' for Inactive)
REMARK    1  A    between atoms: C_1  and  C_2
REMARK    2  A    between atoms: C_2  and  N_3
REMARK    3  A    between atoms: N_3  and  C_4
REMARK    4  A    between atoms: C_4  and  C_5
REMARK    5  A    between atoms: C_8  and  C_9
REMARK    6  A    between atoms: C_9  and  C_10
REMARK    7  A    between atoms: C_18  and  C_20
REMARK                            x       y       z     vdW  Elec       q    Type
REMARK                         _______ _______ _______ _____ _____    ______ ____
ROOT
ATOM      1  N   UNL     1      48.738   7.486  13.717  0.00  0.00    +0.000 N 
ATOM      2  C   UNL     1      49.684   7.484  14.756  0.00  0.00    +0.000 C 
ATOM      3  O   UNL     1      50.856   7.171  14.558  0.00  0.00    +0.000 OA
ENDROOT
BRANCH   2   4
ATOM      4  C   UNL     1      49.263   7.809  16.120  0.00  0.00    +0.000 A 
ATOM      5  C   UNL     1      49.319   9.074  16.681  0.00  0.00    +0.000 A 
ATOM      6  S   UNL     1      48.621   9.154  18.239  0.00  0.00    +0.000 S 
ATOM      7  C   UNL     1      48.123   7.528  18.160  0.00  0.00    +0.000 A 
ATOM      8  N   UNL     1      47.365   6.973  19.142  0.00  0.00    +0.000 NA
ATOM      9  C   UNL     1      47.003   5.755  18.904  0.00  0.00    +0.000 A 
ATOM     10  N   UNL     1      47.364   5.031  17.796  0.00  0.00    +0.000 N 
ATOM     11  C   UNL     1      48.240   5.507  16.843  0.00  0.00    +0.000 A 
ATOM     12  O   UNL     1      48.729   4.765  16.002  0.00  0.00    +0.000 OA
ATOM     13  C   UNL     1      48.566   6.913  17.006  0.00  0.00    +0.000 A 
ATOM     14  H   UNL     1      47.106   4.059  17.706  0.00  0.00    +0.000 HD
ENDBRANCH   2   4
BRANCH   1  16
ATOM     15  C   UNL     1      49.389   8.138  11.399  0.00  0.00    +0.000 C 
ATOM     16  C   UNL     1      49.221   7.011  12.411  0.00  0.00    +0.000 C 
ENDBRANCH   1  16
BRANCH   1  17
ATOM     17  C   UNL     1      47.326   7.877  13.891  0.00  0.00    +0.000 C 
BRANCH  17  18
ATOM     18  C   UNL     1      46.311   7.018  13.183  0.00  0.00    +0.000 A 
ATOM     19  C   UNL     1      46.343   5.620  13.310  0.00  0.00    +0.000 A 
ATOM     20  C   UNL     1      45.553   4.819  12.484  0.00  0.00    +0.000 A 
ATOM     21  C   UNL     1      44.716   5.404  11.526  0.00  0.00    +0.000 A 
ATOM     22  C   UNL     1      44.598   6.799  11.487  0.00  0.00    +0.000 A 
ATOM     23  C   UNL     1      45.388   7.601  12.309  0.00  0.00    +0.000 A 
BRANCH  21  24
ATOM     24  C   UNL     1      44.007   4.553  10.501  0.00  0.00    +0.000 C 
BRANCH  24  25
ATOM     25  C   UNL     1      44.908   3.873   9.503  0.00  0.00    +0.000 A 
ATOM     26  C   UNL     1      44.975   2.475   9.442  0.00  0.00    +0.000 A 
ATOM     27  C   UNL     1      45.793   1.846   8.504  0.00  0.00    +0.000 A 
ATOM     28  C   UNL     1      46.554   2.610   7.621  0.00  0.00    +0.000 A 
ATOM     29  C   UNL     1      46.497   4.001   7.673  0.00  0.00    +0.000 A 
ATOM     30  C   UNL     1      45.682   4.632   8.613  0.00  0.00    +0.000 A 
ENDBRANCH  24  25
ENDBRANCH  21  24
ENDBRANCH  17  18
ENDBRANCH   1  17
TORSDOF 6
ENDMDL
MODEL 3
REMARK VINA RESULT:    -6.937      3.650      7.943
REMARK INTER + INTRA:         -10.974
REMARK INTER:                  -9.501
REMARK INTRA:                  -1.472
REMARK UNBOUND:                -1.603
REMARK  Name = 
REMARK  7 active torsions:
REMARK  status: ('A' for Active; 'I' for Inactive)
REMARK    1  A    between atoms: C_1  and  C_2
REMARK    2  A    between atoms: C_2  and  N_3
REMARK    3  A    between atoms: N_3  and  C_4
REMARK    4  A    between atoms: C_4  and  C_5
REMARK    5  A    between atoms: C_8  and  C_9
REMARK    6  A    between atoms: C_9  and  C_10
REMARK    7  A    between atoms: C_18  and  C_20
REMARK                            x       y       z     vdW  Elec       q    Type
REMARK                         _______ _______ _______ _____ _____    ______ ____
ROOT
ATOM      1  N   UNL     1      48.657   7.385  15.443  0.00  0.00    +0.000 N 
ATOM      2  C   UNL     1      48.481   6.987  16.779  0.00  0.00    +0.000 C 
ATOM      3  O   UNL     1      48.356   7.810  17.684  0.00  0.00    +0.000 OA
ENDROOT
BRANCH   2   4
ATOM      4  C   UNL     1      48.500   5.563  17.120  0.00  0.00    +0.000 A 
ATOM      5  C   UNL     1      47.392   4.733  17.094  0.00  0.00    +0.000 A 
ATOM      6  S   UNL     1      47.767   3.094  17.404  0.00  0.00    +0.000 S 
ATOM      7  C   UNL     1      49.435   3.432  17.468  0.00  0.00    +0.000 A 
ATOM      8  N   UNL     1      50.352   2.438  17.602  0.00  0.00    +0.000 NA
ATOM      9  C   UNL     1      51.578   2.842  17.558  0.00  0.00    +0.000 A 
ATOM     10  N   UNL     1      51.970   4.151  17.435  0.00  0.00    +0.000 N 
ATOM     11  C   UNL     1      51.076   5.202  17.433  0.00  0.00    +0.000 A 
ATOM     12  O   UNL     1      51.456   6.358  17.564  0.00  0.00    +0.000 OA
ATOM     13  C   UNL     1      49.689   4.784  17.350  0.00  0.00    +0.000 A 
ATOM     14  H   UNL     1      52.945   4.406  17.480  0.00  0.00    +0.000 HD
ENDBRANCH   2   4
BRANCH   1  16
ATOM     15  C   UNL     1      49.946   9.205  14.325  0.00  0.00    +0.000 C 
ATOM     16  C   UNL     1      48.765   8.834  15.216  0.00  0.00    +0.000 C 
ENDBRANCH   1  16
BRANCH   1  17
ATOM     17  C   UNL     1      48.785   6.443  14.315  0.00  0.00    +0.000 C 
BRANCH  17  18
ATOM     18  C   UNL     1      47.539   6.216  13.499  0.00  0.00    +0.000 A 
ATOM     19  C   UNL     1      46.689   5.134  13.777  0.00  0.00    +0.000 A 
ATOM     20  C   UNL     1      45.666   4.796  12.889  0.00  0.00    +0.000 A 
ATOM     21  C   UNL     1      45.475   5.537  11.717  0.00  0.00    +0.000 A 
ATOM     22  C   UNL     1      46.247   6.687  11.507  0.00  0.00    +0.000 A 
ATOM     23  C   UNL     1      47.271   7.025  12.391  0.00  0.00    +0.000 A 
BRANCH  21  24
ATOM     24  C   UNL     1      44.506   5.070  10.660  0.00  0.00    +0.000 C 
BRANCH  24  25
ATOM     25  C   UNL     1      45.085   4.128   9.635  0.00  0.00    +0.000 A 
ATOM     26  C   UNL     1      44.927   2.743   9.772  0.00  0.00    +0.000 A 
ATOM     27  C   UNL     1      45.444   1.874   8.812  0.00  0.00    +0.000 A 
ATOM     28  C   UNL     1      46.128   2.382   7.710  0.00  0.00    +0.000 A 
ATOM     29  C   UNL     1      46.294   3.757   7.564  0.00  0.00    +0.000 A 
ATOM     30  C   UNL     1      45.779   4.628   8.524  0.00  0.00    +0.000 A 
ENDBRANCH  24  25
ENDBRANCH  21  24
ENDBRANCH  17  18
ENDBRANCH   1  17
TORSDOF 6
ENDMDL
MODEL 4
REMARK VINA RESULT:    -6.654      1.898      3.124
REMARK INTER + INTRA:         -10.591
REMARK INTER:                  -9.335
REMARK INTRA:                  -1.256
REMARK UNBOUND:                -1.603
REMARK  Name = 
REMARK  7 active torsions:
REMARK  status: ('A' for Active; 'I' for Inactive)
REMARK    1  A    between atoms: C_1  and  C_2
REMARK    2  A    between atoms: C_2  and  N_3
REMARK    3  A    between atoms: N_3  and  C_4
REMARK    4  A    between atoms: C_4  and  C_5
REMARK    5  A    between atoms: C_8  and  C_9
REMARK    6  A    between atoms: C_9  and  C_10
REMARK    7  A    between atoms: C_18  and  C_20
REMARK                            x       y       z     vdW  Elec       q    Type
REMARK                         _______ _______ _______ _____ _____    ______ ____
ROOT
ATOM      1  N   UNL     1      46.373   7.276  12.406  0.00  0.00    +0.000 N 
ATOM      2  C   UNL     1      45.310   7.222  11.489  0.00  0.00    +0.000 C 
ATOM      3  O   UNL     1      44.575   8.189  11.299  0.00  0.00    +0.000 OA
ENDROOT
BRANCH   2   4
ATOM      4  C   UNL     1      45.031   5.974  10.776  0.00  0.00    +0.000 A 
ATOM      5  C   UNL     1      45.535   5.649   9.528  0.00  0.00    +0.000 A 
ATOM      6  S   UNL     1      45.141   4.063   9.031  0.00  0.00    +0.000 S 
ATOM      7  C   UNL     1      44.382   3.726  10.518  0.00  0.00    +0.000 A 
ATOM      8  N   UNL     1      43.907   2.486  10.803  0.00  0.00    +0.000 NA
ATOM      9  C   UNL     1      43.427   2.366  11.997  0.00  0.00    +0.000 A 
ATOM     10  N   UNL     1      43.343   3.383  12.914  0.00  0.00    +0.000 N 
ATOM     11  C   UNL     1      43.687   4.687  12.621  0.00  0.00    +0.000 A 
ATOM     12  O   UNL     1      43.379   5.608  13.366  0.00  0.00    +0.000 OA
ATOM     13  C   UNL     1      44.349   4.837  11.338  0.00  0.00    +0.000 A 
ATOM     14  H   UNL     1      42.890   3.240  13.806  0.00  0.00    +0.000 HD
ENDBRANCH   2   4
BRANCH   1  16
ATOM     15  C   UNL     1      47.557   9.461  12.622  0.00  0.00    +0.000 C 
ATOM     16  C   UNL     1      46.490   8.524  13.176  0.00  0.00    +0.000 C 
ENDBRANCH   1  16
BRANCH   1  17
ATOM     17  C   UNL     1      47.302   6.157  12.655  0.00  0.00    +0.000 C 
BRANCH  17  18
ATOM     18  C   UNL     1      47.581   5.839  14.101  0.00  0.00    +0.000 A 
ATOM     19  C   UNL     1      48.579   6.531  14.807  0.00  0.00    +0.000 A 
ATOM     20  C   UNL     1      48.986   6.087  16.066  0.00  0.00    +0.000 A 
ATOM     21  C   UNL     1      48.399   4.953  16.638  0.00  0.00    +0.000 A 
ATOM     22  C   UNL     1      47.322   4.340  15.984  0.00  0.00    +0.000 A 
ATOM     23  C   UNL     1      46.915   4.780  14.725  0.00  0.00    +0.000 A 
BRANCH  21  24
ATOM     24  C   UNL     1      48.960   4.351  17.903  0.00  0.00    +0.000 C 
BRANCH  24  25
ATOM     25  C   UNL     1      48.495   5.001  19.180  0.00  0.00    +0.000 A 
ATOM     26  C   UNL     1      47.763   6.195  19.146  0.00  0.00    +0.000 A 
ATOM     27  C   UNL     1      47.315   6.784  20.327  0.00  0.00    +0.000 A 
ATOM     28  C   UNL     1      47.598   6.187  21.554  0.00  0.00    +0.000 A 
ATOM     29  C   UNL     1      48.327   5.001  21.601  0.00  0.00    +0.000 A 
ATOM     30  C   UNL     1      48.778   4.411  20.421  0.00  0.00    +0.000 A 
ENDBRANCH  24  25
ENDBRANCH  21  24
ENDBRANCH  17  18
ENDBRANCH   1  17
TORSDOF 6
ENDMDL
MODEL 5
REMARK VINA RESULT:    -6.604      3.986      8.173
REMARK INTER + INTRA:         -10.523
REMARK INTER:                  -8.907
REMARK INTRA:                  -1.616
REMARK UNBOUND:                -1.603
REMARK  Name = 
REMARK  7 active torsions:
REMARK  status: ('A' for Active; 'I' for Inactive)
REMARK    1  A    between atoms: C_1  and  C_2
REMARK    2  A    between atoms: C_2  and  N_3
REMARK    3  A    between atoms: N_3  and  C_4
REMARK    4  A    between atoms: C_4  and  C_5
REMARK    5  A    between atoms: C_8  and  C_9
REMARK    6  A    between atoms: C_9  and  C_10
REMARK    7  A    between atoms: C_18  and  C_20
REMARK                            x       y       z     vdW  Elec       q    Type
REMARK                         _______ _______ _______ _____ _____    ______ ____
ROOT
ATOM      1  N   UNL     1      49.158   7.729  14.516  0.00  0.00    +0.000 N 
ATOM      2  C   UNL     1      49.678   6.910  15.532  0.00  0.00    +0.000 C 
ATOM      3  O   UNL     1      50.879   6.657  15.602  0.00  0.00    +0.000 OA
ENDROOT
BRANCH   2   4
ATOM      4  C   UNL     1      48.771   6.295  16.503  0.00  0.00    +0.000 A 
ATOM      5  C   UNL     1      48.242   5.020  16.389  0.00  0.00    +0.000 A 
ATOM      6  S   UNL     1      47.334   4.540  17.755  0.00  0.00    +0.000 S 
ATOM      7  C   UNL     1      47.718   5.977  18.584  0.00  0.00    +0.000 A 
ATOM      8  N   UNL     1      47.338   6.171  19.874  0.00  0.00    +0.000 NA
ATOM      9  C   UNL     1      47.767   7.275  20.390  0.00  0.00    +0.000 A 
ATOM     10  N   UNL     1      48.506   8.219  19.722  0.00  0.00    +0.000 N 
ATOM     11  C   UNL     1      48.798   8.126  18.377  0.00  0.00    +0.000 A 
ATOM     12  O   UNL     1      49.243   9.083  17.757  0.00  0.00    +0.000 OA
ATOM     13  C   UNL     1      48.446   6.844  17.794  0.00  0.00    +0.000 A 
ATOM     14  H   UNL     1      48.749   9.094  20.163  0.00  0.00    +0.000 HD
ENDBRANCH   2   4
BRANCH   1  16
ATOM     15  C   UNL     1      49.793   9.571  12.959  0.00  0.00    +0.000 C 
ATOM     16  C   UNL     1      50.124   8.187  13.506  0.00  0.00    +0.000 C 
ENDBRANCH   1  16
BRANCH   1  17
ATOM     17  C   UNL     1      47.731   8.087  14.399  0.00  0.00    +0.000 C 
BRANCH  17  18
ATOM     18  C   UNL     1      46.969   7.405  13.293  0.00  0.00    +0.000 A 
ATOM     19  C   UNL     1      46.032   8.116  12.525  0.00  0.00    +0.000 A 
ATOM     20  C   UNL     1      45.171   7.439  11.660  0.00  0.00    +0.000 A 
ATOM     21  C   UNL     1      45.239   6.045  11.545  0.00  0.00    +0.000 A 
ATOM     22  C   UNL     1      46.254   5.356  12.221  0.00  0.00    +0.000 A 
ATOM     23  C   UNL     1      47.114   6.030  13.087  0.00  0.00    +0.000 A 
BRANCH  21  24
ATOM     24  C   UNL     1      44.194   5.285  10.767  0.00  0.00    +0.000 C 
BRANCH  24  25
ATOM     25  C   UNL     1      44.735   4.261   9.803  0.00  0.00    +0.000 A 
ATOM     26  C   UNL     1      45.547   4.651   8.730  0.00  0.00    +0.000 A 
ATOM     27  C   UNL     1      46.064   3.701   7.852  0.00  0.00    +0.000 A 
ATOM     28  C   UNL     1      45.770   2.351   8.035  0.00  0.00    +0.000 A 
ATOM     29  C   UNL     1      44.962   1.950   9.096  0.00  0.00    +0.000 A 
ATOM     30  C   UNL     1      44.442   2.900   9.975  0.00  0.00    +0.000 A 
ENDBRANCH  24  25
ENDBRANCH  21  24
ENDBRANCH  17  18
ENDBRANCH   1  17
TORSDOF 6
ENDMDL
MODEL 6
REMARK VINA RESULT:    -6.380      3.755      7.874
REMARK INTER + INTRA:         -10.221
REMARK INTER:                 -10.076
REMARK INTRA:                  -0.145
REMARK UNBOUND:                -1.603
REMARK  Name = 
REMARK  7 active torsions:
REMARK  status: ('A' for Active; 'I' for Inactive)
REMARK    1  A    between atoms: C_1  and  C_2
REMARK    2  A    between atoms: C_2  and  N_3
REMARK    3  A    between atoms: N_3  and  C_4
REMARK    4  A    between atoms: C_4  and  C_5
REMARK    5  A    between atoms: C_8  and  C_9
REMARK    6  A    between atoms: C_9  and  C_10
REMARK    7  A    between atoms: C_18  and  C_20
REMARK                            x       y       z     vdW  Elec       q    Type
REMARK                         _______ _______ _______ _____ _____    ______ ____
ROOT
ATOM      1  N   UNL     1      46.951   6.641  13.658  0.00  0.00    +0.000 N 
ATOM      2  C   UNL     1      47.517   7.898  13.384  0.00  0.00    +0.000 C 
ATOM      3  O   UNL     1      48.632   8.205  13.799  0.00  0.00    +0.000 OA
ENDROOT
BRANCH   2   4
ATOM      4  C   UNL     1      46.746   8.892  12.634  0.00  0.00    +0.000 A 
ATOM      5  C   UNL     1      45.390   9.120  12.792  0.00  0.00    +0.000 A 
ATOM      6  S   UNL     1      44.814  10.443  11.875  0.00  0.00    +0.000 S 
ATOM      7  C   UNL     1      46.384  10.817  11.330  0.00  0.00    +0.000 A 
ATOM      8  N   UNL     1      46.624  11.921  10.576  0.00  0.00    +0.000 NA
ATOM      9  C   UNL     1      47.872  12.112  10.303  0.00  0.00    +0.000 A 
ATOM     10  N   UNL     1      48.895  11.279  10.680  0.00  0.00    +0.000 N 
ATOM     11  C   UNL     1      48.682  10.079  11.327  0.00  0.00    +0.000 A 
ATOM     12  O   UNL     1      49.576   9.249  11.436  0.00  0.00    +0.000 OA
ATOM     13  C   UNL     1      47.311   9.891  11.765  0.00  0.00    +0.000 A 
ATOM     14  H   UNL     1      49.841  11.448  10.372  0.00  0.00    +0.000 HD
ENDBRANCH   2   4
BRANCH   1  16
ATOM     15  C   UNL     1      46.986   4.498  14.932  0.00  0.00    +0.000 C 
ATOM     16  C   UNL     1      47.739   5.762  14.535  0.00  0.00    +0.000 C 
ENDBRANCH   1  16
BRANCH   1  17
ATOM     17  C   UNL     1      45.629   6.210  13.164  0.00  0.00    +0.000 C 
BRANCH  17  18
ATOM     18  C   UNL     1      45.626   5.447  11.864  0.00  0.00    +0.000 A 
ATOM     19  C   UNL     1      46.085   6.048  10.681  0.00  0.00    +0.000 A 
ATOM     20  C   UNL     1      45.876   5.427   9.449  0.00  0.00    +0.000 A 
ATOM     21  C   UNL     1      45.211   4.197   9.383  0.00  0.00    +0.000 A 
ATOM     22  C   UNL     1      44.864   3.547  10.574  0.00  0.00    +0.000 A 
ATOM     23  C   UNL     1      45.071   4.166  11.806  0.00  0.00    +0.000 A 
BRANCH  21  24
ATOM     24  C   UNL     1      44.807   3.611   8.052  0.00  0.00    +0.000 C 
BRANCH  24  25
ATOM     25  C   UNL     1      45.891   2.853   7.333  0.00  0.00    +0.000 A 
ATOM     26  C   UNL     1      46.404   1.664   7.869  0.00  0.00    +0.000 A 
ATOM     27  C   UNL     1      47.393   0.951   7.191  0.00  0.00    +0.000 A 
ATOM     28  C   UNL     1      47.881   1.423   5.975  0.00  0.00    +0.000 A 
ATOM     29  C   UNL     1      47.381   2.605   5.433  0.00  0.00    +0.000 A 
ATOM     30  C   UNL     1      46.394   3.321   6.110  0.00  0.00    +0.000 A 
ENDBRANCH  24  25
ENDBRANCH  21  24
ENDBRANCH  17  18
ENDBRANCH   1  17
TORSDOF 6
ENDMDL
MODEL 7
REMARK VINA RESULT:    -6.189      3.962      7.758
REMARK INTER + INTRA:          -9.963
REMARK INTER:                  -8.303
REMARK INTRA:                  -1.661
REMARK UNBOUND:                -1.603
REMARK  Name = 
REMARK  7 active torsions:
REMARK  status: ('A' for Active; 'I' for Inactive)
REMARK    1  A    between atoms: C_1  and  C_2
REMARK    2  A    between atoms: C_2  and  N_3
REMARK    3  A    between atoms: N_3  and  C_4
REMARK    4  A    between atoms: C_4  and  C_5
REMARK    5  A    between atoms: C_8  and  C_9
REMARK    6  A    between atoms: C_9  and  C_10
REMARK    7  A    between atoms: C_18  and  C_20
REMARK                            x       y       z     vdW  Elec       q    Type
REMARK                         _______ _______ _______ _____ _____    ______ ____
ROOT
ATOM      1  N   UNL     1      49.247   7.526  16.939  0.00  0.00    +0.000 N 
ATOM      2  C   UNL     1      48.611   6.574  17.753  0.00  0.00    +0.000 C 
ATOM      3  O   UNL     1      48.174   6.867  18.863  0.00  0.00    +0.000 OA
ENDROOT
BRANCH   2   4
ATOM      4  C   UNL     1      48.509   5.185  17.299  0.00  0.00    +0.000 A 
ATOM      5  C   UNL     1      47.530   4.706  16.445  0.00  0.00    +0.000 A 
ATOM      6  S   UNL     1      47.767   3.075  15.991  0.00  0.00    +0.000 S 
ATOM      7  C   UNL     1      49.246   2.999  16.832  0.00  0.00    +0.000 A 
ATOM      8  N   UNL     1      50.037   1.897  16.771  0.00  0.00    +0.000 NA
ATOM      9  C   UNL     1      51.160   2.017  17.398  0.00  0.00    +0.000 A 
ATOM     10  N   UNL     1      51.544   3.123  18.114  0.00  0.00    +0.000 N 
ATOM     11  C   UNL     1      50.717   4.209  18.316  0.00  0.00    +0.000 A 
ATOM     12  O   UNL     1      50.986   5.065  19.147  0.00  0.00    +0.000 OA
ATOM     13  C   UNL     1      49.502   4.167  17.523  0.00  0.00    +0.000 A 
ATOM     14  H   UNL     1      52.405   3.125  18.642  0.00  0.00    +0.000 HD
ENDBRANCH   2   4
BRANCH   1  16
ATOM     15  C   UNL     1      50.880   9.323  17.510  0.00  0.00    +0.000 C 
ATOM     16  C   UNL     1      49.428   8.858  17.535  0.00  0.00    +0.000 C 
ENDBRANCH   1  16
BRANCH   1  17
ATOM     17  C   UNL     1      49.767   7.237  15.588  0.00  0.00    +0.000 C 
BRANCH  17  18
ATOM     18  C   UNL     1      48.787   7.403  14.455  0.00  0.00    +0.000 A 
ATOM     19  C   UNL     1      47.801   8.402  14.501  0.00  0.00    +0.000 A 
ATOM     20  C   UNL     1      46.764   8.411  13.568  0.00  0.00    +0.000 A 
ATOM     21  C   UNL     1      46.700   7.427  12.574  0.00  0.00    +0.000 A 
ATOM     22  C   UNL     1      47.750   6.507  12.460  0.00  0.00    +0.000 A 
ATOM     23  C   UNL     1      48.787   6.495  13.392  0.00  0.00    +0.000 A 
BRANCH  21  24
ATOM     24  C   UNL     1      45.487   7.309  11.684  0.00  0.00    +0.000 C 
BRANCH  24  25
ATOM     25  C   UNL     1      44.802   5.968  11.715  0.00  0.00    +0.000 A 
ATOM     26  C   UNL     1      44.773   5.156  10.573  0.00  0.00    +0.000 A 
ATOM     27  C   UNL     1      44.157   3.906  10.609  0.00  0.00    +0.000 A 
ATOM     28  C   UNL     1      43.559   3.458  11.785  0.00  0.00    +0.000 A 
ATOM     29  C   UNL     1      43.579   4.256  12.926  0.00  0.00    +0.000 A 
ATOM     30  C   UNL     1      44.193   5.508  12.892  0.00  0.00    +0.000 A 
ENDBRANCH  24  25
ENDBRANCH  21  24
ENDBRANCH  17  18
ENDBRANCH   1  17
TORSDOF 6
ENDMDL
MODEL 8
REMARK VINA RESULT:    -6.082      4.041      7.938
REMARK INTER + INTRA:          -9.818
REMARK INTER:                  -8.162
REMARK INTRA:                  -1.656
REMARK UNBOUND:                -1.603
REMARK  Name = 
REMARK  7 active torsions:
REMARK  status: ('A' for Active; 'I' for Inactive)
REMARK    1  A    between atoms: C_1  and  C_2
REMARK    2  A    between atoms: C_2  and  N_3
REMARK    3  A    between atoms: N_3  and  C_4
REMARK    4  A    between atoms: C_4  and  C_5
REMARK    5  A    between atoms: C_8  and  C_9
REMARK    6  A    between atoms: C_9  and  C_10
REMARK    7  A    between atoms: C_18  and  C_20
REMARK                            x       y       z     vdW  Elec       q    Type
REMARK                         _______ _______ _______ _____ _____    ______ ____
ROOT
ATOM      1  N   UNL     1      48.958   8.444  16.799  0.00  0.00    +0.000 N 
ATOM      2  C   UNL     1      49.373   7.633  17.869  0.00  0.00    +0.000 C 
ATOM      3  O   UNL     1      48.989   7.838  19.018  0.00  0.00    +0.000 OA
ENDROOT
BRANCH   2   4
ATOM      4  C   UNL     1      50.327   6.548  17.628  0.00  0.00    +0.000 A 
ATOM      5  C   UNL     1      51.702   6.668  17.745  0.00  0.00    +0.000 A 
ATOM      6  S   UNL     1      52.530   5.188  17.539  0.00  0.00    +0.000 S 
ATOM      7  C   UNL     1      51.068   4.326  17.401  0.00  0.00    +0.000 A 
ATOM      8  N   UNL     1      51.053   2.970  17.310  0.00  0.00    +0.000 NA
ATOM      9  C   UNL     1      49.868   2.456  17.288  0.00  0.00    +0.000 A 
ATOM     10  N   UNL     1      48.699   3.175  17.308  0.00  0.00    +0.000 N 
ATOM     11  C   UNL     1      48.668   4.554  17.263  0.00  0.00    +0.000 A 
ATOM     12  O   UNL     1      47.628   5.158  17.040  0.00  0.00    +0.000 OA
ATOM     13  C   UNL     1      49.974   5.168  17.417  0.00  0.00    +0.000 A 
ATOM     14  H   UNL     1      47.806   2.714  17.215  0.00  0.00    +0.000 HD
ENDBRANCH   2   4
BRANCH   1  16
ATOM     15  C   UNL     1      48.746  10.929  16.790  0.00  0.00    +0.000 C 
ATOM     16  C   UNL     1      48.112   9.593  17.158  0.00  0.00    +0.000 C 
ENDBRANCH   1  16
BRANCH   1  17
ATOM     17  C   UNL     1      49.366   8.229  15.397  0.00  0.00    +0.000 C 
BRANCH  17  18
ATOM     18  C   UNL     1      48.299   7.701  14.474  0.00  0.00    +0.000 A 
ATOM     19  C   UNL     1      48.316   6.362  14.052  0.00  0.00    +0.000 A 
ATOM     20  C   UNL     1      47.467   5.934  13.030  0.00  0.00    +0.000 A 
ATOM     21  C   UNL     1      46.588   6.837  12.420  0.00  0.00    +0.000 A 
ATOM     22  C   UNL     1      46.491   8.139  12.926  0.00  0.00    +0.000 A 
ATOM     23  C   UNL     1      47.338   8.569  13.946  0.00  0.00    +0.000 A 
BRANCH  21  24
ATOM     24  C   UNL     1      45.809   6.440  11.190  0.00  0.00    +0.000 C 
BRANCH  24  25
ATOM     25  C   UNL     1      44.926   5.231  11.356  0.00  0.00    +0.000 A 
ATOM     26  C   UNL     1      44.939   4.203  10.404  0.00  0.00    +0.000 A 
ATOM     27  C   UNL     1      44.137   3.075  10.570  0.00  0.00    +0.000 A 
ATOM     28  C   UNL     1      43.312   2.965  11.687  0.00  0.00    +0.000 A 
ATOM     29  C   UNL     1      43.289   3.981  12.640  0.00  0.00    +0.000 A 
ATOM     30  C   UNL     1      44.088   5.112  12.475  0.00  0.00    +0.000 A 
ENDBRANCH  24  25
ENDBRANCH  21  24
ENDBRANCH  17  18
ENDBRANCH   1  17
TORSDOF 6
ENDMDL
MODEL 9
REMARK VINA RESULT:    -6.021      3.307      5.667
REMARK INTER + INTRA:          -9.736
REMARK INTER:                  -8.176
REMARK INTRA:                  -1.560
REMARK UNBOUND:                -1.603
REMARK  Name = 
REMARK  7 active torsions:
REMARK  status: ('A' for Active; 'I' for Inactive)
REMARK    1  A    between atoms: C_1  and  C_2
REMARK    2  A    between atoms: C_2  and  N_3
REMARK    3  A    between atoms: N_3  and  C_4
REMARK    4  A    between atoms: C_4  and  C_5
REMARK    5  A    between atoms: C_8  and  C_9
REMARK    6  A    between atoms: C_9  and  C_10
REMARK    7  A    between atoms: C_18  and  C_20
REMARK                            x       y       z     vdW  Elec       q    Type
REMARK                         _______ _______ _______ _____ _____    ______ ____
ROOT
ATOM      1  N   UNL     1      45.496   7.063  12.591  0.00  0.00    +0.000 N 
ATOM      2  C   UNL     1      44.425   6.564  11.830  0.00  0.00    +0.000 C 
ATOM      3  O   UNL     1      43.555   7.307  11.381  0.00  0.00    +0.000 OA
ENDROOT
BRANCH   2   4
ATOM      4  C   UNL     1      44.305   5.122  11.605  0.00  0.00    +0.000 A 
ATOM      5  C   UNL     1      43.571   4.259  12.401  0.00  0.00    +0.000 A 
ATOM      6  S   UNL     1      43.512   2.663  11.794  0.00  0.00    +0.000 S 
ATOM      7  C   UNL     1      44.370   3.107  10.392  0.00  0.00    +0.000 A 
ATOM      8  N   UNL     1      44.578   2.222   9.382  0.00  0.00    +0.000 NA
ATOM      9  C   UNL     1      45.178   2.726   8.354  0.00  0.00    +0.000 A 
ATOM     10  N   UNL     1      45.623   4.020   8.261  0.00  0.00    +0.000 N 
ATOM     11  C   UNL     1      45.555   4.912   9.312  0.00  0.00    +0.000 A 
ATOM     12  O   UNL     1      46.168   5.971   9.286  0.00  0.00    +0.000 OA
ATOM     13  C   UNL     1      44.774   4.427  10.435  0.00  0.00    +0.000 A 
ATOM     14  H   UNL     1      46.149   4.331   7.457  0.00  0.00    +0.000 HD
ENDBRANCH   2   4
BRANCH   1  16
ATOM     15  C   UNL     1      46.056   9.348  11.763  0.00  0.00    +0.000 C 
ATOM     16  C   UNL     1      45.457   8.504  12.883  0.00  0.00    +0.000 C 
ENDBRANCH   1  16
BRANCH   1  17
ATOM     17  C   UNL     1      46.582   6.222  13.131  0.00  0.00    +0.000 C 
BRANCH  17  18
ATOM     18  C   UNL     1      47.978   6.770  12.979  0.00  0.00    +0.000 A 
ATOM     19  C   UNL     1      48.671   7.281  14.088  0.00  0.00    +0.000 A 
ATOM     20  C   UNL     1      49.862   7.987  13.911  0.00  0.00    +0.000 A 
ATOM     21  C   UNL     1      50.378   8.186  12.625  0.00  0.00    +0.000 A 
ATOM     22  C   UNL     1      49.747   7.572  11.535  0.00  0.00    +0.000 A 
ATOM     23  C   UNL     1      48.557   6.868  11.710  0.00  0.00    +0.000 A 
BRANCH  21  24
ATOM     24  C   UNL     1      51.552   9.108  12.401  0.00  0.00    +0.000 C 
BRANCH  24  25
ATOM     25  C   UNL     1      51.425  10.027  11.215  0.00  0.00    +0.000 A 
ATOM     26  C   UNL     1      50.385  10.963  11.147  0.00  0.00    +0.000 A 
ATOM     27  C   UNL     1      50.281  11.828  10.058  0.00  0.00    +0.000 A 
ATOM     28  C   UNL     1      51.213  11.761   9.025  0.00  0.00    +0.000 A 
ATOM     29  C   UNL     1      52.251  10.834   9.079  0.00  0.00    +0.000 A 
ATOM     30  C   UNL     1      52.355   9.966  10.166  0.00  0.00    +0.000 A 
ENDBRANCH  24  25
ENDBRANCH  21  24
ENDBRANCH  17  18
ENDBRANCH   1  17
TORSDOF 6
ENDMDL
