MODEL 1
REMARK VINA RESULT:    -8.653      0.000      0.000
REMARK INTER + INTRA:         -12.832
REMARK INTER:                 -11.941
REMARK INTRA:                  -0.891
REMARK UNBOUND:                -0.891
REMARK  Name = 
REMARK  7 active torsions:
REMARK  status: ('A' for Active; 'I' for Inactive)
REMARK    1  A    between atoms: N_1  and  C_2
REMARK    2  A    between atoms: C_2  and  C_3
REMARK    3  A    between atoms: C_2  and  C_10
REMARK    4  A    between atoms: C_3  and  C_4
REMARK    5  A    between atoms: C_13  and  C_14
REMARK    6  A    between atoms: C_14  and  C_15
REMARK    7  A    between atoms: C_15  and  C_16
REMARK                            x       y       z     vdW  Elec       q    Type
REMARK                         _______ _______ _______ _____ _____    ______ ____
ROOT
ATOM      1  C   UNL     1      46.865   5.383  13.917  0.00  0.00    +0.000 A 
ATOM      2  C   UNL     1      46.749   6.274  12.848  0.00  0.00    +0.000 A 
ATOM      3  C   UNL     1      45.772   6.064  11.875  0.00  0.00    +0.000 A 
ATOM      4  C   UNL     1      44.945   4.946  11.951  0.00  0.00    +0.000 A 
ATOM      5  C   UNL     1      45.117   4.120  13.058  0.00  0.00    +0.000 A 
ATOM      6  N   UNL     1      46.049   4.305  14.021  0.00  0.00    +0.000 NA
ENDROOT
BRANCH   1   7
ATOM      7  C   UNL     1      47.964   5.557  14.973  0.00  0.00    +0.000 C 
BRANCH   7   8
ATOM      8  N   UNL     1      48.096   6.973  15.401  0.00  0.00    +0.000 NA
ATOM      9  H   UNL     1      49.042   7.067  15.799  0.00  0.00    +0.000 HD
ATOM     10  H   UNL     1      47.489   7.115  16.208  0.00  0.00    +0.000 HD
ENDBRANCH   7   8
BRANCH   7  11
ATOM     11  C   UNL     1      47.738   4.605  16.181  0.00  0.00    +0.000 C 
BRANCH  11  12
ATOM     12  C   UNL     1      48.995   3.930  16.683  0.00  0.00    +0.000 A 
ATOM     13  C   UNL     1      49.078   2.539  16.763  0.00  0.00    +0.000 A 
ATOM     14  C   UNL     1      50.246   1.961  17.257  0.00  0.00    +0.000 A 
ATOM     15  C   UNL     1      51.288   2.775  17.671  0.00  0.00    +0.000 A 
ATOM     16  C   UNL     1      51.126   4.145  17.574  0.00  0.00    +0.000 A 
ATOM     17  N   UNL     1      50.005   4.735  17.094  0.00  0.00    +0.000 NA
ENDBRANCH  11  12
ENDBRANCH   7  11
ENDBRANCH   1   7
BRANCH   4  18
ATOM     18  C   UNL     1      43.863   4.638  10.950  0.00  0.00    +0.000 C 
BRANCH  18  19
ATOM     19  C   UNL     1      43.901   3.227  10.337  0.00  0.00    +0.000 C 
BRANCH  19  20
ATOM     20  C   UNL     1      44.960   3.155   9.272  0.00  0.00    +0.000 A 
ATOM     21  C   UNL     1      45.315   4.295   8.545  0.00  0.00    +0.000 A 
ATOM     22  N   UNL     1      46.081   4.275   7.431  0.00  0.00    +0.000 NA
ATOM     23  C   UNL     1      46.553   3.075   7.031  0.00  0.00    +0.000 A 
ATOM     24  N   UNL     1      47.172   3.084   5.775  0.00  0.00    +0.000 NA
ATOM     25  C   UNL     1      47.631   1.965   5.342  0.00  0.00    +0.000 A 
ATOM     26  N   UNL     1      47.595   0.796   6.044  0.00  0.00    +0.000 N 
ATOM     27  C   UNL     1      46.969   0.682   7.254  0.00  0.00    +0.000 A 
ATOM     28  O   UNL     1      46.908  -0.368   7.874  0.00  0.00    +0.000 OA
ATOM     29  C   UNL     1      46.351   1.917   7.765  0.00  0.00    +0.000 A 
ATOM     30  C   UNL     1      45.537   1.943   8.889  0.00  0.00    +0.000 A 
ATOM     31  H   UNL     1      48.015  -0.044   5.676  0.00  0.00    +0.000 HD
ENDBRANCH  19  20
ENDBRANCH  18  19
ENDBRANCH   4  18
TORSDOF 7
ENDMDL
MODEL 2
REMARK VINA RESULT:    -8.517      2.961      9.543
REMARK INTER + INTRA:         -12.644
REMARK INTER:                 -11.597
REMARK INTRA:                  -1.047
REMARK UNBOUND:                -0.891
REMARK  Name = 
REMARK  7 active torsions:
REMARK  status: ('A' for Active; 'I' for Inactive)
REMARK    1  A    between atoms: N_1  and  C_2
REMARK    2  A    between atoms: C_2  and  C_3
REMARK    3  A    between atoms: C_2  and  C_10
REMARK    4  A    between atoms: C_3  and  C_4
REMARK    5  A    between atoms: C_13  and  C_14
REMARK    6  A    between atoms: C_14  and  C_15
REMARK    7  A    between atoms: C_15  and  C_16
REMARK                            x       y       z     vdW  Elec       q    Type
REMARK                         _______ _______ _______ _____ _____    ______ ____
ROOT
ATOM      1  C   UNL     1      46.474   2.650   7.210  0.00  0.00    +0.000 A 
ATOM      2  C   UNL     1      46.036   1.681   8.115  0.00  0.00    +0.000 A 
ATOM      3  C   UNL     1      45.183   2.042   9.157  0.00  0.00    +0.000 A 
ATOM      4  C   UNL     1      44.804   3.373   9.315  0.00  0.00    +0.000 A 
ATOM      5  C   UNL     1      45.273   4.270   8.360  0.00  0.00    +0.000 A 
ATOM      6  N   UNL     1      46.093   3.946   7.334  0.00  0.00    +0.000 NA
ENDROOT
BRANCH   1   7
ATOM      7  C   UNL     1      47.456   2.294   6.087  0.00  0.00    +0.000 C 
BRANCH   7   8
ATOM      8  N   UNL     1      48.814   2.833   6.352  0.00  0.00    +0.000 NA
ATOM      9  H   UNL     1      48.803   3.177   7.323  0.00  0.00    +0.000 HD
ATOM     10  H   UNL     1      48.926   3.686   5.804  0.00  0.00    +0.000 HD
ENDBRANCH   7   8
BRANCH   7  11
ATOM     11  C   UNL     1      47.481   0.761   5.829  0.00  0.00    +0.000 C 
BRANCH  11  12
ATOM     12  C   UNL     1      46.881   0.345   4.503  0.00  0.00    +0.000 A 
ATOM     13  C   UNL     1      46.203   1.267   3.703  0.00  0.00    +0.000 A 
ATOM     14  C   UNL     1      45.643   0.834   2.503  0.00  0.00    +0.000 A 
ATOM     15  C   UNL     1      45.758  -0.499   2.138  0.00  0.00    +0.000 A 
ATOM     16  C   UNL     1      46.431  -1.354   2.989  0.00  0.00    +0.000 A 
ATOM     17  N   UNL     1      46.990  -0.962   4.159  0.00  0.00    +0.000 NA
ENDBRANCH  11  12
ENDBRANCH   7  11
ENDBRANCH   1   7
BRANCH   4  18
ATOM     18  C   UNL     1      43.887   3.857  10.407  0.00  0.00    +0.000 C 
BRANCH  18  19
ATOM     19  C   UNL     1      44.154   3.282  11.809  0.00  0.00    +0.000 C 
BRANCH  19  20
ATOM     20  C   UNL     1      45.345   3.960  12.428  0.00  0.00    +0.000 A 
ATOM     21  C   UNL     1      46.257   3.231  13.196  0.00  0.00    +0.000 A 
ATOM     22  N   UNL     1      47.217   3.791  13.967  0.00  0.00    +0.000 NA
ATOM     23  C   UNL     1      47.307   5.139  13.954  0.00  0.00    +0.000 A 
ATOM     24  N   UNL     1      48.179   5.671  14.910  0.00  0.00    +0.000 NA
ATOM     25  C   UNL     1      48.296   6.950  14.947  0.00  0.00    +0.000 A 
ATOM     26  N   UNL     1      47.665   7.805  14.090  0.00  0.00    +0.000 N 
ATOM     27  C   UNL     1      46.760   7.378  13.159  0.00  0.00    +0.000 A 
ATOM     28  O   UNL     1      46.171   8.140  12.408  0.00  0.00    +0.000 OA
ATOM     29  C   UNL     1      46.523   5.925  13.125  0.00  0.00    +0.000 A 
ATOM     30  C   UNL     1      45.521   5.343  12.361  0.00  0.00    +0.000 A 
ATOM     31  H   UNL     1      47.830   8.799  14.132  0.00  0.00    +0.000 HD
ENDBRANCH  19  20
ENDBRANCH  18  19
ENDBRANCH   4  18
TORSDOF 7
ENDMDL
MODEL 3
REMARK VINA RESULT:    -8.440      3.070      3.897
REMARK INTER + INTRA:         -12.539
REMARK INTER:                 -11.325
REMARK INTRA:                  -1.213
REMARK UNBOUND:                -0.891
REMARK  Name = 
REMARK  7 active torsions:
REMARK  status: ('A' for Active; 'I' for Inactive)
REMARK    1  A    between atoms: N_1  and  C_2
REMARK    2  A    between atoms: C_2  and  C_3
REMARK    3  A    between atoms: C_2  and  C_10
REMARK    4  A    between atoms: C_3  and  C_4
REMARK    5  A    between atoms: C_13  and  C_14
REMARK    6  A    between atoms: C_14  and  C_15
REMARK    7  A    between atoms: C_15  and  C_16
REMARK                            x       y       z     vdW  Elec       q    Type
REMARK                         _______ _______ _______ _____ _____    ______ ____
ROOT
ATOM      1  C   UNL     1      45.896   7.378  12.914  0.00  0.00    +0.000 A 
ATOM      2  C   UNL     1      44.766   7.224  12.108  0.00  0.00    +0.000 A 
ATOM      3  C   UNL     1      44.339   5.945  11.751  0.00  0.00    +0.000 A 
ATOM      4  C   UNL     1      45.064   4.830  12.166  0.00  0.00    +0.000 A 
ATOM      5  C   UNL     1      46.167   5.073  12.980  0.00  0.00    +0.000 A 
ATOM      6  N   UNL     1      46.598   6.302  13.348  0.00  0.00    +0.000 NA
ENDROOT
BRANCH   1   7
ATOM      7  C   UNL     1      46.421   8.773  13.277  0.00  0.00    +0.000 C 
BRANCH   7   8
ATOM      8  N   UNL     1      47.258   8.744  14.503  0.00  0.00    +0.000 NA
ATOM      9  H   UNL     1      48.110   8.218  14.258  0.00  0.00    +0.000 HD
ATOM     10  H   UNL     1      46.798   8.137  15.182  0.00  0.00    +0.000 HD
ENDBRANCH   7   8
BRANCH   7  11
ATOM     11  C   UNL     1      47.171   9.420  12.078  0.00  0.00    +0.000 C 
BRANCH  11  12
ATOM     12  C   UNL     1      48.651   9.109  12.033  0.00  0.00    +0.000 A 
ATOM     13  C   UNL     1      49.122   7.957  11.402  0.00  0.00    +0.000 A 
ATOM     14  C   UNL     1      50.492   7.697  11.408  0.00  0.00    +0.000 A 
ATOM     15  C   UNL     1      51.350   8.576  12.050  0.00  0.00    +0.000 A 
ATOM     16  C   UNL     1      50.807   9.688  12.665  0.00  0.00    +0.000 A 
ATOM     17  N   UNL     1      49.482   9.970  12.672  0.00  0.00    +0.000 NA
ENDBRANCH  11  12
ENDBRANCH   7  11
ENDBRANCH   1   7
BRANCH   4  18
ATOM     18  C   UNL     1      44.680   3.413  11.833  0.00  0.00    +0.000 C 
BRANCH  18  19
ATOM     19  C   UNL     1      43.965   3.212  10.485  0.00  0.00    +0.000 C 
BRANCH  19  20
ATOM     20  C   UNL     1      44.973   3.154   9.370  0.00  0.00    +0.000 A 
ATOM     21  C   UNL     1      45.282   4.300   8.632  0.00  0.00    +0.000 A 
ATOM     22  N   UNL     1      45.994   4.292   7.483  0.00  0.00    +0.000 NA
ATOM     23  C   UNL     1      46.457   3.098   7.055  0.00  0.00    +0.000 A 
ATOM     24  N   UNL     1      47.014   3.118   5.771  0.00  0.00    +0.000 NA
ATOM     25  C   UNL     1      47.462   2.005   5.311  0.00  0.00    +0.000 A 
ATOM     26  N   UNL     1      47.470   0.832   6.009  0.00  0.00    +0.000 N 
ATOM     27  C   UNL     1      46.904   0.708   7.246  0.00  0.00    +0.000 A 
ATOM     28  O   UNL     1      46.882  -0.345   7.863  0.00  0.00    +0.000 OA
ATOM     29  C   UNL     1      46.300   1.935   7.792  0.00  0.00    +0.000 A 
ATOM     30  C   UNL     1      45.542   1.949   8.954  0.00  0.00    +0.000 A 
ATOM     31  H   UNL     1      47.879  -0.003   5.616  0.00  0.00    +0.000 HD
ENDBRANCH  19  20
ENDBRANCH  18  19
ENDBRANCH   4  18
TORSDOF 7
ENDMDL
MODEL 4
REMARK VINA RESULT:    -8.374      2.133      3.667
REMARK INTER + INTRA:         -12.447
REMARK INTER:                 -11.817
REMARK INTRA:                  -0.630
REMARK UNBOUND:                -0.891
REMARK  Name = 
REMARK  7 active torsions:
REMARK  status: ('A' for Active; 'I' for Inactive)
REMARK    1  A    between atoms: N_1  and  C_2
REMARK    2  A    between atoms: C_2  and  C_3
REMARK    3  A    between atoms: C_2  and  C_10
REMARK    4  A    between atoms: C_3  and  C_4
REMARK    5  A    between atoms: C_13  and  C_14
REMARK    6  A    between atoms: C_14  and  C_15
REMARK    7  A    between atoms: C_15  and  C_16
REMARK                            x       y       z     vdW  Elec       q    Type
REMARK                         _______ _______ _______ _____ _____    ______ ____
ROOT
ATOM      1  C   UNL     1      47.793   4.488  15.954  0.00  0.00    +0.000 A 
ATOM      2  C   UNL     1      48.397   5.747  15.978  0.00  0.00    +0.000 A 
ATOM      3  C   UNL     1      48.254   6.604  14.888  0.00  0.00    +0.000 A 
ATOM      4  C   UNL     1      47.544   6.187  13.765  0.00  0.00    +0.000 A 
ATOM      5  C   UNL     1      46.961   4.925  13.831  0.00  0.00    +0.000 A 
ATOM      6  N   UNL     1      47.076   4.077  14.879  0.00  0.00    +0.000 NA
ENDROOT
BRANCH   1   7
ATOM      7  C   UNL     1      47.979   3.502  17.115  0.00  0.00    +0.000 C 
BRANCH   7   8
ATOM      8  N   UNL     1      46.677   3.085  17.695  0.00  0.00    +0.000 NA
ATOM      9  H   UNL     1      46.565   2.087  17.465  0.00  0.00    +0.000 HD
ATOM     10  H   UNL     1      45.935   3.532  17.157  0.00  0.00    +0.000 HD
ENDBRANCH   7   8
BRANCH   7  11
ATOM     11  C   UNL     1      48.839   2.282  16.682  0.00  0.00    +0.000 C 
BRANCH  11  12
ATOM     12  C   UNL     1      50.252   2.296  17.221  0.00  0.00    +0.000 A 
ATOM     13  C   UNL     1      50.791   3.453  17.788  0.00  0.00    +0.000 A 
ATOM     14  C   UNL     1      52.107   3.429  18.247  0.00  0.00    +0.000 A 
ATOM     15  C   UNL     1      52.853   2.268  18.117  0.00  0.00    +0.000 A 
ATOM     16  C   UNL     1      52.255   1.168  17.532  0.00  0.00    +0.000 A 
ATOM     17  N   UNL     1      50.978   1.160  17.081  0.00  0.00    +0.000 NA
ENDBRANCH  11  12
ENDBRANCH   7  11
ENDBRANCH   1   7
BRANCH   4  18
ATOM     18  C   UNL     1      47.334   7.042  12.543  0.00  0.00    +0.000 C 
BRANCH  18  19
ATOM     19  C   UNL     1      45.871   7.375  12.202  0.00  0.00    +0.000 C 
BRANCH  19  20
ATOM     20  C   UNL     1      45.253   6.247  11.422  0.00  0.00    +0.000 A 
ATOM     21  C   UNL     1      44.189   5.515  11.956  0.00  0.00    +0.000 A 
ATOM     22  N   UNL     1      43.728   4.357  11.432  0.00  0.00    +0.000 NA
ATOM     23  C   UNL     1      44.322   3.913  10.303  0.00  0.00    +0.000 A 
ATOM     24  N   UNL     1      43.942   2.623   9.915  0.00  0.00    +0.000 NA
ATOM     25  C   UNL     1      44.484   2.149   8.851  0.00  0.00    +0.000 A 
ATOM     26  N   UNL     1      45.359   2.838   8.062  0.00  0.00    +0.000 N 
ATOM     27  C   UNL     1      45.823   4.081   8.388  0.00  0.00    +0.000 A 
ATOM     28  O   UNL     1      46.627   4.691   7.701  0.00  0.00    +0.000 OA
ATOM     29  C   UNL     1      45.297   4.644   9.643  0.00  0.00    +0.000 A 
ATOM     30  C   UNL     1      45.785   5.815  10.206  0.00  0.00    +0.000 A 
ATOM     31  H   UNL     1      45.718   2.435   7.210  0.00  0.00    +0.000 HD
ENDBRANCH  19  20
ENDBRANCH  18  19
ENDBRANCH   4  18
TORSDOF 7
ENDMDL
MODEL 5
REMARK VINA RESULT:    -8.260      1.829      2.227
REMARK INTER + INTRA:         -12.290
REMARK INTER:                 -11.132
REMARK INTRA:                  -1.157
REMARK UNBOUND:                -0.891
REMARK  Name = 
REMARK  7 active torsions:
REMARK  status: ('A' for Active; 'I' for Inactive)
REMARK    1  A    between atoms: N_1  and  C_2
REMARK    2  A    between atoms: C_2  and  C_3
REMARK    3  A    between atoms: C_2  and  C_10
REMARK    4  A    between atoms: C_3  and  C_4
REMARK    5  A    between atoms: C_13  and  C_14
REMARK    6  A    between atoms: C_14  and  C_15
REMARK    7  A    between atoms: C_15  and  C_16
REMARK                            x       y       z     vdW  Elec       q    Type
REMARK                         _______ _______ _______ _____ _____    ______ ____
ROOT
ATOM      1  C   UNL     1      46.952   6.428  13.360  0.00  0.00    +0.000 A 
ATOM      2  C   UNL     1      45.683   6.715  12.855  0.00  0.00    +0.000 A 
ATOM      3  C   UNL     1      44.859   5.677  12.422  0.00  0.00    +0.000 A 
ATOM      4  C   UNL     1      45.320   4.363  12.457  0.00  0.00    +0.000 A 
ATOM      5  C   UNL     1      46.590   4.165  12.990  0.00  0.00    +0.000 A 
ATOM      6  N   UNL     1      47.407   5.152  13.426  0.00  0.00    +0.000 NA
ENDROOT
BRANCH   1   7
ATOM      7  C   UNL     1      47.902   7.553  13.792  0.00  0.00    +0.000 C 
BRANCH   7   8
ATOM      8  N   UNL     1      47.177   8.649  14.484  0.00  0.00    +0.000 NA
ATOM      9  H   UNL     1      47.391   9.511  13.962  0.00  0.00    +0.000 HD
ATOM     10  H   UNL     1      47.628   8.804  15.385  0.00  0.00    +0.000 HD
ENDBRANCH   7   8
BRANCH   7  11
ATOM     11  C   UNL     1      49.073   6.999  14.652  0.00  0.00    +0.000 C 
BRANCH  11  12
ATOM     12  C   UNL     1      48.788   6.963  16.138  0.00  0.00    +0.000 A 
ATOM     13  C   UNL     1      48.439   5.770  16.771  0.00  0.00    +0.000 A 
ATOM     14  C   UNL     1      48.159   5.788  18.137  0.00  0.00    +0.000 A 
ATOM     15  C   UNL     1      48.217   6.987  18.829  0.00  0.00    +0.000 A 
ATOM     16  C   UNL     1      48.556   8.130  18.129  0.00  0.00    +0.000 A 
ATOM     17  N   UNL     1      48.838   8.143  16.804  0.00  0.00    +0.000 NA
ENDBRANCH  11  12
ENDBRANCH   7  11
ENDBRANCH   1   7
BRANCH   4  18
ATOM     18  C   UNL     1      44.504   3.179  12.014  0.00  0.00    +0.000 C 
BRANCH  18  19
ATOM     19  C   UNL     1      43.836   3.304  10.633  0.00  0.00    +0.000 C 
BRANCH  19  20
ATOM     20  C   UNL     1      44.878   3.257   9.549  0.00  0.00    +0.000 A 
ATOM     21  C   UNL     1      45.241   4.418   8.862  0.00  0.00    +0.000 A 
ATOM     22  N   UNL     1      45.990   4.430   7.736  0.00  0.00    +0.000 NA
ATOM     23  C   UNL     1      46.436   3.239   7.282  0.00  0.00    +0.000 A 
ATOM     24  N   UNL     1      47.036   3.287   6.018  0.00  0.00    +0.000 NA
ATOM     25  C   UNL     1      47.470   2.178   5.535  0.00  0.00    +0.000 A 
ATOM     26  N   UNL     1      47.425   0.983   6.192  0.00  0.00    +0.000 N 
ATOM     27  C   UNL     1      46.815   0.833   7.406  0.00  0.00    +0.000 A 
ATOM     28  O   UNL     1      46.746  -0.240   7.985  0.00  0.00    +0.000 OA
ATOM     29  C   UNL     1      46.225   2.057   7.973  0.00  0.00    +0.000 A 
ATOM     30  C   UNL     1      45.430   2.052   9.111  0.00  0.00    +0.000 A 
ATOM     31  H   UNL     1      47.825   0.151   5.785  0.00  0.00    +0.000 HD
ENDBRANCH  19  20
ENDBRANCH  18  19
ENDBRANCH   4  18
TORSDOF 7
ENDMDL
MODEL 6
REMARK VINA RESULT:    -7.939      2.616      9.122
REMARK INTER + INTRA:         -11.847
REMARK INTER:                 -11.183
REMARK INTRA:                  -0.664
REMARK UNBOUND:                -0.891
REMARK  Name = 
REMARK  7 active torsions:
REMARK  status: ('A' for Active; 'I' for Inactive)
REMARK    1  A    between atoms: N_1  and  C_2
REMARK    2  A    between atoms: C_2  and  C_3
REMARK    3  A    between atoms: C_2  and  C_10
REMARK    4  A    between atoms: C_3  and  C_4
REMARK    5  A    between atoms: C_13  and  C_14
REMARK    6  A    between atoms: C_14  and  C_15
REMARK    7  A    between atoms: C_15  and  C_16
REMARK                            x       y       z     vdW  Elec       q    Type
REMARK                         _______ _______ _______ _____ _____    ______ ____
ROOT
ATOM      1  C   UNL     1      45.209   4.415  11.384  0.00  0.00    +0.000 A 
ATOM      2  C   UNL     1      45.651   5.570  10.736  0.00  0.00    +0.000 A 
ATOM      3  C   UNL     1      46.375   6.527  11.444  0.00  0.00    +0.000 A 
ATOM      4  C   UNL     1      46.621   6.347  12.803  0.00  0.00    +0.000 A 
ATOM      5  C   UNL     1      46.159   5.161  13.367  0.00  0.00    +0.000 A 
ATOM      6  N   UNL     1      45.462   4.212  12.701  0.00  0.00    +0.000 NA
ENDROOT
BRANCH   1   7
ATOM      7  C   UNL     1      44.362   3.370  10.645  0.00  0.00    +0.000 C 
BRANCH   7   8
ATOM      8  N   UNL     1      43.005   3.245  11.235  0.00  0.00    +0.000 NA
ATOM      9  H   UNL     1      42.879   2.246  11.457  0.00  0.00    +0.000 HD
ATOM     10  H   UNL     1      42.324   3.405  10.493  0.00  0.00    +0.000 HD
ENDBRANCH   7   8
BRANCH   7  11
ATOM     11  C   UNL     1      44.306   3.671   9.120  0.00  0.00    +0.000 C 
BRANCH  11  12
ATOM     12  C   UNL     1      45.428   3.043   8.323  0.00  0.00    +0.000 A 
ATOM     13  C   UNL     1      45.780   1.706   8.511  0.00  0.00    +0.000 A 
ATOM     14  C   UNL     1      46.838   1.177   7.774  0.00  0.00    +0.000 A 
ATOM     15  C   UNL     1      47.525   1.990   6.887  0.00  0.00    +0.000 A 
ATOM     16  C   UNL     1      47.127   3.308   6.766  0.00  0.00    +0.000 A 
ATOM     17  N   UNL     1      46.101   3.849   7.465  0.00  0.00    +0.000 NA
ENDBRANCH  11  12
ENDBRANCH   7  11
ENDBRANCH   1   7
BRANCH   4  18
ATOM     18  C   UNL     1      47.394   7.323  13.650  0.00  0.00    +0.000 C 
BRANCH  18  19
ATOM     19  C   UNL     1      48.784   6.852  14.114  0.00  0.00    +0.000 C 
BRANCH  19  20
ATOM     20  C   UNL     1      48.755   6.531  15.584  0.00  0.00    +0.000 A 
ATOM     21  C   UNL     1      49.485   7.301  16.493  0.00  0.00    +0.000 A 
ATOM     22  N   UNL     1      49.698   6.953  17.782  0.00  0.00    +0.000 NA
ATOM     23  C   UNL     1      49.132   5.803  18.209  0.00  0.00    +0.000 A 
ATOM     24  N   UNL     1      49.542   5.393  19.484  0.00  0.00    +0.000 NA
ATOM     25  C   UNL     1      49.040   4.300  19.935  0.00  0.00    +0.000 A 
ATOM     26  N   UNL     1      48.109   3.551  19.275  0.00  0.00    +0.000 N 
ATOM     27  C   UNL     1      47.689   3.847  18.009  0.00  0.00    +0.000 A 
ATOM     28  O   UNL     1      46.878   3.165  17.402  0.00  0.00    +0.000 OA
ATOM     29  C   UNL     1      48.293   5.048  17.406  0.00  0.00    +0.000 A 
ATOM     30  C   UNL     1      48.106   5.398  16.076  0.00  0.00    +0.000 A 
ATOM     31  H   UNL     1      47.712   2.725  19.698  0.00  0.00    +0.000 HD
ENDBRANCH  19  20
ENDBRANCH  18  19
ENDBRANCH   4  18
TORSDOF 7
ENDMDL
MODEL 7
REMARK VINA RESULT:    -7.832      3.476      8.898
REMARK INTER + INTRA:         -11.699
REMARK INTER:                 -10.721
REMARK INTRA:                  -0.978
REMARK UNBOUND:                -0.891
REMARK  Name = 
REMARK  7 active torsions:
REMARK  status: ('A' for Active; 'I' for Inactive)
REMARK    1  A    between atoms: N_1  and  C_2
REMARK    2  A    between atoms: C_2  and  C_3
REMARK    3  A    between atoms: C_2  and  C_10
REMARK    4  A    between atoms: C_3  and  C_4
REMARK    5  A    between atoms: C_13  and  C_14
REMARK    6  A    between atoms: C_14  and  C_15
REMARK    7  A    between atoms: C_15  and  C_16
REMARK                            x       y       z     vdW  Elec       q    Type
REMARK                         _______ _______ _______ _____ _____    ______ ____
ROOT
ATOM      1  C   UNL     1      44.905   4.454  11.185  0.00  0.00    +0.000 A 
ATOM      2  C   UNL     1      45.475   5.445  10.385  0.00  0.00    +0.000 A 
ATOM      3  C   UNL     1      45.670   6.726  10.902  0.00  0.00    +0.000 A 
ATOM      4  C   UNL     1      45.258   7.020  12.200  0.00  0.00    +0.000 A 
ATOM      5  C   UNL     1      44.714   5.970  12.933  0.00  0.00    +0.000 A 
ATOM      6  N   UNL     1      44.522   4.717  12.459  0.00  0.00    +0.000 NA
ENDROOT
BRANCH   1   7
ATOM      7  C   UNL     1      44.628   3.052  10.626  0.00  0.00    +0.000 C 
BRANCH   7   8
ATOM      8  N   UNL     1      43.484   2.402  11.314  0.00  0.00    +0.000 NA
ATOM      9  H   UNL     1      42.860   3.164  11.619  0.00  0.00    +0.000 HD
ATOM     10  H   UNL     1      43.825   2.015  12.194  0.00  0.00    +0.000 HD
ENDBRANCH   7   8
BRANCH   7  11
ATOM     11  C   UNL     1      44.431   3.091   9.085  0.00  0.00    +0.000 C 
BRANCH  11  12
ATOM     12  C   UNL     1      45.596   2.533   8.296  0.00  0.00    +0.000 A 
ATOM     13  C   UNL     1      46.338   3.348   7.440  0.00  0.00    +0.000 A 
ATOM     14  C   UNL     1      47.385   2.785   6.713  0.00  0.00    +0.000 A 
ATOM     15  C   UNL     1      47.656   1.432   6.843  0.00  0.00    +0.000 A 
ATOM     16  C   UNL     1      46.867   0.687   7.699  0.00  0.00    +0.000 A 
ATOM     17  N   UNL     1      45.847   1.207   8.423  0.00  0.00    +0.000 NA
ENDBRANCH  11  12
ENDBRANCH   7  11
ENDBRANCH   1   7
BRANCH   4  18
ATOM     18  C   UNL     1      45.427   8.371  12.844  0.00  0.00    +0.000 C 
BRANCH  18  19
ATOM     19  C   UNL     1      46.803   9.034  12.656  0.00  0.00    +0.000 C 
BRANCH  19  20
ATOM     20  C   UNL     1      47.803   8.425  13.600  0.00  0.00    +0.000 A 
ATOM     21  C   UNL     1      48.582   7.335  13.203  0.00  0.00    +0.000 A 
ATOM     22  N   UNL     1      49.331   6.591  14.048  0.00  0.00    +0.000 NA
ATOM     23  C   UNL     1      49.344   6.961  15.346  0.00  0.00    +0.000 A 
ATOM     24  N   UNL     1      49.972   6.050  16.204  0.00  0.00    +0.000 NA
ATOM     25  C   UNL     1      50.004   6.350  17.453  0.00  0.00    +0.000 A 
ATOM     26  N   UNL     1      49.512   7.509  17.978  0.00  0.00    +0.000 N 
ATOM     27  C   UNL     1      48.840   8.432  17.226  0.00  0.00    +0.000 A 
ATOM     28  O   UNL     1      48.372   9.457  17.695  0.00  0.00    +0.000 OA
ATOM     29  C   UNL     1      48.700   8.102  15.797  0.00  0.00    +0.000 A 
ATOM     30  C   UNL     1      47.909   8.841  14.928  0.00  0.00    +0.000 A 
ATOM     31  H   UNL     1      49.607   7.716  18.961  0.00  0.00    +0.000 HD
ENDBRANCH  19  20
ENDBRANCH  18  19
ENDBRANCH   4  18
TORSDOF 7
ENDMDL
MODEL 8
REMARK VINA RESULT:    -7.811      2.267      3.068
REMARK INTER + INTRA:         -11.670
REMARK INTER:                 -10.846
REMARK INTRA:                  -0.824
REMARK UNBOUND:                -0.891
REMARK  Name = 
REMARK  7 active torsions:
REMARK  status: ('A' for Active; 'I' for Inactive)
REMARK    1  A    between atoms: N_1  and  C_2
REMARK    2  A    between atoms: C_2  and  C_3
REMARK    3  A    between atoms: C_2  and  C_10
REMARK    4  A    between atoms: C_3  and  C_4
REMARK    5  A    between atoms: C_13  and  C_14
REMARK    6  A    between atoms: C_14  and  C_15
REMARK    7  A    between atoms: C_15  and  C_16
REMARK                            x       y       z     vdW  Elec       q    Type
REMARK                         _______ _______ _______ _____ _____    ______ ____
ROOT
ATOM      1  C   UNL     1      47.100   4.735  14.766  0.00  0.00    +0.000 A 
ATOM      2  C   UNL     1      47.596   5.899  14.176  0.00  0.00    +0.000 A 
ATOM      3  C   UNL     1      47.038   6.364  12.986  0.00  0.00    +0.000 A 
ATOM      4  C   UNL     1      46.016   5.645  12.370  0.00  0.00    +0.000 A 
ATOM      5  C   UNL     1      45.571   4.506  13.034  0.00  0.00    +0.000 A 
ATOM      6  N   UNL     1      46.088   4.037  14.193  0.00  0.00    +0.000 NA
ENDROOT
BRANCH   1   7
ATOM      7  C   UNL     1      47.730   4.168  16.045  0.00  0.00    +0.000 C 
BRANCH   7   8
ATOM      8  N   UNL     1      48.281   2.806  15.830  0.00  0.00    +0.000 NA
ATOM      9  H   UNL     1      49.290   2.869  16.026  0.00  0.00    +0.000 HD
ATOM     10  H   UNL     1      48.250   2.609  14.830  0.00  0.00    +0.000 HD
ENDBRANCH   7   8
BRANCH   7  11
ATOM     11  C   UNL     1      48.796   5.141  16.623  0.00  0.00    +0.000 C 
BRANCH  11  12
ATOM     12  C   UNL     1      48.349   5.886  17.862  0.00  0.00    +0.000 A 
ATOM     13  C   UNL     1      48.258   7.279  17.866  0.00  0.00    +0.000 A 
ATOM     14  C   UNL     1      47.868   7.926  19.037  0.00  0.00    +0.000 A 
ATOM     15  C   UNL     1      47.597   7.177  20.171  0.00  0.00    +0.000 A 
ATOM     16  C   UNL     1      47.724   5.803  20.094  0.00  0.00    +0.000 A 
ATOM     17  N   UNL     1      48.095   5.146  18.969  0.00  0.00    +0.000 NA
ENDBRANCH  11  12
ENDBRANCH   7  11
ENDBRANCH   1   7
BRANCH   4  18
ATOM     18  C   UNL     1      45.352   6.069  11.087  0.00  0.00    +0.000 C 
BRANCH  18  19
ATOM     19  C   UNL     1      44.114   5.254  10.673  0.00  0.00    +0.000 C 
BRANCH  19  20
ATOM     20  C   UNL     1      44.526   4.095   9.806  0.00  0.00    +0.000 A 
ATOM     21  C   UNL     1      44.239   2.783  10.191  0.00  0.00    +0.000 A 
ATOM     22  N   UNL     1      44.762   1.687   9.597  0.00  0.00    +0.000 NA
ATOM     23  C   UNL     1      45.585   1.891   8.546  0.00  0.00    +0.000 A 
ATOM     24  N   UNL     1      46.248   0.743   8.096  0.00  0.00    +0.000 NA
ATOM     25  C   UNL     1      47.050   0.884   7.102  0.00  0.00    +0.000 A 
ATOM     26  N   UNL     1      47.254   2.059   6.439  0.00  0.00    +0.000 N 
ATOM     27  C   UNL     1      46.688   3.237   6.838  0.00  0.00    +0.000 A 
ATOM     28  O   UNL     1      46.889   4.297   6.266  0.00  0.00    +0.000 OA
ATOM     29  C   UNL     1      45.821   3.153   8.025  0.00  0.00    +0.000 A 
ATOM     30  C   UNL     1      45.303   4.273   8.660  0.00  0.00    +0.000 A 
ATOM     31  H   UNL     1      47.859   2.102   5.633  0.00  0.00    +0.000 HD
ENDBRANCH  19  20
ENDBRANCH  18  19
ENDBRANCH   4  18
TORSDOF 7
ENDMDL
MODEL 9
REMARK VINA RESULT:    -7.553      3.043      9.233
REMARK INTER + INTRA:         -11.315
REMARK INTER:                 -10.302
REMARK INTRA:                  -1.013
REMARK UNBOUND:                -0.891
REMARK  Name = 
REMARK  7 active torsions:
REMARK  status: ('A' for Active; 'I' for Inactive)
REMARK    1  A    between atoms: N_1  and  C_2
REMARK    2  A    between atoms: C_2  and  C_3
REMARK    3  A    between atoms: C_2  and  C_10
REMARK    4  A    between atoms: C_3  and  C_4
REMARK    5  A    between atoms: C_13  and  C_14
REMARK    6  A    between atoms: C_14  and  C_15
REMARK    7  A    between atoms: C_15  and  C_16
REMARK                            x       y       z     vdW  Elec       q    Type
REMARK                         _______ _______ _______ _____ _____    ______ ____
ROOT
ATOM      1  C   UNL     1      45.084   5.471  12.676  0.00  0.00    +0.000 A 
ATOM      2  C   UNL     1      45.288   6.840  12.496  0.00  0.00    +0.000 A 
ATOM      3  C   UNL     1      46.534   7.398  12.780  0.00  0.00    +0.000 A 
ATOM      4  C   UNL     1      47.557   6.595  13.278  0.00  0.00    +0.000 A 
ATOM      5  C   UNL     1      47.275   5.239  13.411  0.00  0.00    +0.000 A 
ATOM      6  N   UNL     1      46.078   4.670  13.135  0.00  0.00    +0.000 NA
ENDROOT
BRANCH   1   7
ATOM      7  C   UNL     1      43.709   4.839  12.425  0.00  0.00    +0.000 C 
BRANCH   7   8
ATOM      8  N   UNL     1      42.669   5.413  13.316  0.00  0.00    +0.000 NA
ATOM      9  H   UNL     1      42.733   6.436  13.210  0.00  0.00    +0.000 HD
ATOM     10  H   UNL     1      42.963   5.260  14.281  0.00  0.00    +0.000 HD
ENDBRANCH   7   8
BRANCH   7  11
ATOM     11  C   UNL     1      43.310   4.941  10.926  0.00  0.00    +0.000 C 
BRANCH  11  12
ATOM     12  C   UNL     1      44.170   4.112   9.997  0.00  0.00    +0.000 A 
ATOM     13  C   UNL     1      45.081   4.719   9.132  0.00  0.00    +0.000 A 
ATOM     14  C   UNL     1      45.833   3.918   8.275  0.00  0.00    +0.000 A 
ATOM     15  C   UNL     1      45.649   2.544   8.288  0.00  0.00    +0.000 A 
ATOM     16  C   UNL     1      44.717   2.018   9.163  0.00  0.00    +0.000 A 
ATOM     17  N   UNL     1      43.976   2.770  10.011  0.00  0.00    +0.000 NA
ENDBRANCH  11  12
ENDBRANCH   7  11
ENDBRANCH   1   7
BRANCH   4  18
ATOM     18  C   UNL     1      48.934   7.106  13.611  0.00  0.00    +0.000 C 
BRANCH  18  19
ATOM     19  C   UNL     1      49.006   8.153  14.736  0.00  0.00    +0.000 C 
BRANCH  19  20
ATOM     20  C   UNL     1      48.899   7.478  16.077  0.00  0.00    +0.000 A 
ATOM     21  C   UNL     1      48.472   8.194  17.199  0.00  0.00    +0.000 A 
ATOM     22  N   UNL     1      48.562   7.736  18.468  0.00  0.00    +0.000 NA
ATOM     23  C   UNL     1      49.065   6.494  18.640  0.00  0.00    +0.000 A 
ATOM     24  N   UNL     1      49.316   6.149  19.973  0.00  0.00    +0.000 NA
ATOM     25  C   UNL     1      49.804   4.981  20.192  0.00  0.00    +0.000 A 
ATOM     26  N   UNL     1      50.043   4.053  19.220  0.00  0.00    +0.000 N 
ATOM     27  C   UNL     1      49.874   4.319  17.890  0.00  0.00    +0.000 A 
ATOM     28  O   UNL     1      50.114   3.503  17.014  0.00  0.00    +0.000 OA
ATOM     29  C   UNL     1      49.393   5.674  17.572  0.00  0.00    +0.000 A 
ATOM     30  C   UNL     1      49.326   6.165  16.276  0.00  0.00    +0.000 A 
ATOM     31  H   UNL     1      50.382   3.132  19.453  0.00  0.00    +0.000 HD
ENDBRANCH  19  20
ENDBRANCH  18  19
ENDBRANCH   4  18
TORSDOF 7
ENDMDL
