MODEL 1
REMARK VINA RESULT:    -7.771      0.000      0.000
REMARK INTER + INTRA:         -12.567
REMARK INTER:                 -11.633
REMARK INTRA:                  -0.935
REMARK UNBOUND:                -0.935
REMARK  Name = 
REMARK  9 active torsions:
REMARK  status: ('A' for Active; 'I' for Inactive)
REMARK    1  A    between atoms: C_2  and  C_22
REMARK    2  A    between atoms: N_3  and  C_4
REMARK    3  A    between atoms: C_4  and  C_5
REMARK    4  A    between atoms: C_8  and  C_9
REMARK    5  A    between atoms: C_9  and  N_10
REMARK    6  A    between atoms: N_10  and  CA_11
REMARK    7  A    between atoms: CA_11  and  C_12
REMARK    8  A    between atoms: CA_11  and  C_14
REMARK    9  A    between atoms: C_12  and  O_13
REMARK                            x       y       z     vdW  Elec       q    Type
REMARK                         _______ _______ _______ _____ _____    ______ ____
ROOT
ATOM      1  C   UNL     1      46.753   7.791  12.983  0.00  0.00    +0.000 A 
ATOM      2  C   UNL     1      46.282   6.519  13.329  0.00  0.00    +0.000 A 
ATOM      3  C   UNL     1      45.093   6.024  12.781  0.00  0.00    +0.000 A 
ATOM      4  C   UNL     1      44.357   6.788  11.865  0.00  0.00    +0.000 A 
ATOM      5  C   UNL     1      44.848   8.049  11.496  0.00  0.00    +0.000 A 
ATOM      6  C   UNL     1      46.034   8.544  12.046  0.00  0.00    +0.000 A 
ENDROOT
BRANCH   1   7
ATOM      7  C   UNL     1      48.072   8.295  13.518  0.00  0.00    +0.000 C 
BRANCH   7  10
ATOM      8  O   UNL     1      50.084   6.834  14.968  0.00  0.00    +0.000 OA
ATOM      9  C   UNL     1      49.083   7.266  15.530  0.00  0.00    +0.000 C 
ATOM     10  N   UNL     1      48.126   8.052  14.929  0.00  0.00    +0.000 N 
ATOM     11  H   UNL     1      47.247   8.181  15.424  0.00  0.00    +0.000 HD
BRANCH   9  12
ATOM     12  C   UNL     1      48.649   6.840  16.852  0.00  0.00    +0.000 A 
ATOM     13  C   UNL     1      48.626   7.689  17.945  0.00  0.00    +0.000 A 
ATOM     14  S   UNL     1      48.635   6.817  19.425  0.00  0.00    +0.000 S 
ATOM     15  C   UNL     1      48.539   5.321  18.611  0.00  0.00    +0.000 A 
ATOM     16  N   UNL     1      48.662   4.127  19.252  0.00  0.00    +0.000 NA
ATOM     17  C   UNL     1      48.520   3.097  18.482  0.00  0.00    +0.000 A 
ATOM     18  N   UNL     1      48.213   3.146  17.145  0.00  0.00    +0.000 N 
ATOM     19  C   UNL     1      48.055   4.330  16.460  0.00  0.00    +0.000 A 
ATOM     20  O   UNL     1      47.695   4.361  15.289  0.00  0.00    +0.000 OA
ATOM     21  C   UNL     1      48.346   5.499  17.259  0.00  0.00    +0.000 A 
ATOM     22  H   UNL     1      48.025   2.304  16.621  0.00  0.00    +0.000 HD
ENDBRANCH   9  12
ENDBRANCH   7  10
ENDBRANCH   1   7
BRANCH   4  23
ATOM     23  C   UNL     1      43.084   6.265  11.239  0.00  0.00    +0.000 C 
BRANCH  23  24
ATOM     24  N   UNL     1      43.246   5.179  10.280  0.00  0.00    +0.000 NA
ATOM     25  H   UNL     1      43.577   5.544   9.388  0.00  0.00    +0.000 HD
BRANCH  24  26
ATOM     26  CA  UNL     1      44.171   4.084  10.687  0.00  0.00    +0.000 C 
BRANCH  26  27
ATOM     27  C   UNL     1      44.975   3.537   9.494  0.00  0.00    +0.000 A 
ATOM     28  N   UNL     1      45.438   4.424   8.591  0.00  0.00    +0.000 NA
ATOM     29  C   UNL     1      46.149   3.919   7.563  0.00  0.00    +0.000 A 
ATOM     30  C   UNL     1      46.407   2.580   7.399  0.00  0.00    +0.000 A 
ATOM     31  C   UNL     1      45.886   1.755   8.364  0.00  0.00    +0.000 A 
ATOM     32  N   UNL     1      45.168   2.199   9.413  0.00  0.00    +0.000 NA
ENDBRANCH  26  27
BRANCH  26  33
ATOM     33  C   UNL     1      43.448   2.898  11.365  0.00  0.00    +0.000 C 
BRANCH  33  34
ATOM     34  O   UNL     1      44.168   2.375  12.485  0.00  0.00    +0.000 OA
ATOM     35  H   UNL     1      43.827   1.470  12.624  0.00  0.00    +0.000 HD
ENDBRANCH  33  34
ENDBRANCH  26  33
ENDBRANCH  24  26
ENDBRANCH  23  24
ENDBRANCH   4  23
TORSDOF 9
ENDMDL
MODEL 2
REMARK VINA RESULT:    -7.748      2.166      2.854
REMARK INTER + INTRA:         -12.533
REMARK INTER:                 -11.396
REMARK INTRA:                  -1.137
REMARK UNBOUND:                -0.935
REMARK  Name = 
REMARK  9 active torsions:
REMARK  status: ('A' for Active; 'I' for Inactive)
REMARK    1  A    between atoms: C_2  and  C_22
REMARK    2  A    between atoms: N_3  and  C_4
REMARK    3  A    between atoms: C_4  and  C_5
REMARK    4  A    between atoms: C_8  and  C_9
REMARK    5  A    between atoms: C_9  and  N_10
REMARK    6  A    between atoms: N_10  and  CA_11
REMARK    7  A    between atoms: CA_11  and  C_12
REMARK    8  A    between atoms: CA_11  and  C_14
REMARK    9  A    between atoms: C_12  and  O_13
REMARK                            x       y       z     vdW  Elec       q    Type
REMARK                         _______ _______ _______ _____ _____    ______ ____
ROOT
ATOM      1  C   UNL     1      47.195   5.942  13.752  0.00  0.00    +0.000 A 
ATOM      2  C   UNL     1      46.310   6.534  12.842  0.00  0.00    +0.000 A 
ATOM      3  C   UNL     1      45.427   5.750  12.091  0.00  0.00    +0.000 A 
ATOM      4  C   UNL     1      45.402   4.357  12.243  0.00  0.00    +0.000 A 
ATOM      5  C   UNL     1      46.268   3.769  13.177  0.00  0.00    +0.000 A 
ATOM      6  C   UNL     1      47.151   4.552  13.925  0.00  0.00    +0.000 A 
ENDROOT
BRANCH   1   7
ATOM      7  C   UNL     1      48.096   6.793  14.614  0.00  0.00    +0.000 C 
BRANCH   7  10
ATOM      8  O   UNL     1      48.305   7.441  17.410  0.00  0.00    +0.000 OA
ATOM      9  C   UNL     1      48.785   6.406  16.960  0.00  0.00    +0.000 C 
ATOM     10  N   UNL     1      48.645   5.980  15.658  0.00  0.00    +0.000 N 
ATOM     11  H   UNL     1      49.247   5.223  15.345  0.00  0.00    +0.000 HD
BRANCH   9  12
ATOM     12  C   UNL     1      49.747   5.581  17.674  0.00  0.00    +0.000 A 
ATOM     13  C   UNL     1      50.805   6.111  18.392  0.00  0.00    +0.000 A 
ATOM     14  S   UNL     1      52.054   4.956  18.628  0.00  0.00    +0.000 S 
ATOM     15  C   UNL     1      51.132   3.724  17.891  0.00  0.00    +0.000 A 
ATOM     16  N   UNL     1      51.643   2.495  17.607  0.00  0.00    +0.000 NA
ATOM     17  C   UNL     1      50.788   1.675  17.087  0.00  0.00    +0.000 A 
ATOM     18  N   UNL     1      49.459   1.948  16.875  0.00  0.00    +0.000 N 
ATOM     19  C   UNL     1      48.893   3.169  17.170  0.00  0.00    +0.000 A 
ATOM     20  O   UNL     1      47.689   3.371  17.059  0.00  0.00    +0.000 OA
ATOM     21  C   UNL     1      49.852   4.152  17.620  0.00  0.00    +0.000 A 
ATOM     22  H   UNL     1      48.824   1.234  16.552  0.00  0.00    +0.000 HD
ENDBRANCH   9  12
ENDBRANCH   7  10
ENDBRANCH   1   7
BRANCH   4  23
ATOM     23  C   UNL     1      44.440   3.491  11.463  0.00  0.00    +0.000 C 
BRANCH  23  24
ATOM     24  N   UNL     1      45.038   2.622  10.457  0.00  0.00    +0.000 NA
ATOM     25  H   UNL     1      44.829   1.647  10.666  0.00  0.00    +0.000 HD
BRANCH  24  26
ATOM     26  CA  UNL     1      44.623   2.877   9.048  0.00  0.00    +0.000 C 
BRANCH  26  27
ATOM     27  C   UNL     1      45.665   2.362   8.040  0.00  0.00    +0.000 A 
ATOM     28  N   UNL     1      46.260   1.181   8.302  0.00  0.00    +0.000 NA
ATOM     29  C   UNL     1      47.159   0.748   7.396  0.00  0.00    +0.000 A 
ATOM     30  C   UNL     1      47.490   1.441   6.257  0.00  0.00    +0.000 A 
ATOM     31  C   UNL     1      46.838   2.637   6.082  0.00  0.00    +0.000 A 
ATOM     32  N   UNL     1      45.931   3.122   6.951  0.00  0.00    +0.000 NA
ENDBRANCH  26  27
BRANCH  26  33
ATOM     33  C   UNL     1      44.363   4.371   8.752  0.00  0.00    +0.000 C 
BRANCH  33  34
ATOM     34  O   UNL     1      45.560   5.155   8.757  0.00  0.00    +0.000 OA
ATOM     35  H   UNL     1      45.628   5.546   7.864  0.00  0.00    +0.000 HD
ENDBRANCH  33  34
ENDBRANCH  26  33
ENDBRANCH  24  26
ENDBRANCH  23  24
ENDBRANCH   4  23
TORSDOF 9
ENDMDL
MODEL 3
REMARK VINA RESULT:    -7.636      4.358      7.204
REMARK INTER + INTRA:         -12.364
REMARK INTER:                 -10.991
REMARK INTRA:                  -1.373
REMARK UNBOUND:                -0.935
REMARK  Name = 
REMARK  9 active torsions:
REMARK  status: ('A' for Active; 'I' for Inactive)
REMARK    1  A    between atoms: C_2  and  C_22
REMARK    2  A    between atoms: N_3  and  C_4
REMARK    3  A    between atoms: C_4  and  C_5
REMARK    4  A    between atoms: C_8  and  C_9
REMARK    5  A    between atoms: C_9  and  N_10
REMARK    6  A    between atoms: N_10  and  CA_11
REMARK    7  A    between atoms: CA_11  and  C_12
REMARK    8  A    between atoms: CA_11  and  C_14
REMARK    9  A    between atoms: C_12  and  O_13
REMARK                            x       y       z     vdW  Elec       q    Type
REMARK                         _______ _______ _______ _____ _____    ______ ____
ROOT
ATOM      1  C   UNL     1      45.079   3.204   8.572  0.00  0.00    +0.000 A 
ATOM      2  C   UNL     1      45.714   3.933   7.558  0.00  0.00    +0.000 A 
ATOM      3  C   UNL     1      46.703   3.339   6.764  0.00  0.00    +0.000 A 
ATOM      4  C   UNL     1      47.068   2.000   6.961  0.00  0.00    +0.000 A 
ATOM      5  C   UNL     1      46.409   1.265   7.956  0.00  0.00    +0.000 A 
ATOM      6  C   UNL     1      45.423   1.858   8.750  0.00  0.00    +0.000 A 
ENDROOT
BRANCH   1   7
ATOM      7  C   UNL     1      43.962   3.822   9.379  0.00  0.00    +0.000 C 
BRANCH   7  10
ATOM      8  O   UNL     1      42.586   5.125  11.544  0.00  0.00    +0.000 OA
ATOM      9  C   UNL     1      43.781   5.314  11.345  0.00  0.00    +0.000 C 
ATOM     10  N   UNL     1      44.530   4.659  10.394  0.00  0.00    +0.000 N 
ATOM     11  H   UNL     1      45.450   5.035  10.180  0.00  0.00    +0.000 HD
BRANCH   9  12
ATOM     12  C   UNL     1      44.538   6.407  11.939  0.00  0.00    +0.000 A 
ATOM     13  C   UNL     1      44.394   7.724  11.540  0.00  0.00    +0.000 A 
ATOM     14  S   UNL     1      45.761   8.670  11.971  0.00  0.00    +0.000 S 
ATOM     15  C   UNL     1      46.479   7.361  12.795  0.00  0.00    +0.000 A 
ATOM     16  N   UNL     1      47.748   7.408  13.285  0.00  0.00    +0.000 NA
ATOM     17  C   UNL     1      48.110   6.339  13.917  0.00  0.00    +0.000 A 
ATOM     18  N   UNL     1      47.308   5.251  14.154  0.00  0.00    +0.000 N 
ATOM     19  C   UNL     1      46.010   5.169  13.700  0.00  0.00    +0.000 A 
ATOM     20  O   UNL     1      45.276   4.232  13.993  0.00  0.00    +0.000 OA
ATOM     21  C   UNL     1      45.621   6.286  12.870  0.00  0.00    +0.000 A 
ATOM     22  H   UNL     1      47.622   4.487  14.734  0.00  0.00    +0.000 HD
ENDBRANCH   9  12
ENDBRANCH   7  10
ENDBRANCH   1   7
BRANCH   4  23
ATOM     23  C   UNL     1      48.113   1.330   6.100  0.00  0.00    +0.000 C 
BRANCH  23  24
ATOM     24  N   UNL     1      47.855   1.334   4.665  0.00  0.00    +0.000 NA
ATOM     25  H   UNL     1      48.663   0.969   4.162  0.00  0.00    +0.000 HD
BRANCH  24  26
ATOM     26  CA  UNL     1      46.661   0.562   4.216  0.00  0.00    +0.000 C 
BRANCH  26  27
ATOM     27  C   UNL     1      47.051  -0.791   3.596  0.00  0.00    +0.000 A 
ATOM     28  N   UNL     1      47.903  -0.779   2.551  0.00  0.00    +0.000 NA
ATOM     29  C   UNL     1      48.238  -1.979   2.036  0.00  0.00    +0.000 A 
ATOM     30  C   UNL     1      47.756  -3.174   2.510  0.00  0.00    +0.000 A 
ATOM     31  C   UNL     1      46.887  -3.083   3.570  0.00  0.00    +0.000 A 
ATOM     32  N   UNL     1      46.516  -1.916   4.127  0.00  0.00    +0.000 NA
ENDBRANCH  26  27
BRANCH  26  33
ATOM     33  C   UNL     1      45.792   1.329   3.194  0.00  0.00    +0.000 C 
BRANCH  33  34
ATOM     34  O   UNL     1      45.188   0.469   2.223  0.00  0.00    +0.000 OA
ATOM     35  H   UNL     1      44.933   1.045   1.476  0.00  0.00    +0.000 HD
ENDBRANCH  33  34
ENDBRANCH  26  33
ENDBRANCH  24  26
ENDBRANCH  23  24
ENDBRANCH   4  23
TORSDOF 9
ENDMDL
MODEL 4
REMARK VINA RESULT:    -7.290      2.019      2.316
REMARK INTER + INTRA:         -11.847
REMARK INTER:                 -10.701
REMARK INTRA:                  -1.146
REMARK UNBOUND:                -0.935
REMARK  Name = 
REMARK  9 active torsions:
REMARK  status: ('A' for Active; 'I' for Inactive)
REMARK    1  A    between atoms: C_2  and  C_22
REMARK    2  A    between atoms: N_3  and  C_4
REMARK    3  A    between atoms: C_4  and  C_5
REMARK    4  A    between atoms: C_8  and  C_9
REMARK    5  A    between atoms: C_9  and  N_10
REMARK    6  A    between atoms: N_10  and  CA_11
REMARK    7  A    between atoms: CA_11  and  C_12
REMARK    8  A    between atoms: CA_11  and  C_14
REMARK    9  A    between atoms: C_12  and  O_13
REMARK                            x       y       z     vdW  Elec       q    Type
REMARK                         _______ _______ _______ _____ _____    ______ ____
ROOT
ATOM      1  C   UNL     1      48.792   7.828  13.634  0.00  0.00    +0.000 A 
ATOM      2  C   UNL     1      48.654   6.909  12.585  0.00  0.00    +0.000 A 
ATOM      3  C   UNL     1      47.426   6.750  11.933  0.00  0.00    +0.000 A 
ATOM      4  C   UNL     1      46.313   7.515  12.309  0.00  0.00    +0.000 A 
ATOM      5  C   UNL     1      46.463   8.455  13.339  0.00  0.00    +0.000 A 
ATOM      6  C   UNL     1      47.688   8.613  13.991  0.00  0.00    +0.000 A 
ENDROOT
BRANCH   1   7
ATOM      7  C   UNL     1      50.134   8.051  14.288  0.00  0.00    +0.000 C 
BRANCH   7  10
ATOM      8  O   UNL     1      49.427   7.909  17.074  0.00  0.00    +0.000 OA
ATOM      9  C   UNL     1      50.095   7.029  16.542  0.00  0.00    +0.000 C 
ATOM     10  N   UNL     1      50.393   6.976  15.199  0.00  0.00    +0.000 N 
ATOM     11  H   UNL     1      51.115   6.324  14.905  0.00  0.00    +0.000 HD
BRANCH   9  12
ATOM     12  C   UNL     1      50.848   6.026  17.280  0.00  0.00    +0.000 A 
ATOM     13  C   UNL     1      52.121   6.253  17.772  0.00  0.00    +0.000 A 
ATOM     14  S   UNL     1      52.958   4.782  18.067  0.00  0.00    +0.000 S 
ATOM     15  C   UNL     1      51.585   3.853  17.666  0.00  0.00    +0.000 A 
ATOM     16  N   UNL     1      51.624   2.498  17.549  0.00  0.00    +0.000 NA
ATOM     17  C   UNL     1      50.480   1.958  17.280  0.00  0.00    +0.000 A 
ATOM     18  N   UNL     1      49.291   2.637  17.172  0.00  0.00    +0.000 N 
ATOM     19  C   UNL     1      49.200   4.004  17.307  0.00  0.00    +0.000 A 
ATOM     20  O   UNL     1      48.122   4.588  17.297  0.00  0.00    +0.000 OA
ATOM     21  C   UNL     1      50.482   4.652  17.468  0.00  0.00    +0.000 A 
ATOM     22  H   UNL     1      48.418   2.145  17.052  0.00  0.00    +0.000 HD
ENDBRANCH   9  12
ENDBRANCH   7  10
ENDBRANCH   1   7
BRANCH   4  23
ATOM     23  C   UNL     1      44.984   7.380  11.603  0.00  0.00    +0.000 C 
BRANCH  23  24
ATOM     24  N   UNL     1      44.962   6.487  10.451  0.00  0.00    +0.000 NA
ATOM     25  H   UNL     1      45.867   6.497   9.982  0.00  0.00    +0.000 HD
BRANCH  24  26
ATOM     26  CA  UNL     1      44.623   5.064  10.736  0.00  0.00    +0.000 C 
BRANCH  26  27
ATOM     27  C   UNL     1      45.137   4.118   9.637  0.00  0.00    +0.000 A 
ATOM     28  N   UNL     1      45.706   4.673   8.548  0.00  0.00    +0.000 NA
ATOM     29  C   UNL     1      46.159   3.821   7.607  0.00  0.00    +0.000 A 
ATOM     30  C   UNL     1      46.062   2.454   7.705  0.00  0.00    +0.000 A 
ATOM     31  C   UNL     1      45.459   1.984   8.845  0.00  0.00    +0.000 A 
ATOM     32  N   UNL     1      44.986   2.785   9.819  0.00  0.00    +0.000 NA
ENDBRANCH  26  27
BRANCH  26  33
ATOM     33  C   UNL     1      43.105   4.825  10.907  0.00  0.00    +0.000 C 
BRANCH  33  34
ATOM     34  O   UNL     1      42.803   3.535  11.448  0.00  0.00    +0.000 OA
ATOM     35  H   UNL     1      42.219   3.696  12.214  0.00  0.00    +0.000 HD
ENDBRANCH  33  34
ENDBRANCH  26  33
ENDBRANCH  24  26
ENDBRANCH  23  24
ENDBRANCH   4  23
TORSDOF 9
ENDMDL
MODEL 5
REMARK VINA RESULT:    -7.279      2.005      2.706
REMARK INTER + INTRA:         -11.830
REMARK INTER:                 -10.690
REMARK INTRA:                  -1.140
REMARK UNBOUND:                -0.935
REMARK  Name = 
REMARK  9 active torsions:
REMARK  status: ('A' for Active; 'I' for Inactive)
REMARK    1  A    between atoms: C_2  and  C_22
REMARK    2  A    between atoms: N_3  and  C_4
REMARK    3  A    between atoms: C_4  and  C_5
REMARK    4  A    between atoms: C_8  and  C_9
REMARK    5  A    between atoms: C_9  and  N_10
REMARK    6  A    between atoms: N_10  and  CA_11
REMARK    7  A    between atoms: CA_11  and  C_12
REMARK    8  A    between atoms: CA_11  and  C_14
REMARK    9  A    between atoms: C_12  and  O_13
REMARK                            x       y       z     vdW  Elec       q    Type
REMARK                         _______ _______ _______ _____ _____    ______ ____
ROOT
ATOM      1  C   UNL     1      47.884   6.336  13.833  0.00  0.00    +0.000 A 
ATOM      2  C   UNL     1      47.251   6.598  12.611  0.00  0.00    +0.000 A 
ATOM      3  C   UNL     1      46.254   5.743  12.126  0.00  0.00    +0.000 A 
ATOM      4  C   UNL     1      45.861   4.615  12.859  0.00  0.00    +0.000 A 
ATOM      5  C   UNL     1      46.476   4.372  14.096  0.00  0.00    +0.000 A 
ATOM      6  C   UNL     1      47.472   5.224  14.580  0.00  0.00    +0.000 A 
ENDROOT
BRANCH   1   7
ATOM      7  C   UNL     1      48.907   7.296  14.391  0.00  0.00    +0.000 C 
BRANCH   7  10
ATOM      8  O   UNL     1      50.320   7.308  16.898  0.00  0.00    +0.000 OA
ATOM      9  C   UNL     1      49.154   7.679  16.824  0.00  0.00    +0.000 C 
ATOM     10  N   UNL     1      48.441   7.792  15.652  0.00  0.00    +0.000 N 
ATOM     11  H   UNL     1      47.434   7.911  15.724  0.00  0.00    +0.000 HD
BRANCH   9  12
ATOM     12  C   UNL     1      48.285   7.852  17.978  0.00  0.00    +0.000 A 
ATOM     13  C   UNL     1      47.764   9.080  18.349  0.00  0.00    +0.000 A 
ATOM     14  S   UNL     1      47.281   9.092  19.997  0.00  0.00    +0.000 S 
ATOM     15  C   UNL     1      47.645   7.435  20.175  0.00  0.00    +0.000 A 
ATOM     16  N   UNL     1      47.619   6.803  21.380  0.00  0.00    +0.000 NA
ATOM     17  C   UNL     1      47.881   5.537  21.319  0.00  0.00    +0.000 A 
ATOM     18  N   UNL     1      48.111   4.833  20.163  0.00  0.00    +0.000 N 
ATOM     19  C   UNL     1      48.121   5.425  18.919  0.00  0.00    +0.000 A 
ATOM     20  O   UNL     1      48.240   4.772  17.889  0.00  0.00    +0.000 OA
ATOM     21  C   UNL     1      47.972   6.862  18.967  0.00  0.00    +0.000 A 
ATOM     22  H   UNL     1      48.218   3.830  20.175  0.00  0.00    +0.000 HD
ENDBRANCH   9  12
ENDBRANCH   7  10
ENDBRANCH   1   7
BRANCH   4  23
ATOM     23  C   UNL     1      44.770   3.692  12.369  0.00  0.00    +0.000 C 
BRANCH  23  24
ATOM     24  N   UNL     1      45.164   2.721  11.356  0.00  0.00    +0.000 NA
ATOM     25  H   UNL     1      44.931   1.778  11.663  0.00  0.00    +0.000 HD
BRANCH  24  26
ATOM     26  CA  UNL     1      44.566   2.912  10.004  0.00  0.00    +0.000 C 
BRANCH  26  27
ATOM     27  C   UNL     1      45.561   2.571   8.882  0.00  0.00    +0.000 A 
ATOM     28  N   UNL     1      45.839   1.270   8.664  0.00  0.00    +0.000 NA
ATOM     29  C   UNL     1      46.705   1.000   7.666  0.00  0.00    +0.000 A 
ATOM     30  C   UNL     1      47.302   1.965   6.892  0.00  0.00    +0.000 A 
ATOM     31  C   UNL     1      46.964   3.260   7.195  0.00  0.00    +0.000 A 
ATOM     32  N   UNL     1      46.107   3.592   8.179  0.00  0.00    +0.000 NA
ENDBRANCH  26  27
BRANCH  26  33
ATOM     33  C   UNL     1      44.045   4.348   9.767  0.00  0.00    +0.000 C 
BRANCH  33  34
ATOM     34  O   UNL     1      43.528   4.541   8.447  0.00  0.00    +0.000 OA
ATOM     35  H   UNL     1      44.299   4.753   7.886  0.00  0.00    +0.000 HD
ENDBRANCH  33  34
ENDBRANCH  26  33
ENDBRANCH  24  26
ENDBRANCH  23  24
ENDBRANCH   4  23
TORSDOF 9
ENDMDL
MODEL 6
REMARK VINA RESULT:    -7.275      1.483      2.151
REMARK INTER + INTRA:         -11.825
REMARK INTER:                  -9.657
REMARK INTRA:                  -2.168
REMARK UNBOUND:                -0.935
REMARK  Name = 
REMARK  9 active torsions:
REMARK  status: ('A' for Active; 'I' for Inactive)
REMARK    1  A    between atoms: C_2  and  C_22
REMARK    2  A    between atoms: N_3  and  C_4
REMARK    3  A    between atoms: C_4  and  C_5
REMARK    4  A    between atoms: C_8  and  C_9
REMARK    5  A    between atoms: C_9  and  N_10
REMARK    6  A    between atoms: N_10  and  CA_11
REMARK    7  A    between atoms: CA_11  and  C_12
REMARK    8  A    between atoms: CA_11  and  C_14
REMARK    9  A    between atoms: C_12  and  O_13
REMARK                            x       y       z     vdW  Elec       q    Type
REMARK                         _______ _______ _______ _____ _____    ______ ____
ROOT
ATOM      1  C   UNL     1      48.729   8.372  13.671  0.00  0.00    +0.000 A 
ATOM      2  C   UNL     1      47.520   8.862  14.180  0.00  0.00    +0.000 A 
ATOM      3  C   UNL     1      46.335   8.741  13.445  0.00  0.00    +0.000 A 
ATOM      4  C   UNL     1      46.333   8.116  12.190  0.00  0.00    +0.000 A 
ATOM      5  C   UNL     1      47.540   7.600  11.697  0.00  0.00    +0.000 A 
ATOM      6  C   UNL     1      48.724   7.722  12.430  0.00  0.00    +0.000 A 
ENDROOT
BRANCH   1   7
ATOM      7  C   UNL     1      49.993   8.438  14.495  0.00  0.00    +0.000 C 
BRANCH   7  10
ATOM      8  O   UNL     1      51.455   6.367  15.858  0.00  0.00    +0.000 OA
ATOM      9  C   UNL     1      50.432   6.843  16.336  0.00  0.00    +0.000 C 
ATOM     10  N   UNL     1      49.730   7.897  15.795  0.00  0.00    +0.000 N 
ATOM     11  H   UNL     1      48.797   8.074  16.157  0.00  0.00    +0.000 HD
BRANCH   9  12
ATOM     12  C   UNL     1      49.688   6.232  17.428  0.00  0.00    +0.000 A 
ATOM     13  C   UNL     1      49.969   6.482  18.760  0.00  0.00    +0.000 A 
ATOM     14  S   UNL     1      49.360   5.242  19.780  0.00  0.00    +0.000 S 
ATOM     15  C   UNL     1      48.617   4.447  18.467  0.00  0.00    +0.000 A 
ATOM     16  N   UNL     1      48.042   3.219  18.581  0.00  0.00    +0.000 NA
ATOM     17  C   UNL     1      47.491   2.790  17.493  0.00  0.00    +0.000 A 
ATOM     18  N   UNL     1      47.412   3.494  16.316  0.00  0.00    +0.000 N 
ATOM     19  C   UNL     1      47.958   4.749  16.161  0.00  0.00    +0.000 A 
ATOM     20  O   UNL     1      47.804   5.402  15.135  0.00  0.00    +0.000 OA
ATOM     21  C   UNL     1      48.703   5.197  17.316  0.00  0.00    +0.000 A 
ATOM     22  H   UNL     1      46.888   3.140  15.530  0.00  0.00    +0.000 HD
ENDBRANCH   9  12
ENDBRANCH   7  10
ENDBRANCH   1   7
BRANCH   4  23
ATOM     23  C   UNL     1      45.062   7.950  11.390  0.00  0.00    +0.000 C 
BRANCH  23  24
ATOM     24  N   UNL     1      44.252   6.783  11.717  0.00  0.00    +0.000 NA
ATOM     25  H   UNL     1      43.577   6.604  10.974  0.00  0.00    +0.000 HD
BRANCH  24  26
ATOM     26  CA  UNL     1      45.001   5.516  11.956  0.00  0.00    +0.000 C 
BRANCH  26  27
ATOM     27  C   UNL     1      44.911   4.560  10.755  0.00  0.00    +0.000 A 
ATOM     28  N   UNL     1      44.312   3.367  10.947  0.00  0.00    +0.000 NA
ATOM     29  C   UNL     1      44.236   2.554   9.874  0.00  0.00    +0.000 A 
ATOM     30  C   UNL     1      44.734   2.876   8.635  0.00  0.00    +0.000 A 
ATOM     31  C   UNL     1      45.335   4.107   8.541  0.00  0.00    +0.000 A 
ATOM     32  N   UNL     1      45.441   4.962   9.576  0.00  0.00    +0.000 NA
ENDBRANCH  26  27
BRANCH  26  33
ATOM     33  C   UNL     1      44.522   4.757  13.214  0.00  0.00    +0.000 C 
BRANCH  33  34
ATOM     34  O   UNL     1      45.538   3.924  13.781  0.00  0.00    +0.000 OA
ATOM     35  H   UNL     1      45.499   3.081  13.288  0.00  0.00    +0.000 HD
ENDBRANCH  33  34
ENDBRANCH  26  33
ENDBRANCH  24  26
ENDBRANCH  23  24
ENDBRANCH   4  23
TORSDOF 9
ENDMDL
MODEL 7
REMARK VINA RESULT:    -7.164      3.064      7.901
REMARK INTER + INTRA:         -11.658
REMARK INTER:                  -9.919
REMARK INTRA:                  -1.739
REMARK UNBOUND:                -0.935
REMARK  Name = 
REMARK  9 active torsions:
REMARK  status: ('A' for Active; 'I' for Inactive)
REMARK    1  A    between atoms: C_2  and  C_22
REMARK    2  A    between atoms: N_3  and  C_4
REMARK    3  A    between atoms: C_4  and  C_5
REMARK    4  A    between atoms: C_8  and  C_9
REMARK    5  A    between atoms: C_9  and  N_10
REMARK    6  A    between atoms: N_10  and  CA_11
REMARK    7  A    between atoms: CA_11  and  C_12
REMARK    8  A    between atoms: CA_11  and  C_14
REMARK    9  A    between atoms: C_12  and  O_13
REMARK                            x       y       z     vdW  Elec       q    Type
REMARK                         _______ _______ _______ _____ _____    ______ ____
ROOT
ATOM      1  C   UNL     1      47.640   7.978  14.041  0.00  0.00    +0.000 A 
ATOM      2  C   UNL     1      48.196   8.897  14.940  0.00  0.00    +0.000 A 
ATOM      3  C   UNL     1      49.032   8.464  15.977  0.00  0.00    +0.000 A 
ATOM      4  C   UNL     1      49.337   7.105  16.128  0.00  0.00    +0.000 A 
ATOM      5  C   UNL     1      48.803   6.191  15.208  0.00  0.00    +0.000 A 
ATOM      6  C   UNL     1      47.967   6.622  14.174  0.00  0.00    +0.000 A 
ENDROOT
BRANCH   1   7
ATOM      7  C   UNL     1      46.798   8.452  12.880  0.00  0.00    +0.000 C 
BRANCH   7  10
ATOM      8  O   UNL     1      44.571   7.943  11.129  0.00  0.00    +0.000 OA
ATOM      9  C   UNL     1      45.514   7.163  11.202  0.00  0.00    +0.000 C 
ATOM     10  N   UNL     1      46.656   7.379  11.940  0.00  0.00    +0.000 N 
ATOM     11  H   UNL     1      47.275   6.587  12.090  0.00  0.00    +0.000 HD
BRANCH   9  12
ATOM     12  C   UNL     1      45.479   5.800  10.690  0.00  0.00    +0.000 A 
ATOM     13  C   UNL     1      45.838   5.475   9.393  0.00  0.00    +0.000 A 
ATOM     14  S   UNL     1      45.172   3.968   8.911  0.00  0.00    +0.000 S 
ATOM     15  C   UNL     1      44.521   3.693  10.463  0.00  0.00    +0.000 A 
ATOM     16  N   UNL     1      43.683   2.656  10.735  0.00  0.00    +0.000 NA
ATOM     17  C   UNL     1      43.321   2.579  11.975  0.00  0.00    +0.000 A 
ATOM     18  N   UNL     1      43.761   3.407  12.978  0.00  0.00    +0.000 N 
ATOM     19  C   UNL     1      44.628   4.453  12.755  0.00  0.00    +0.000 A 
ATOM     20  O   UNL     1      45.081   5.129  13.671  0.00  0.00    +0.000 OA
ATOM     21  C   UNL     1      44.939   4.652  11.357  0.00  0.00    +0.000 A 
ATOM     22  H   UNL     1      43.513   3.237  13.941  0.00  0.00    +0.000 HD
ENDBRANCH   9  12
ENDBRANCH   7  10
ENDBRANCH   1   7
BRANCH   4  23
ATOM     23  C   UNL     1      50.257   6.616  17.223  0.00  0.00    +0.000 C 
BRANCH  23  24
ATOM     24  N   UNL     1      49.687   6.580  18.564  0.00  0.00    +0.000 NA
ATOM     25  H   UNL     1      48.730   6.930  18.549  0.00  0.00    +0.000 HD
BRANCH  24  26
ATOM     26  CA  UNL     1      49.666   5.246  19.227  0.00  0.00    +0.000 C 
BRANCH  26  27
ATOM     27  C   UNL     1      49.279   4.124  18.248  0.00  0.00    +0.000 A 
ATOM     28  N   UNL     1      50.263   3.329  17.783  0.00  0.00    +0.000 NA
ATOM     29  C   UNL     1      49.893   2.347  16.938  0.00  0.00    +0.000 A 
ATOM     30  C   UNL     1      48.597   2.133  16.536  0.00  0.00    +0.000 A 
ATOM     31  C   UNL     1      47.667   2.999  17.055  0.00  0.00    +0.000 A 
ATOM     32  N   UNL     1      47.975   3.998  17.903  0.00  0.00    +0.000 NA
ENDBRANCH  26  27
BRANCH  26  33
ATOM     33  C   UNL     1      48.706   5.184  20.436  0.00  0.00    +0.000 C 
BRANCH  33  34
ATOM     34  O   UNL     1      48.435   3.845  20.863  0.00  0.00    +0.000 OA
ATOM     35  H   UNL     1      47.494   3.833  21.127  0.00  0.00    +0.000 HD
ENDBRANCH  33  34
ENDBRANCH  26  33
ENDBRANCH  24  26
ENDBRANCH  23  24
ENDBRANCH   4  23
TORSDOF 9
ENDMDL
MODEL 8
REMARK VINA RESULT:    -7.129      1.588      2.312
REMARK INTER + INTRA:         -11.606
REMARK INTER:                 -10.676
REMARK INTRA:                  -0.930
REMARK UNBOUND:                -0.935
REMARK  Name = 
REMARK  9 active torsions:
REMARK  status: ('A' for Active; 'I' for Inactive)
REMARK    1  A    between atoms: C_2  and  C_22
REMARK    2  A    between atoms: N_3  and  C_4
REMARK    3  A    between atoms: C_4  and  C_5
REMARK    4  A    between atoms: C_8  and  C_9
REMARK    5  A    between atoms: C_9  and  N_10
REMARK    6  A    between atoms: N_10  and  CA_11
REMARK    7  A    between atoms: CA_11  and  C_12
REMARK    8  A    between atoms: CA_11  and  C_14
REMARK    9  A    between atoms: C_12  and  O_13
REMARK                            x       y       z     vdW  Elec       q    Type
REMARK                         _______ _______ _______ _____ _____    ______ ____
ROOT
ATOM      1  C   UNL     1      48.053   7.190  12.933  0.00  0.00    +0.000 A 
ATOM      2  C   UNL     1      47.357   8.135  12.169  0.00  0.00    +0.000 A 
ATOM      3  C   UNL     1      46.036   7.898  11.771  0.00  0.00    +0.000 A 
ATOM      4  C   UNL     1      45.381   6.714  12.138  0.00  0.00    +0.000 A 
ATOM      5  C   UNL     1      46.071   5.784  12.929  0.00  0.00    +0.000 A 
ATOM      6  C   UNL     1      47.390   6.020  13.325  0.00  0.00    +0.000 A 
ENDROOT
BRANCH   1   7
ATOM      7  C   UNL     1      49.452   7.478  13.424  0.00  0.00    +0.000 C 
BRANCH   7  10
ATOM      8  O   UNL     1      51.764   7.642  15.130  0.00  0.00    +0.000 OA
ATOM      9  C   UNL     1      50.699   7.196  15.543  0.00  0.00    +0.000 C 
ATOM     10  N   UNL     1      49.527   7.173  14.822  0.00  0.00    +0.000 N 
ATOM     11  H   UNL     1      48.766   6.602  15.182  0.00  0.00    +0.000 HD
BRANCH   9  12
ATOM     12  C   UNL     1      50.564   6.435  16.777  0.00  0.00    +0.000 A 
ATOM     13  C   UNL     1      51.421   5.404  17.121  0.00  0.00    +0.000 A 
ATOM     14  S   UNL     1      50.712   4.351  18.278  0.00  0.00    +0.000 S 
ATOM     15  C   UNL     1      49.326   5.337  18.412  0.00  0.00    +0.000 A 
ATOM     16  N   UNL     1      48.224   4.962  19.116  0.00  0.00    +0.000 NA
ATOM     17  C   UNL     1      47.287   5.853  19.144  0.00  0.00    +0.000 A 
ATOM     18  N   UNL     1      47.368   7.103  18.581  0.00  0.00    +0.000 N 
ATOM     19  C   UNL     1      48.472   7.535  17.881  0.00  0.00    +0.000 A 
ATOM     20  O   UNL     1      48.569   8.682  17.460  0.00  0.00    +0.000 OA
ATOM     21  C   UNL     1      49.480   6.512  17.712  0.00  0.00    +0.000 A 
ATOM     22  H   UNL     1      46.637   7.786  18.717  0.00  0.00    +0.000 HD
ENDBRANCH   9  12
ENDBRANCH   7  10
ENDBRANCH   1   7
BRANCH   4  23
ATOM     23  C   UNL     1      43.947   6.446  11.743  0.00  0.00    +0.000 C 
BRANCH  23  24
ATOM     24  N   UNL     1      43.753   5.474  10.674  0.00  0.00    +0.000 NA
ATOM     25  H   UNL     1      44.124   5.838   9.797  0.00  0.00    +0.000 HD
BRANCH  24  26
ATOM     26  CA  UNL     1      44.361   4.132  10.896  0.00  0.00    +0.000 C 
BRANCH  26  27
ATOM     27  C   UNL     1      45.073   3.608   9.637  0.00  0.00    +0.000 A 
ATOM     28  N   UNL     1      45.221   2.274   9.509  0.00  0.00    +0.000 NA
ATOM     29  C   UNL     1      45.836   1.842   8.390  0.00  0.00    +0.000 A 
ATOM     30  C   UNL     1      46.311   2.679   7.410  0.00  0.00    +0.000 A 
ATOM     31  C   UNL     1      46.123   4.020   7.634  0.00  0.00    +0.000 A 
ATOM     32  N   UNL     1      45.517   4.511   8.730  0.00  0.00    +0.000 NA
ENDBRANCH  26  27
BRANCH  26  33
ATOM     33  C   UNL     1      43.336   3.068  11.349  0.00  0.00    +0.000 C 
BRANCH  33  34
ATOM     34  O   UNL     1      43.802   2.279  12.448  0.00  0.00    +0.000 OA
ATOM     35  H   UNL     1      44.225   2.906  13.067  0.00  0.00    +0.000 HD
ENDBRANCH  33  34
ENDBRANCH  26  33
ENDBRANCH  24  26
ENDBRANCH  23  24
ENDBRANCH   4  23
TORSDOF 9
ENDMDL
MODEL 9
REMARK VINA RESULT:    -6.868      2.692      8.050
REMARK INTER + INTRA:         -11.215
REMARK INTER:                 -10.129
REMARK INTRA:                  -1.086
REMARK UNBOUND:                -0.935
REMARK  Name = 
REMARK  9 active torsions:
REMARK  status: ('A' for Active; 'I' for Inactive)
REMARK    1  A    between atoms: C_2  and  C_22
REMARK    2  A    between atoms: N_3  and  C_4
REMARK    3  A    between atoms: C_4  and  C_5
REMARK    4  A    between atoms: C_8  and  C_9
REMARK    5  A    between atoms: C_9  and  N_10
REMARK    6  A    between atoms: N_10  and  CA_11
REMARK    7  A    between atoms: CA_11  and  C_12
REMARK    8  A    between atoms: CA_11  and  C_14
REMARK    9  A    between atoms: C_12  and  O_13
REMARK                            x       y       z     vdW  Elec       q    Type
REMARK                         _______ _______ _______ _____ _____    ______ ____
ROOT
ATOM      1  C   UNL     1      48.133   8.272  14.650  0.00  0.00    +0.000 A 
ATOM      2  C   UNL     1      48.908   7.106  14.695  0.00  0.00    +0.000 A 
ATOM      3  C   UNL     1      49.669   6.798  15.828  0.00  0.00    +0.000 A 
ATOM      4  C   UNL     1      49.660   7.643  16.947  0.00  0.00    +0.000 A 
ATOM      5  C   UNL     1      48.858   8.794  16.911  0.00  0.00    +0.000 A 
ATOM      6  C   UNL     1      48.101   9.103  15.778  0.00  0.00    +0.000 A 
ENDROOT
BRANCH   1   7
ATOM      7  C   UNL     1      47.257   8.568  13.457  0.00  0.00    +0.000 C 
BRANCH   7  10
ATOM      8  O   UNL     1      47.399   6.596  11.365  0.00  0.00    +0.000 OA
ATOM      9  C   UNL     1      46.466   6.613  12.160  0.00  0.00    +0.000 C 
ATOM     10  N   UNL     1      46.373   7.460  13.241  0.00  0.00    +0.000 N 
ATOM     11  H   UNL     1      45.474   7.527  13.709  0.00  0.00    +0.000 HD
BRANCH   9  12
ATOM     12  C   UNL     1      45.220   5.888  11.961  0.00  0.00    +0.000 A 
ATOM     13  C   UNL     1      44.234   5.810  12.930  0.00  0.00    +0.000 A 
ATOM     14  S   UNL     1      43.189   4.473  12.664  0.00  0.00    +0.000 S 
ATOM     15  C   UNL     1      43.969   4.081  11.198  0.00  0.00    +0.000 A 
ATOM     16  N   UNL     1      43.695   2.945  10.501  0.00  0.00    +0.000 NA
ATOM     17  C   UNL     1      44.351   2.835   9.392  0.00  0.00    +0.000 A 
ATOM     18  N   UNL     1      45.213   3.777   8.886  0.00  0.00    +0.000 N 
ATOM     19  C   UNL     1      45.501   4.952   9.543  0.00  0.00    +0.000 A 
ATOM     20  O   UNL     1      46.201   5.823   9.041  0.00  0.00    +0.000 OA
ATOM     21  C   UNL     1      44.893   5.042  10.851  0.00  0.00    +0.000 A 
ATOM     22  H   UNL     1      45.623   3.671   7.970  0.00  0.00    +0.000 HD
ENDBRANCH   9  12
ENDBRANCH   7  10
ENDBRANCH   1   7
BRANCH   4  23
ATOM     23  C   UNL     1      50.451   7.318  18.192  0.00  0.00    +0.000 C 
BRANCH  23  24
ATOM     24  N   UNL     1      49.677   6.849  19.334  0.00  0.00    +0.000 NA
ATOM     25  H   UNL     1      48.695   7.095  19.218  0.00  0.00    +0.000 HD
BRANCH  24  26
ATOM     26  CA  UNL     1      49.742   5.385  19.608  0.00  0.00    +0.000 C 
BRANCH  26  27
ATOM     27  C   UNL     1      49.001   4.566  18.537  0.00  0.00    +0.000 A 
ATOM     28  N   UNL     1      47.736   4.923  18.238  0.00  0.00    +0.000 NA
ATOM     29  C   UNL     1      47.116   4.197  17.287  0.00  0.00    +0.000 A 
ATOM     30  C   UNL     1      47.698   3.136  16.636  0.00  0.00    +0.000 A 
ATOM     31  C   UNL     1      48.984   2.843  17.016  0.00  0.00    +0.000 A 
ATOM     32  N   UNL     1      49.655   3.531  17.958  0.00  0.00    +0.000 NA
ENDBRANCH  26  27
BRANCH  26  33
ATOM     33  C   UNL     1      49.170   5.000  20.991  0.00  0.00    +0.000 C 
BRANCH  33  34
ATOM     34  O   UNL     1      48.379   3.808  20.953  0.00  0.00    +0.000 OA
ATOM     35  H   UNL     1      48.845   3.160  21.516  0.00  0.00    +0.000 HD
ENDBRANCH  33  34
ENDBRANCH  26  33
ENDBRANCH  24  26
ENDBRANCH  23  24
ENDBRANCH   4  23
TORSDOF 9
ENDMDL
