MODEL 1
REMARK VINA RESULT:    -7.982      0.000      0.000
REMARK INTER + INTRA:         -10.862
REMARK INTER:                 -10.315
REMARK INTRA:                  -0.548
REMARK UNBOUND:                -0.548
REMARK  Name = 
REMARK  5 active torsions:
REMARK  status: ('A' for Active; 'I' for Inactive)
REMARK    1  A    between atoms: C_2  and  C_4
REMARK    2  A    between atoms: C_8  and  O_9
REMARK    3  A    between atoms: O_9  and  C_10
REMARK    4  A    between atoms: C_10  and  C_11
REMARK    5  A    between atoms: C_16  and  C_17
REMARK                            x       y       z     vdW  Elec       q    Type
REMARK                         _______ _______ _______ _____ _____    ______ ____
ROOT
ATOM      1  C   UNL     1      44.921   4.872  11.719  0.00  0.00    +0.000 A 
ATOM      2  C   UNL     1      45.542   3.980  12.586  0.00  0.00    +0.000 A 
ATOM      3  F   UNL     1      45.227   2.678  12.544  0.00  0.00    +0.000 F 
ATOM      4  C   UNL     1      46.498   4.409  13.497  0.00  0.00    +0.000 A 
ATOM      5  C   UNL     1      46.913   5.742  13.500  0.00  0.00    +0.000 A 
ATOM      6  C   UNL     1      46.426   6.631  12.537  0.00  0.00    +0.000 A 
ATOM      7  C   UNL     1      45.382   6.188  11.699  0.00  0.00    +0.000 A 
ATOM      8  F   UNL     1      44.856   7.041  10.805  0.00  0.00    +0.000 F 
ENDROOT
BRANCH   6   9
ATOM      9  C   UNL     1      47.109   7.950  12.189  0.00  0.00    +0.000 C 
ATOM     10  C   UNL     1      48.495   7.630  11.587  0.00  0.00    +0.000 C 
ATOM     11  C   UNL     1      49.564   7.409  12.658  0.00  0.00    +0.000 C 
ATOM     12  N   UNL     1      49.683   8.567  13.543  0.00  0.00    +0.000 NA
ATOM     13  C   UNL     1      48.427   8.847  14.231  0.00  0.00    +0.000 C 
ATOM     14  C   UNL     1      47.247   9.033  13.275  0.00  0.00    +0.000 C 
ATOM     15  H   UNL     1      49.957   9.380  12.991  0.00  0.00    +0.000 HD
ENDBRANCH   6   9
BRANCH   1  16
ATOM     16  C   UNL     1      43.853   4.411  10.777  0.00  0.00    +0.000 C 
BRANCH  16  17
ATOM     17  O   UNL     1      44.309   4.643   9.448  0.00  0.00    +0.000 OA
BRANCH  17  22
ATOM     18  C   UNL     1      46.499   2.610   7.259  0.00  0.00    +0.000 A 
ATOM     19  C   UNL     1      46.206   1.382   7.833  0.00  0.00    +0.000 A 
ATOM     20  N   UNL     1      45.375   1.229   8.890  0.00  0.00    +0.000 NA
ATOM     21  C   UNL     1      44.799   2.360   9.362  0.00  0.00    +0.000 A 
ATOM     22  C   UNL     1      45.002   3.635   8.842  0.00  0.00    +0.000 A 
ATOM     23  C   UNL     1      45.877   3.761   7.762  0.00  0.00    +0.000 A 
BRANCH  18  25
ATOM     24  N   UNL     1      48.770   2.554   6.409  0.00  0.00    +0.000 N 
ATOM     25  C   UNL     1      47.437   2.650   6.121  0.00  0.00    +0.000 C 
ATOM     26  O   UNL     1      47.039   2.722   4.965  0.00  0.00    +0.000 OA
ATOM     27  H   UNL     1      49.386   2.464   5.605  0.00  0.00    +0.000 HD
ATOM     28  H   UNL     1      49.109   2.208   7.289  0.00  0.00    +0.000 HD
ENDBRANCH  18  25
ENDBRANCH  17  22
ENDBRANCH  16  17
ENDBRANCH   1  16
TORSDOF 5
ENDMDL
MODEL 2
REMARK VINA RESULT:    -7.421      1.686      2.507
REMARK INTER + INTRA:         -10.137
REMARK INTER:                  -9.724
REMARK INTRA:                  -0.413
REMARK UNBOUND:                -0.548
REMARK  Name = 
REMARK  5 active torsions:
REMARK  status: ('A' for Active; 'I' for Inactive)
REMARK    1  A    between atoms: C_2  and  C_4
REMARK    2  A    between atoms: C_8  and  O_9
REMARK    3  A    between atoms: O_9  and  C_10
REMARK    4  A    between atoms: C_10  and  C_11
REMARK    5  A    between atoms: C_16  and  C_17
REMARK                            x       y       z     vdW  Elec       q    Type
REMARK                         _______ _______ _______ _____ _____    ______ ____
ROOT
ATOM      1  C   UNL     1      44.504   4.570  12.146  0.00  0.00    +0.000 A 
ATOM      2  C   UNL     1      43.626   5.648  12.155  0.00  0.00    +0.000 A 
ATOM      3  F   UNL     1      42.308   5.438  12.044  0.00  0.00    +0.000 F 
ATOM      4  C   UNL     1      44.090   6.951  12.287  0.00  0.00    +0.000 A 
ATOM      5  C   UNL     1      45.448   7.193  12.498  0.00  0.00    +0.000 A 
ATOM      6  C   UNL     1      46.336   6.124  12.653  0.00  0.00    +0.000 A 
ATOM      7  C   UNL     1      45.850   4.823  12.408  0.00  0.00    +0.000 A 
ATOM      8  F   UNL     1      46.696   3.784  12.493  0.00  0.00    +0.000 F 
ENDROOT
BRANCH   6   9
ATOM      9  C   UNL     1      47.714   6.263  13.292  0.00  0.00    +0.000 C 
ATOM     10  C   UNL     1      47.601   7.257  14.469  0.00  0.00    +0.000 C 
ATOM     11  C   UNL     1      47.712   8.714  14.018  0.00  0.00    +0.000 C 
ATOM     12  N   UNL     1      48.962   8.960  13.303  0.00  0.00    +0.000 NA
ATOM     13  C   UNL     1      49.071   8.126  12.110  0.00  0.00    +0.000 C 
ATOM     14  C   UNL     1      48.918   6.632  12.407  0.00  0.00    +0.000 C 
ATOM     15  H   UNL     1      49.746   8.765  13.927  0.00  0.00    +0.000 HD
ENDBRANCH   6   9
BRANCH   1  16
ATOM     16  C   UNL     1      44.002   3.173  11.949  0.00  0.00    +0.000 C 
BRANCH  16  17
ATOM     17  O   UNL     1      43.508   3.067  10.617  0.00  0.00    +0.000 OA
BRANCH  17  22
ATOM     18  C   UNL     1      46.098   2.159   8.129  0.00  0.00    +0.000 A 
ATOM     19  C   UNL     1      46.239   3.423   7.573  0.00  0.00    +0.000 A 
ATOM     20  N   UNL     1      45.511   4.496   7.961  0.00  0.00    +0.000 NA
ATOM     21  C   UNL     1      44.629   4.285   8.966  0.00  0.00    +0.000 A 
ATOM     22  C   UNL     1      44.430   3.067   9.609  0.00  0.00    +0.000 A 
ATOM     23  C   UNL     1      45.186   1.975   9.176  0.00  0.00    +0.000 A 
BRANCH  18  25
ATOM     24  N   UNL     1      47.999   1.413   6.821  0.00  0.00    +0.000 N 
ATOM     25  C   UNL     1      46.938   1.064   7.607  0.00  0.00    +0.000 C 
ATOM     26  O   UNL     1      46.719  -0.105   7.900  0.00  0.00    +0.000 OA
ATOM     27  H   UNL     1      48.629   0.655   6.573  0.00  0.00    +0.000 HD
ATOM     28  H   UNL     1      48.373   2.346   6.801  0.00  0.00    +0.000 HD
ENDBRANCH  18  25
ENDBRANCH  17  22
ENDBRANCH  16  17
ENDBRANCH   1  16
TORSDOF 5
ENDMDL
MODEL 3
REMARK VINA RESULT:    -7.191      4.236      7.893
REMARK INTER + INTRA:          -9.841
REMARK INTER:                  -8.962
REMARK INTRA:                  -0.879
REMARK UNBOUND:                -0.548
REMARK  Name = 
REMARK  5 active torsions:
REMARK  status: ('A' for Active; 'I' for Inactive)
REMARK    1  A    between atoms: C_2  and  C_4
REMARK    2  A    between atoms: C_8  and  O_9
REMARK    3  A    between atoms: O_9  and  C_10
REMARK    4  A    between atoms: C_10  and  C_11
REMARK    5  A    between atoms: C_16  and  C_17
REMARK                            x       y       z     vdW  Elec       q    Type
REMARK                         _______ _______ _______ _____ _____    ______ ____
ROOT
ATOM      1  C   UNL     1      47.577   7.442  13.333  0.00  0.00    +0.000 A 
ATOM      2  C   UNL     1      46.799   8.552  13.023  0.00  0.00    +0.000 A 
ATOM      3  F   UNL     1      47.272   9.784  13.248  0.00  0.00    +0.000 F 
ATOM      4  C   UNL     1      45.532   8.410  12.470  0.00  0.00    +0.000 A 
ATOM      5  C   UNL     1      45.050   7.142  12.139  0.00  0.00    +0.000 A 
ATOM      6  C   UNL     1      45.869   6.019  12.290  0.00  0.00    +0.000 A 
ATOM      7  C   UNL     1      47.103   6.187  12.950  0.00  0.00    +0.000 A 
ATOM      8  F   UNL     1      47.883   5.114  13.159  0.00  0.00    +0.000 F 
ENDROOT
BRANCH   6   9
ATOM      9  C   UNL     1      45.612   4.692  11.583  0.00  0.00    +0.000 C 
ATOM     10  C   UNL     1      44.659   4.955  10.397  0.00  0.00    +0.000 C 
ATOM     11  C   UNL     1      43.189   4.966  10.816  0.00  0.00    +0.000 C 
ATOM     12  N   UNL     1      42.807   3.714  11.466  0.00  0.00    +0.000 NA
ATOM     13  C   UNL     1      43.601   3.470  12.667  0.00  0.00    +0.000 C 
ATOM     14  C   UNL     1      45.108   3.490  12.404  0.00  0.00    +0.000 C 
ATOM     15  H   UNL     1      42.939   2.945  10.809  0.00  0.00    +0.000 HD
ENDBRANCH   6   9
BRANCH   1  16
ATOM     16  C   UNL     1      48.918   7.601  13.977  0.00  0.00    +0.000 C 
BRANCH  16  17
ATOM     17  O   UNL     1      48.726   7.646  15.388  0.00  0.00    +0.000 OA
BRANCH  17  22
ATOM     18  C   UNL     1      48.645   4.482  17.313  0.00  0.00    +0.000 A 
ATOM     19  C   UNL     1      50.013   4.385  17.522  0.00  0.00    +0.000 A 
ATOM     20  N   UNL     1      50.910   5.276  17.037  0.00  0.00    +0.000 NA
ATOM     21  C   UNL     1      50.396   6.316  16.338  0.00  0.00    +0.000 A 
ATOM     22  C   UNL     1      49.041   6.521  16.096  0.00  0.00    +0.000 A 
ATOM     23  C   UNL     1      48.143   5.577  16.596  0.00  0.00    +0.000 A 
BRANCH  18  25
ATOM     24  N   UNL     1      48.190   2.829  19.028  0.00  0.00    +0.000 N 
ATOM     25  C   UNL     1      47.771   3.437  17.878  0.00  0.00    +0.000 C 
ATOM     26  O   UNL     1      46.696   3.154  17.364  0.00  0.00    +0.000 OA
ATOM     27  H   UNL     1      47.518   2.200  19.461  0.00  0.00    +0.000 HD
ATOM     28  H   UNL     1      48.897   3.226  19.622  0.00  0.00    +0.000 HD
ENDBRANCH  18  25
ENDBRANCH  17  22
ENDBRANCH  16  17
ENDBRANCH   1  16
TORSDOF 5
ENDMDL
MODEL 4
REMARK VINA RESULT:    -6.995      2.061      3.547
REMARK INTER + INTRA:          -9.588
REMARK INTER:                  -8.598
REMARK INTRA:                  -0.990
REMARK UNBOUND:                -0.548
REMARK  Name = 
REMARK  5 active torsions:
REMARK  status: ('A' for Active; 'I' for Inactive)
REMARK    1  A    between atoms: C_2  and  C_4
REMARK    2  A    between atoms: C_8  and  O_9
REMARK    3  A    between atoms: O_9  and  C_10
REMARK    4  A    between atoms: C_10  and  C_11
REMARK    5  A    between atoms: C_16  and  C_17
REMARK                            x       y       z     vdW  Elec       q    Type
REMARK                         _______ _______ _______ _____ _____    ______ ____
ROOT
ATOM      1  C   UNL     1      46.062   7.675  12.469  0.00  0.00    +0.000 A 
ATOM      2  C   UNL     1      45.834   9.047  12.474  0.00  0.00    +0.000 A 
ATOM      3  F   UNL     1      44.633   9.524  12.825  0.00  0.00    +0.000 F 
ATOM      4  C   UNL     1      46.838   9.943  12.131  0.00  0.00    +0.000 A 
ATOM      5  C   UNL     1      48.125   9.480  11.851  0.00  0.00    +0.000 A 
ATOM      6  C   UNL     1      48.428   8.122  11.992  0.00  0.00    +0.000 A 
ATOM      7  C   UNL     1      47.364   7.231  12.238  0.00  0.00    +0.000 A 
ATOM      8  F   UNL     1      47.619   5.916  12.318  0.00  0.00    +0.000 F 
ENDROOT
BRANCH   6   9
ATOM      9  C   UNL     1      49.851   7.589  12.126  0.00  0.00    +0.000 C 
ATOM     10  C   UNL     1      50.250   7.655  13.617  0.00  0.00    +0.000 C 
ATOM     11  C   UNL     1      50.775   9.032  14.024  0.00  0.00    +0.000 C 
ATOM     12  N   UNL     1      51.917   9.434  13.206  0.00  0.00    +0.000 NA
ATOM     13  C   UNL     1      51.565   9.503  11.791  0.00  0.00    +0.000 C 
ATOM     14  C   UNL     1      50.967   8.199  11.258  0.00  0.00    +0.000 C 
ATOM     15  H   UNL     1      52.673   8.760  13.336  0.00  0.00    +0.000 HD
ENDBRANCH   6   9
BRANCH   1  16
ATOM     16  C   UNL     1      44.961   6.713  12.788  0.00  0.00    +0.000 C 
BRANCH  16  17
ATOM     17  O   UNL     1      44.174   6.538  11.613  0.00  0.00    +0.000 OA
BRANCH  17  22
ATOM     18  C   UNL     1      45.096   3.796   9.299  0.00  0.00    +0.000 A 
ATOM     19  C   UNL     1      44.258   2.835   9.846  0.00  0.00    +0.000 A 
ATOM     20  N   UNL     1      43.468   3.055  10.923  0.00  0.00    +0.000 NA
ATOM     21  C   UNL     1      43.511   4.303  11.445  0.00  0.00    +0.000 A 
ATOM     22  C   UNL     1      44.292   5.346  10.957  0.00  0.00    +0.000 A 
ATOM     23  C   UNL     1      45.107   5.082   9.855  0.00  0.00    +0.000 A 
BRANCH  18  25
ATOM     24  N   UNL     1      46.223   2.104   7.977  0.00  0.00    +0.000 N 
ATOM     25  C   UNL     1      45.924   3.428   8.134  0.00  0.00    +0.000 C 
ATOM     26  O   UNL     1      46.292   4.266   7.321  0.00  0.00    +0.000 OA
ATOM     27  H   UNL     1      46.691   1.861   7.107  0.00  0.00    +0.000 HD
ATOM     28  H   UNL     1      45.710   1.375   8.441  0.00  0.00    +0.000 HD
ENDBRANCH  18  25
ENDBRANCH  17  22
ENDBRANCH  16  17
ENDBRANCH   1  16
TORSDOF 5
ENDMDL
MODEL 5
REMARK VINA RESULT:    -6.969      3.461      5.332
REMARK INTER + INTRA:          -9.553
REMARK INTER:                  -8.853
REMARK INTRA:                  -0.701
REMARK UNBOUND:                -0.548
REMARK  Name = 
REMARK  5 active torsions:
REMARK  status: ('A' for Active; 'I' for Inactive)
REMARK    1  A    between atoms: C_2  and  C_4
REMARK    2  A    between atoms: C_8  and  O_9
REMARK    3  A    between atoms: O_9  and  C_10
REMARK    4  A    between atoms: C_10  and  C_11
REMARK    5  A    between atoms: C_16  and  C_17
REMARK                            x       y       z     vdW  Elec       q    Type
REMARK                         _______ _______ _______ _____ _____    ______ ____
ROOT
ATOM      1  C   UNL     1      47.821   6.626  13.728  0.00  0.00    +0.000 A 
ATOM      2  C   UNL     1      48.442   7.694  14.366  0.00  0.00    +0.000 A 
ATOM      3  F   UNL     1      48.523   8.882  13.752  0.00  0.00    +0.000 F 
ATOM      4  C   UNL     1      48.975   7.559  15.641  0.00  0.00    +0.000 A 
ATOM      5  C   UNL     1      48.823   6.361  16.341  0.00  0.00    +0.000 A 
ATOM      6  C   UNL     1      48.067   5.320  15.793  0.00  0.00    +0.000 A 
ATOM      7  C   UNL     1      47.632   5.452  14.459  0.00  0.00    +0.000 A 
ATOM      8  F   UNL     1      46.954   4.443  13.890  0.00  0.00    +0.000 F 
ENDROOT
BRANCH   6   9
ATOM      9  C   UNL     1      47.495   4.173  16.620  0.00  0.00    +0.000 C 
ATOM     10  C   UNL     1      47.246   4.690  18.054  0.00  0.00    +0.000 C 
ATOM     11  C   UNL     1      48.501   4.633  18.925  0.00  0.00    +0.000 C 
ATOM     12  N   UNL     1      49.044   3.279  18.994  0.00  0.00    +0.000 NA
ATOM     13  C   UNL     1      49.408   2.779  17.672  0.00  0.00    +0.000 C 
ATOM     14  C   UNL     1      48.252   2.833  16.671  0.00  0.00    +0.000 C 
ATOM     15  H   UNL     1      48.347   2.662  19.410  0.00  0.00    +0.000 HD
ENDBRANCH   6   9
BRANCH   1  16
ATOM     16  C   UNL     1      47.296   6.763  12.334  0.00  0.00    +0.000 C 
BRANCH  16  17
ATOM     17  O   UNL     1      45.900   7.035  12.414  0.00  0.00    +0.000 OA
BRANCH  17  22
ATOM     18  C   UNL     1      44.227   4.311  10.542  0.00  0.00    +0.000 A 
ATOM     19  C   UNL     1      43.117   4.206  11.367  0.00  0.00    +0.000 A 
ATOM     20  N   UNL     1      42.941   4.951  12.484  0.00  0.00    +0.000 NA
ATOM     21  C   UNL     1      43.912   5.853  12.756  0.00  0.00    +0.000 A 
ATOM     22  C   UNL     1      45.049   6.059  11.980  0.00  0.00    +0.000 A 
ATOM     23  C   UNL     1      45.209   5.264  10.843  0.00  0.00    +0.000 A 
BRANCH  18  25
ATOM     24  N   UNL     1      44.230   4.023   8.134  0.00  0.00    +0.000 N 
ATOM     25  C   UNL     1      44.313   3.429   9.362  0.00  0.00    +0.000 C 
ATOM     26  O   UNL     1      44.494   2.224   9.476  0.00  0.00    +0.000 OA
ATOM     27  H   UNL     1      44.411   3.414   7.340  0.00  0.00    +0.000 HD
ATOM     28  H   UNL     1      44.374   5.008   7.999  0.00  0.00    +0.000 HD
ENDBRANCH  18  25
ENDBRANCH  17  22
ENDBRANCH  16  17
ENDBRANCH   1  16
TORSDOF 5
ENDMDL
MODEL 6
REMARK VINA RESULT:    -6.897      2.588      7.072
REMARK INTER + INTRA:          -9.460
REMARK INTER:                  -9.156
REMARK INTRA:                  -0.304
REMARK UNBOUND:                -0.548
REMARK  Name = 
REMARK  5 active torsions:
REMARK  status: ('A' for Active; 'I' for Inactive)
REMARK    1  A    between atoms: C_2  and  C_4
REMARK    2  A    between atoms: C_8  and  O_9
REMARK    3  A    between atoms: O_9  and  C_10
REMARK    4  A    between atoms: C_10  and  C_11
REMARK    5  A    between atoms: C_16  and  C_17
REMARK                            x       y       z     vdW  Elec       q    Type
REMARK                         _______ _______ _______ _____ _____    ______ ____
ROOT
ATOM      1  C   UNL     1      45.288   5.817  11.270  0.00  0.00    +0.000 A 
ATOM      2  C   UNL     1      44.367   5.273  12.158  0.00  0.00    +0.000 A 
ATOM      3  F   UNL     1      44.044   5.937  13.276  0.00  0.00    +0.000 F 
ATOM      4  C   UNL     1      43.759   4.050  11.904  0.00  0.00    +0.000 A 
ATOM      5  C   UNL     1      44.005   3.382  10.703  0.00  0.00    +0.000 A 
ATOM      6  C   UNL     1      44.802   3.976   9.720  0.00  0.00    +0.000 A 
ATOM      7  C   UNL     1      45.485   5.163  10.053  0.00  0.00    +0.000 A 
ATOM      8  F   UNL     1      46.303   5.722   9.147  0.00  0.00    +0.000 F 
ENDROOT
BRANCH   6   9
ATOM      9  C   UNL     1      44.788   3.547   8.256  0.00  0.00    +0.000 C 
ATOM     10  C   UNL     1      44.599   2.015   8.205  0.00  0.00    +0.000 C 
ATOM     11  C   UNL     1      45.915   1.255   8.369  0.00  0.00    +0.000 C 
ATOM     12  N   UNL     1      46.891   1.649   7.356  0.00  0.00    +0.000 NA
ATOM     13  C   UNL     1      47.199   3.074   7.433  0.00  0.00    +0.000 C 
ATOM     14  C   UNL     1      45.956   3.961   7.341  0.00  0.00    +0.000 C 
ATOM     15  H   UNL     1      46.518   1.431   6.432  0.00  0.00    +0.000 HD
ENDBRANCH   6   9
BRANCH   1  16
ATOM     16  C   UNL     1      45.979   7.109  11.575  0.00  0.00    +0.000 C 
BRANCH  16  17
ATOM     17  O   UNL     1      47.361   6.830  11.786  0.00  0.00    +0.000 OA
BRANCH  17  22
ATOM     18  C   UNL     1      47.873   5.424  15.175  0.00  0.00    +0.000 A 
ATOM     19  C   UNL     1      48.713   6.426  15.641  0.00  0.00    +0.000 A 
ATOM     20  N   UNL     1      49.115   7.476  14.886  0.00  0.00    +0.000 NA
ATOM     21  C   UNL     1      48.626   7.524  13.625  0.00  0.00    +0.000 A 
ATOM     22  C   UNL     1      47.757   6.588  13.070  0.00  0.00    +0.000 A 
ATOM     23  C   UNL     1      47.373   5.510  13.869  0.00  0.00    +0.000 A 
BRANCH  18  25
ATOM     24  N   UNL     1      47.003   4.662  17.307  0.00  0.00    +0.000 N 
ATOM     25  C   UNL     1      47.520   4.321  16.088  0.00  0.00    +0.000 C 
ATOM     26  O   UNL     1      47.645   3.149  15.755  0.00  0.00    +0.000 OA
ATOM     27  H   UNL     1      46.658   3.888  17.869  0.00  0.00    +0.000 HD
ATOM     28  H   UNL     1      46.622   5.573  17.496  0.00  0.00    +0.000 HD
ENDBRANCH  18  25
ENDBRANCH  17  22
ENDBRANCH  16  17
ENDBRANCH   1  16
TORSDOF 5
ENDMDL
MODEL 7
REMARK VINA RESULT:    -6.820      3.600      7.253
REMARK INTER + INTRA:          -9.361
REMARK INTER:                  -8.494
REMARK INTRA:                  -0.867
REMARK UNBOUND:                -0.548
REMARK  Name = 
REMARK  5 active torsions:
REMARK  status: ('A' for Active; 'I' for Inactive)
REMARK    1  A    between atoms: C_2  and  C_4
REMARK    2  A    between atoms: C_8  and  O_9
REMARK    3  A    between atoms: O_9  and  C_10
REMARK    4  A    between atoms: C_10  and  C_11
REMARK    5  A    between atoms: C_16  and  C_17
REMARK                            x       y       z     vdW  Elec       q    Type
REMARK                         _______ _______ _______ _____ _____    ______ ____
ROOT
ATOM      1  C   UNL     1      47.411   6.795  12.603  0.00  0.00    +0.000 A 
ATOM      2  C   UNL     1      47.628   6.152  13.816  0.00  0.00    +0.000 A 
ATOM      3  F   UNL     1      48.493   6.666  14.701  0.00  0.00    +0.000 F 
ATOM      4  C   UNL     1      46.953   4.981  14.140  0.00  0.00    +0.000 A 
ATOM      5  C   UNL     1      45.979   4.473  13.279  0.00  0.00    +0.000 A 
ATOM      6  C   UNL     1      45.624   5.181  12.126  0.00  0.00    +0.000 A 
ATOM      7  C   UNL     1      46.400   6.304  11.777  0.00  0.00    +0.000 A 
ATOM      8  F   UNL     1      46.116   6.967  10.644  0.00  0.00    +0.000 F 
ENDROOT
BRANCH   6   9
ATOM      9  C   UNL     1      44.321   4.949  11.368  0.00  0.00    +0.000 C 
ATOM     10  C   UNL     1      43.334   4.230  12.314  0.00  0.00    +0.000 C 
ATOM     11  C   UNL     1      43.539   2.715  12.335  0.00  0.00    +0.000 C 
ATOM     12  N   UNL     1      43.423   2.140  10.998  0.00  0.00    +0.000 NA
ATOM     13  C   UNL     1      44.413   2.701  10.084  0.00  0.00    +0.000 C 
ATOM     14  C   UNL     1      44.362   4.228  10.008  0.00  0.00    +0.000 C 
ATOM     15  H   UNL     1      42.486   2.323  10.637  0.00  0.00    +0.000 HD
ENDBRANCH   6   9
BRANCH   1  16
ATOM     16  C   UNL     1      48.181   8.026  12.238  0.00  0.00    +0.000 C 
BRANCH  16  17
ATOM     17  O   UNL     1      47.580   9.134  12.903  0.00  0.00    +0.000 OA
BRANCH  17  22
ATOM     18  C   UNL     1      44.621  10.669  11.286  0.00  0.00    +0.000 A 
ATOM     19  C   UNL     1      45.314  11.625  10.557  0.00  0.00    +0.000 A 
ATOM     20  N   UNL     1      46.657  11.784  10.616  0.00  0.00    +0.000 NA
ATOM     21  C   UNL     1      47.322  10.923  11.421  0.00  0.00    +0.000 A 
ATOM     22  C   UNL     1      46.729   9.912  12.171  0.00  0.00    +0.000 A 
ATOM     23  C   UNL     1      45.340   9.784  12.101  0.00  0.00    +0.000 A 
BRANCH  18  25
ATOM     24  N   UNL     1      42.413  10.948  12.248  0.00  0.00    +0.000 N 
ATOM     25  C   UNL     1      43.154  10.607  11.151  0.00  0.00    +0.000 C 
ATOM     26  O   UNL     1      42.620  10.305  10.091  0.00  0.00    +0.000 OA
ATOM     27  H   UNL     1      41.409  11.013  12.096  0.00  0.00    +0.000 HD
ATOM     28  H   UNL     1      42.796  11.468  13.018  0.00  0.00    +0.000 HD
ENDBRANCH  18  25
ENDBRANCH  17  22
ENDBRANCH  16  17
ENDBRANCH   1  16
TORSDOF 5
ENDMDL
MODEL 8
REMARK VINA RESULT:    -6.246      2.812      4.375
REMARK INTER + INTRA:          -8.619
REMARK INTER:                  -7.769
REMARK INTRA:                  -0.850
REMARK UNBOUND:                -0.548
REMARK  Name = 
REMARK  5 active torsions:
REMARK  status: ('A' for Active; 'I' for Inactive)
REMARK    1  A    between atoms: C_2  and  C_4
REMARK    2  A    between atoms: C_8  and  O_9
REMARK    3  A    between atoms: O_9  and  C_10
REMARK    4  A    between atoms: C_10  and  C_11
REMARK    5  A    between atoms: C_16  and  C_17
REMARK                            x       y       z     vdW  Elec       q    Type
REMARK                         _______ _______ _______ _____ _____    ______ ____
ROOT
ATOM      1  C   UNL     1      48.231   6.863  13.737  0.00  0.00    +0.000 A 
ATOM      2  C   UNL     1      48.814   7.170  14.961  0.00  0.00    +0.000 A 
ATOM      3  F   UNL     1      48.539   6.424  16.039  0.00  0.00    +0.000 F 
ATOM      4  C   UNL     1      49.693   8.238  15.091  0.00  0.00    +0.000 A 
ATOM      5  C   UNL     1      50.071   8.974  13.967  0.00  0.00    +0.000 A 
ATOM      6  C   UNL     1      49.628   8.593  12.697  0.00  0.00    +0.000 A 
ATOM      7  C   UNL     1      48.657   7.574  12.616  0.00  0.00    +0.000 A 
ATOM      8  F   UNL     1      48.172   7.229  11.412  0.00  0.00    +0.000 F 
ENDROOT
BRANCH   6   9
ATOM      9  C   UNL     1      50.298   9.045  11.403  0.00  0.00    +0.000 C 
ATOM     10  C   UNL     1      51.341   7.978  11.002  0.00  0.00    +0.000 C 
ATOM     11  C   UNL     1      52.681   8.172  11.712  0.00  0.00    +0.000 C 
ATOM     12  N   UNL     1      53.235   9.499  11.458  0.00  0.00    +0.000 NA
ATOM     13  C   UNL     1      52.339  10.553  11.925  0.00  0.00    +0.000 C 
ATOM     14  C   UNL     1      50.931  10.448  11.336  0.00  0.00    +0.000 C 
ATOM     15  H   UNL     1      53.394   9.608  10.456  0.00  0.00    +0.000 HD
ENDBRANCH   6   9
BRANCH   1  16
ATOM     16  C   UNL     1      47.244   5.744  13.616  0.00  0.00    +0.000 C 
BRANCH  16  17
ATOM     17  O   UNL     1      45.977   6.308  13.290  0.00  0.00    +0.000 OA
BRANCH  17  22
ATOM     18  C   UNL     1      44.712   4.690  10.207  0.00  0.00    +0.000 A 
ATOM     19  C   UNL     1      43.454   4.368  10.698  0.00  0.00    +0.000 A 
ATOM     20  N   UNL     1      43.056   4.631  11.965  0.00  0.00    +0.000 NA
ATOM     21  C   UNL     1      43.956   5.266  12.752  0.00  0.00    +0.000 A 
ATOM     22  C   UNL     1      45.230   5.658  12.351  0.00  0.00    +0.000 A 
ATOM     23  C   UNL     1      45.616   5.359  11.043  0.00  0.00    +0.000 A 
BRANCH  18  25
ATOM     24  N   UNL     1      44.212   3.437   8.192  0.00  0.00    +0.000 N 
ATOM     25  C   UNL     1      45.035   4.335   8.812  0.00  0.00    +0.000 C 
ATOM     26  O   UNL     1      45.973   4.854   8.220  0.00  0.00    +0.000 OA
ATOM     27  H   UNL     1      44.383   3.299   7.199  0.00  0.00    +0.000 HD
ATOM     28  H   UNL     1      43.292   3.221   8.534  0.00  0.00    +0.000 HD
ENDBRANCH  18  25
ENDBRANCH  17  22
ENDBRANCH  16  17
ENDBRANCH   1  16
TORSDOF 5
ENDMDL
MODEL 9
REMARK VINA RESULT:    -6.173      4.432      6.290
REMARK INTER + INTRA:          -8.526
REMARK INTER:                  -7.756
REMARK INTRA:                  -0.769
REMARK UNBOUND:                -0.548
REMARK  Name = 
REMARK  5 active torsions:
REMARK  status: ('A' for Active; 'I' for Inactive)
REMARK    1  A    between atoms: C_2  and  C_4
REMARK    2  A    between atoms: C_8  and  O_9
REMARK    3  A    between atoms: O_9  and  C_10
REMARK    4  A    between atoms: C_10  and  C_11
REMARK    5  A    between atoms: C_16  and  C_17
REMARK                            x       y       z     vdW  Elec       q    Type
REMARK                         _______ _______ _______ _____ _____    ______ ____
ROOT
ATOM      1  C   UNL     1      48.242   4.321  16.521  0.00  0.00    +0.000 A 
ATOM      2  C   UNL     1      48.866   3.160  16.962  0.00  0.00    +0.000 A 
ATOM      3  F   UNL     1      48.397   1.963  16.585  0.00  0.00    +0.000 F 
ATOM      4  C   UNL     1      49.984   3.213  17.786  0.00  0.00    +0.000 A 
ATOM      5  C   UNL     1      50.550   4.445  18.119  0.00  0.00    +0.000 A 
ATOM      6  C   UNL     1      50.043   5.623  17.563  0.00  0.00    +0.000 A 
ATOM      7  C   UNL     1      48.848   5.541  16.819  0.00  0.00    +0.000 A 
ATOM      8  F   UNL     1      48.308   6.666  16.324  0.00  0.00    +0.000 F 
ENDROOT
BRANCH   6   9
ATOM      9  C   UNL     1      50.823   6.934  17.518  0.00  0.00    +0.000 C 
ATOM     10  C   UNL     1      51.672   6.944  16.227  0.00  0.00    +0.000 C 
ATOM     11  C   UNL     1      53.002   6.209  16.394  0.00  0.00    +0.000 C 
ATOM     12  N   UNL     1      53.791   6.770  17.489  0.00  0.00    +0.000 NA
ATOM     13  C   UNL     1      53.081   6.681  18.761  0.00  0.00    +0.000 C 
ATOM     14  C   UNL     1      51.696   7.330  18.723  0.00  0.00    +0.000 C 
ATOM     15  H   UNL     1      53.997   7.748  17.283  0.00  0.00    +0.000 HD
ENDBRANCH   6   9
BRANCH   1  16
ATOM     16  C   UNL     1      47.007   4.255  15.678  0.00  0.00    +0.000 C 
BRANCH  16  17
ATOM     17  O   UNL     1      47.403   4.319  14.310  0.00  0.00    +0.000 OA
BRANCH  17  22
ATOM     18  C   UNL     1      44.542   5.326  12.184  0.00  0.00    +0.000 A 
ATOM     19  C   UNL     1      45.137   6.452  11.634  0.00  0.00    +0.000 A 
ATOM     20  N   UNL     1      46.380   6.878  11.963  0.00  0.00    +0.000 NA
ATOM     21  C   UNL     1      47.051   6.117  12.859  0.00  0.00    +0.000 A 
ATOM     22  C   UNL     1      46.558   4.956  13.447  0.00  0.00    +0.000 A 
ATOM     23  C   UNL     1      45.268   4.552  13.099  0.00  0.00    +0.000 A 
BRANCH  18  25
ATOM     24  N   UNL     1      42.237   5.969  11.793  0.00  0.00    +0.000 N 
ATOM     25  C   UNL     1      43.174   4.975  11.759  0.00  0.00    +0.000 C 
ATOM     26  O   UNL     1      42.897   3.853  11.352  0.00  0.00    +0.000 OA
ATOM     27  H   UNL     1      41.335   5.736  11.385  0.00  0.00    +0.000 HD
ATOM     28  H   UNL     1      42.483   6.943  11.837  0.00  0.00    +0.000 HD
ENDBRANCH  18  25
ENDBRANCH  17  22
ENDBRANCH  16  17
ENDBRANCH   1  16
TORSDOF 5
ENDMDL
