MODEL 1
REMARK VINA RESULT:    -7.218      0.000      0.000
REMARK INTER + INTRA:          -9.448
REMARK INTER:                  -9.117
REMARK INTRA:                  -0.330
REMARK UNBOUND:                -0.330
REMARK  Name = 
REMARK  5 active torsions:
REMARK  status: ('A' for Active; 'I' for Inactive)
REMARK    1  A    between atoms: N_1  and  C_2
REMARK    2  A    between atoms: C_2  and  C_3
REMARK    3  A    between atoms: C_7  and  C_8
REMARK    4  A    between atoms: C_9  and  N_10
REMARK    5  A    between atoms: C_14  and  C_15
REMARK                            x       y       z     vdW  Elec       q    Type
REMARK                         _______ _______ _______ _____ _____    ______ ____
ROOT
ATOM      1  N   UNL     1      46.844   3.552   6.633  0.00  0.00    +0.000 N 
ATOM      2  C   UNL     1      46.109   3.504   7.834  0.00  0.00    +0.000 A 
ATOM      3  C   UNL     1      45.639   2.320   8.391  0.00  0.00    +0.000 A 
ATOM      4  C   UNL     1      44.876   2.354   9.557  0.00  0.00    +0.000 A 
ATOM      5  C   UNL     1      44.598   3.573  10.167  0.00  0.00    +0.000 A 
ATOM      6  C   UNL     1      45.129   4.705   9.571  0.00  0.00    +0.000 A 
ATOM      7  N   UNL     1      45.872   4.696   8.429  0.00  0.00    +0.000 NA
ATOM      8  H   UNL     1      46.918   4.542   6.402  0.00  0.00    +0.000 HD
ENDROOT
BRANCH   5   9
ATOM      9  C   UNL     1      43.753   3.578  11.385  0.00  0.00    +0.000 C 
ATOM     10  N   UNL     1      43.933   2.608  12.327  0.00  0.00    +0.000 N 
ATOM     11  O   UNL     1      42.907   4.447  11.562  0.00  0.00    +0.000 OA
ATOM     12  H   UNL     1      44.602   1.857  12.292  0.00  0.00    +0.000 HD
ATOM     13  H   UNL     1      43.341   2.672  13.147  0.00  0.00    +0.000 HD
ENDBRANCH   5   9
BRANCH   1  15
ATOM     14  C   UNL     1      47.179   1.554   5.255  0.00  0.00    +0.000 C 
ATOM     15  C   UNL     1      46.612   2.733   5.547  0.00  0.00    +0.000 C 
BRANCH  14  20
ATOM     16  C   UNL     1      46.611  -1.619   3.288  0.00  0.00    +0.000 A 
ATOM     17  C   UNL     1      45.908  -1.132   2.180  0.00  0.00    +0.000 A 
ATOM     18  C   UNL     1      45.640   0.231   2.056  0.00  0.00    +0.000 A 
ATOM     19  C   UNL     1      46.074   1.122   3.040  0.00  0.00    +0.000 A 
ATOM     20  C   UNL     1      46.793   0.665   4.150  0.00  0.00    +0.000 A 
ATOM     21  C   UNL     1      47.047  -0.709   4.267  0.00  0.00    +0.000 A 
BRANCH  16  22
ATOM     22  C   UNL     1      46.908  -3.090   3.426  0.00  0.00    +0.000 C 
BRANCH  22  23
ATOM     23  N   UNL     1      46.171  -3.691   4.531  0.00  0.00    +0.000 NA
ATOM     24  H   UNL     1      45.910  -4.642   4.279  0.00  0.00    +0.000 HD
ATOM     25  H   UNL     1      45.300  -3.178   4.661  0.00  0.00    +0.000 HD
ENDBRANCH  22  23
ENDBRANCH  16  22
ENDBRANCH  14  20
ENDBRANCH   1  15
TORSDOF 5
ENDMDL
MODEL 2
REMARK VINA RESULT:    -6.544      3.612      5.282
REMARK INTER + INTRA:          -8.596
REMARK INTER:                  -8.365
REMARK INTRA:                  -0.231
REMARK UNBOUND:                -0.330
REMARK  Name = 
REMARK  5 active torsions:
REMARK  status: ('A' for Active; 'I' for Inactive)
REMARK    1  A    between atoms: N_1  and  C_2
REMARK    2  A    between atoms: C_2  and  C_3
REMARK    3  A    between atoms: C_7  and  C_8
REMARK    4  A    between atoms: C_9  and  N_10
REMARK    5  A    between atoms: C_14  and  C_15
REMARK                            x       y       z     vdW  Elec       q    Type
REMARK                         _______ _______ _______ _____ _____    ______ ____
ROOT
ATOM      1  N   UNL     1      44.332   5.426  10.209  0.00  0.00    +0.000 N 
ATOM      2  C   UNL     1      45.178   6.158  11.065  0.00  0.00    +0.000 A 
ATOM      3  C   UNL     1      46.531   6.354  10.811  0.00  0.00    +0.000 A 
ATOM      4  C   UNL     1      47.318   7.049  11.728  0.00  0.00    +0.000 A 
ATOM      5  C   UNL     1      46.743   7.555  12.890  0.00  0.00    +0.000 A 
ATOM      6  C   UNL     1      45.383   7.347  13.055  0.00  0.00    +0.000 A 
ATOM      7  N   UNL     1      44.596   6.667  12.175  0.00  0.00    +0.000 NA
ATOM      8  H   UNL     1      43.455   5.326  10.718  0.00  0.00    +0.000 HD
ENDROOT
BRANCH   5   9
ATOM      9  C   UNL     1      47.614   8.256  13.862  0.00  0.00    +0.000 C 
ATOM     10  N   UNL     1      47.597   9.619  13.914  0.00  0.00    +0.000 N 
ATOM     11  O   UNL     1      48.338   7.629  14.628  0.00  0.00    +0.000 OA
ATOM     12  H   UNL     1      47.035  10.231  13.346  0.00  0.00    +0.000 HD
ATOM     13  H   UNL     1      48.198  10.043  14.611  0.00  0.00    +0.000 HD
ENDBRANCH   5   9
BRANCH   1  15
ATOM     14  C   UNL     1      45.443   4.212   8.393  0.00  0.00    +0.000 C 
ATOM     15  C   UNL     1      44.717   4.295   9.516  0.00  0.00    +0.000 C 
BRANCH  14  20
ATOM     16  C   UNL     1      47.064   1.893   5.893  0.00  0.00    +0.000 A 
ATOM     17  C   UNL     1      47.075   0.688   6.604  0.00  0.00    +0.000 A 
ATOM     18  C   UNL     1      46.532   0.619   7.887  0.00  0.00    +0.000 A 
ATOM     19  C   UNL     1      45.971   1.756   8.472  0.00  0.00    +0.000 A 
ATOM     20  C   UNL     1      45.932   2.970   7.777  0.00  0.00    +0.000 A 
ATOM     21  C   UNL     1      46.490   3.028   6.492  0.00  0.00    +0.000 A 
BRANCH  16  22
ATOM     22  C   UNL     1      47.645   1.972   4.504  0.00  0.00    +0.000 C 
BRANCH  22  23
ATOM     23  N   UNL     1      47.489   0.717   3.779  0.00  0.00    +0.000 NA
ATOM     24  H   UNL     1      48.396   0.420   3.428  0.00  0.00    +0.000 HD
ATOM     25  H   UNL     1      46.904   0.881   2.961  0.00  0.00    +0.000 HD
ENDBRANCH  22  23
ENDBRANCH  16  22
ENDBRANCH  14  20
ENDBRANCH   1  15
TORSDOF 5
ENDMDL
MODEL 3
REMARK VINA RESULT:    -6.187      8.506     10.894
REMARK INTER + INTRA:          -8.144
REMARK INTER:                  -7.815
REMARK INTRA:                  -0.330
REMARK UNBOUND:                -0.330
REMARK  Name = 
REMARK  5 active torsions:
REMARK  status: ('A' for Active; 'I' for Inactive)
REMARK    1  A    between atoms: N_1  and  C_2
REMARK    2  A    between atoms: C_2  and  C_3
REMARK    3  A    between atoms: C_7  and  C_8
REMARK    4  A    between atoms: C_9  and  N_10
REMARK    5  A    between atoms: C_14  and  C_15
REMARK                            x       y       z     vdW  Elec       q    Type
REMARK                         _______ _______ _______ _____ _____    ______ ____
ROOT
ATOM      1  N   UNL     1      47.478   3.149  15.999  0.00  0.00    +0.000 N 
ATOM      2  C   UNL     1      48.742   3.192  16.619  0.00  0.00    +0.000 A 
ATOM      3  C   UNL     1      49.276   4.348  17.178  0.00  0.00    +0.000 A 
ATOM      4  C   UNL     1      50.555   4.326  17.732  0.00  0.00    +0.000 A 
ATOM      5  C   UNL     1      51.288   3.143  17.735  0.00  0.00    +0.000 A 
ATOM      6  C   UNL     1      50.675   2.027  17.191  0.00  0.00    +0.000 A 
ATOM      7  N   UNL     1      49.429   2.026  16.639  0.00  0.00    +0.000 NA
ATOM      8  H   UNL     1      47.423   2.230  15.562  0.00  0.00    +0.000 HD
ENDROOT
BRANCH   5   9
ATOM      9  C   UNL     1      52.659   3.163  18.299  0.00  0.00    +0.000 C 
ATOM     10  N   UNL     1      53.158   2.036  18.883  0.00  0.00    +0.000 N 
ATOM     11  O   UNL     1      53.353   4.171  18.235  0.00  0.00    +0.000 OA
ATOM     12  H   UNL     1      52.684   1.153  18.979  0.00  0.00    +0.000 HD
ATOM     13  H   UNL     1      54.106   2.102  19.234  0.00  0.00    +0.000 HD
ENDBRANCH   5   9
BRANCH   1  15
ATOM     14  C   UNL     1      47.095   4.390  13.920  0.00  0.00    +0.000 C 
ATOM     15  C   UNL     1      46.952   4.172  15.235  0.00  0.00    +0.000 C 
BRANCH  14  20
ATOM     16  C   UNL     1      44.436   6.063  11.826  0.00  0.00    +0.000 A 
ATOM     17  C   UNL     1      44.900   7.384  11.799  0.00  0.00    +0.000 A 
ATOM     18  C   UNL     1      46.089   7.728  12.439  0.00  0.00    +0.000 A 
ATOM     19  C   UNL     1      46.831   6.754  13.112  0.00  0.00    +0.000 A 
ATOM     20  C   UNL     1      46.399   5.424  13.141  0.00  0.00    +0.000 A 
ATOM     21  C   UNL     1      45.196   5.093  12.502  0.00  0.00    +0.000 A 
BRANCH  16  22
ATOM     22  C   UNL     1      43.153   5.684  11.132  0.00  0.00    +0.000 C 
BRANCH  22  23
ATOM     23  N   UNL     1      41.996   6.325  11.744  0.00  0.00    +0.000 NA
ATOM     24  H   UNL     1      42.312   7.100  12.323  0.00  0.00    +0.000 HD
ATOM     25  H   UNL     1      41.547   5.660  12.373  0.00  0.00    +0.000 HD
ENDBRANCH  22  23
ENDBRANCH  16  22
ENDBRANCH  14  20
ENDBRANCH   1  15
TORSDOF 5
ENDMDL
MODEL 4
REMARK VINA RESULT:    -6.171      6.888     12.240
REMARK INTER + INTRA:          -8.125
REMARK INTER:                  -7.843
REMARK INTRA:                  -0.282
REMARK UNBOUND:                -0.330
REMARK  Name = 
REMARK  5 active torsions:
REMARK  status: ('A' for Active; 'I' for Inactive)
REMARK    1  A    between atoms: N_1  and  C_2
REMARK    2  A    between atoms: C_2  and  C_3
REMARK    3  A    between atoms: C_7  and  C_8
REMARK    4  A    between atoms: C_9  and  N_10
REMARK    5  A    between atoms: C_14  and  C_15
REMARK                            x       y       z     vdW  Elec       q    Type
REMARK                         _______ _______ _______ _____ _____    ______ ____
ROOT
ATOM      1  N   UNL     1      47.273   3.571  14.690  0.00  0.00    +0.000 N 
ATOM      2  C   UNL     1      46.439   3.969  13.627  0.00  0.00    +0.000 A 
ATOM      3  C   UNL     1      46.233   5.299  13.278  0.00  0.00    +0.000 A 
ATOM      4  C   UNL     1      45.355   5.619  12.244  0.00  0.00    +0.000 A 
ATOM      5  C   UNL     1      44.697   4.605  11.556  0.00  0.00    +0.000 A 
ATOM      6  C   UNL     1      44.980   3.304  11.940  0.00  0.00    +0.000 A 
ATOM      7  N   UNL     1      45.830   2.968  12.950  0.00  0.00    +0.000 NA
ATOM      8  H   UNL     1      47.112   2.571  14.800  0.00  0.00    +0.000 HD
ENDROOT
BRANCH   5   9
ATOM      9  C   UNL     1      43.742   4.980  10.486  0.00  0.00    +0.000 C 
ATOM     10  N   UNL     1      43.943   4.521   9.218  0.00  0.00    +0.000 N 
ATOM     11  O   UNL     1      42.768   5.685  10.729  0.00  0.00    +0.000 OA
ATOM     12  H   UNL     1      44.696   3.929   8.910  0.00  0.00    +0.000 HD
ATOM     13  H   UNL     1      43.248   4.794   8.533  0.00  0.00    +0.000 HD
ENDBRANCH   5   9
BRANCH   1  15
ATOM     14  C   UNL     1      47.624   3.769  17.108  0.00  0.00    +0.000 C 
ATOM     15  C   UNL     1      47.395   4.259  15.881  0.00  0.00    +0.000 C 
BRANCH  14  20
ATOM     16  C   UNL     1      49.427   5.194  20.104  0.00  0.00    +0.000 A 
ATOM     17  C   UNL     1      48.529   6.185  20.518  0.00  0.00    +0.000 A 
ATOM     18  C   UNL     1      47.325   6.375  19.841  0.00  0.00    +0.000 A 
ATOM     19  C   UNL     1      47.004   5.574  18.743  0.00  0.00    +0.000 A 
ATOM     20  C   UNL     1      47.876   4.566  18.317  0.00  0.00    +0.000 A 
ATOM     21  C   UNL     1      49.088   4.392  19.000  0.00  0.00    +0.000 A 
BRANCH  16  22
ATOM     22  C   UNL     1      50.728   4.981  20.834  0.00  0.00    +0.000 C 
BRANCH  22  23
ATOM     23  N   UNL     1      51.683   4.226  20.031  0.00  0.00    +0.000 NA
ATOM     24  H   UNL     1      52.305   4.875  19.556  0.00  0.00    +0.000 HD
ATOM     25  H   UNL     1      51.175   3.727  19.302  0.00  0.00    +0.000 HD
ENDBRANCH  22  23
ENDBRANCH  16  22
ENDBRANCH  14  20
ENDBRANCH   1  15
TORSDOF 5
ENDMDL
MODEL 5
REMARK VINA RESULT:    -6.156      8.454     11.039
REMARK INTER + INTRA:          -8.106
REMARK INTER:                  -7.823
REMARK INTRA:                  -0.283
REMARK UNBOUND:                -0.330
REMARK  Name = 
REMARK  5 active torsions:
REMARK  status: ('A' for Active; 'I' for Inactive)
REMARK    1  A    between atoms: N_1  and  C_2
REMARK    2  A    between atoms: C_2  and  C_3
REMARK    3  A    between atoms: C_7  and  C_8
REMARK    4  A    between atoms: C_9  and  N_10
REMARK    5  A    between atoms: C_14  and  C_15
REMARK                            x       y       z     vdW  Elec       q    Type
REMARK                         _______ _______ _______ _____ _____    ______ ____
ROOT
ATOM      1  N   UNL     1      46.595   3.575  14.264  0.00  0.00    +0.000 N 
ATOM      2  C   UNL     1      46.004   4.602  13.502  0.00  0.00    +0.000 A 
ATOM      3  C   UNL     1      46.736   5.613  12.891  0.00  0.00    +0.000 A 
ATOM      4  C   UNL     1      46.078   6.624  12.192  0.00  0.00    +0.000 A 
ATOM      5  C   UNL     1      44.690   6.610  12.100  0.00  0.00    +0.000 A 
ATOM      6  C   UNL     1      44.034   5.552  12.707  0.00  0.00    +0.000 A 
ATOM      7  N   UNL     1      44.656   4.556  13.399  0.00  0.00    +0.000 NA
ATOM      8  H   UNL     1      45.819   3.081  14.701  0.00  0.00    +0.000 HD
ENDROOT
BRANCH   5   9
ATOM      9  C   UNL     1      44.018   7.720  11.382  0.00  0.00    +0.000 C 
ATOM     10  N   UNL     1      42.702   7.598  11.044  0.00  0.00    +0.000 N 
ATOM     11  O   UNL     1      44.624   8.747  11.101  0.00  0.00    +0.000 OA
ATOM     12  H   UNL     1      42.107   6.810  11.235  0.00  0.00    +0.000 HD
ATOM     13  H   UNL     1      42.291   8.395  10.572  0.00  0.00    +0.000 HD
ENDBRANCH   5   9
BRANCH   1  15
ATOM     14  C   UNL     1      47.932   3.192  16.282  0.00  0.00    +0.000 C 
ATOM     15  C   UNL     1      47.689   3.750  15.088  0.00  0.00    +0.000 C 
BRANCH  14  20
ATOM     16  C   UNL     1      51.345   2.353  17.664  0.00  0.00    +0.000 A 
ATOM     17  C   UNL     1      51.674   3.545  18.321  0.00  0.00    +0.000 A 
ATOM     18  C   UNL     1      50.778   4.613  18.339  0.00  0.00    +0.000 A 
ATOM     19  C   UNL     1      49.541   4.501  17.701  0.00  0.00    +0.000 A 
ATOM     20  C   UNL     1      49.180   3.316  17.050  0.00  0.00    +0.000 A 
ATOM     21  C   UNL     1      50.094   2.253  17.031  0.00  0.00    +0.000 A 
BRANCH  16  22
ATOM     22  C   UNL     1      52.307   1.193  17.645  0.00  0.00    +0.000 C 
BRANCH  22  23
ATOM     23  N   UNL     1      51.714  -0.013  18.209  0.00  0.00    +0.000 NA
ATOM     24  H   UNL     1      50.746   0.178  18.459  0.00  0.00    +0.000 HD
ATOM     25  H   UNL     1      52.196  -0.240  19.078  0.00  0.00    +0.000 HD
ENDBRANCH  22  23
ENDBRANCH  16  22
ENDBRANCH  14  20
ENDBRANCH   1  15
TORSDOF 5
ENDMDL
MODEL 6
REMARK VINA RESULT:    -6.147      6.725     12.254
REMARK INTER + INTRA:          -8.094
REMARK INTER:                  -7.778
REMARK INTRA:                  -0.316
REMARK UNBOUND:                -0.330
REMARK  Name = 
REMARK  5 active torsions:
REMARK  status: ('A' for Active; 'I' for Inactive)
REMARK    1  A    between atoms: N_1  and  C_2
REMARK    2  A    between atoms: C_2  and  C_3
REMARK    3  A    between atoms: C_7  and  C_8
REMARK    4  A    between atoms: C_9  and  N_10
REMARK    5  A    between atoms: C_14  and  C_15
REMARK                            x       y       z     vdW  Elec       q    Type
REMARK                         _______ _______ _______ _____ _____    ______ ____
ROOT
ATOM      1  N   UNL     1      47.276   3.462  14.656  0.00  0.00    +0.000 N 
ATOM      2  C   UNL     1      46.445   3.891  13.602  0.00  0.00    +0.000 A 
ATOM      3  C   UNL     1      46.284   5.228  13.256  0.00  0.00    +0.000 A 
ATOM      4  C   UNL     1      45.407   5.582  12.232  0.00  0.00    +0.000 A 
ATOM      5  C   UNL     1      44.703   4.593  11.552  0.00  0.00    +0.000 A 
ATOM      6  C   UNL     1      44.942   3.283  11.932  0.00  0.00    +0.000 A 
ATOM      7  N   UNL     1      45.791   2.914  12.932  0.00  0.00    +0.000 NA
ATOM      8  H   UNL     1      47.079   2.468  14.767  0.00  0.00    +0.000 HD
ENDROOT
BRANCH   5   9
ATOM      9  C   UNL     1      43.751   5.005  10.494  0.00  0.00    +0.000 C 
ATOM     10  N   UNL     1      43.934   4.558   9.218  0.00  0.00    +0.000 N 
ATOM     11  O   UNL     1      42.796   5.729  10.752  0.00  0.00    +0.000 OA
ATOM     12  H   UNL     1      44.671   3.953   8.897  0.00  0.00    +0.000 HD
ATOM     13  H   UNL     1      43.241   4.856   8.541  0.00  0.00    +0.000 HD
ENDBRANCH   5   9
BRANCH   1  15
ATOM     14  C   UNL     1      47.796   3.659  17.042  0.00  0.00    +0.000 C 
ATOM     15  C   UNL     1      47.437   4.143  15.845  0.00  0.00    +0.000 C 
BRANCH  14  20
ATOM     16  C   UNL     1      47.848   6.594  19.417  0.00  0.00    +0.000 A 
ATOM     17  C   UNL     1      48.400   6.009  20.563  0.00  0.00    +0.000 A 
ATOM     18  C   UNL     1      48.780   4.668  20.559  0.00  0.00    +0.000 A 
ATOM     19  C   UNL     1      48.614   3.896  19.407  0.00  0.00    +0.000 A 
ATOM     20  C   UNL     1      48.080   4.459  18.242  0.00  0.00    +0.000 A 
ATOM     21  C   UNL     1      47.693   5.807  18.264  0.00  0.00    +0.000 A 
BRANCH  16  22
ATOM     22  C   UNL     1      47.440   8.045  19.414  0.00  0.00    +0.000 C 
BRANCH  22  23
ATOM     23  N   UNL     1      47.578   8.644  18.092  0.00  0.00    +0.000 NA
ATOM     24  H   UNL     1      48.285   9.375  18.131  0.00  0.00    +0.000 HD
ATOM     25  H   UNL     1      46.702   9.104  17.848  0.00  0.00    +0.000 HD
ENDBRANCH  22  23
ENDBRANCH  16  22
ENDBRANCH  14  20
ENDBRANCH   1  15
TORSDOF 5
ENDMDL
MODEL 7
REMARK VINA RESULT:    -5.987      6.546     10.912
REMARK INTER + INTRA:          -7.893
REMARK INTER:                  -7.520
REMARK INTRA:                  -0.372
REMARK UNBOUND:                -0.330
REMARK  Name = 
REMARK  5 active torsions:
REMARK  status: ('A' for Active; 'I' for Inactive)
REMARK    1  A    between atoms: N_1  and  C_2
REMARK    2  A    between atoms: C_2  and  C_3
REMARK    3  A    between atoms: C_7  and  C_8
REMARK    4  A    between atoms: C_9  and  N_10
REMARK    5  A    between atoms: C_14  and  C_15
REMARK                            x       y       z     vdW  Elec       q    Type
REMARK                         _______ _______ _______ _____ _____    ______ ____
ROOT
ATOM      1  N   UNL     1      47.351   7.002  14.028  0.00  0.00    +0.000 N 
ATOM      2  C   UNL     1      46.472   6.279  13.197  0.00  0.00    +0.000 A 
ATOM      3  C   UNL     1      45.978   5.021  13.523  0.00  0.00    +0.000 A 
ATOM      4  C   UNL     1      45.150   4.345  12.629  0.00  0.00    +0.000 A 
ATOM      5  C   UNL     1      44.811   4.937  11.417  0.00  0.00    +0.000 A 
ATOM      6  C   UNL     1      45.315   6.206  11.179  0.00  0.00    +0.000 A 
ATOM      7  N   UNL     1      46.130   6.883  12.035  0.00  0.00    +0.000 NA
ATOM      8  H   UNL     1      47.653   7.800  13.472  0.00  0.00    +0.000 HD
ENDROOT
BRANCH   5   9
ATOM      9  C   UNL     1      43.959   4.177  10.472  0.00  0.00    +0.000 C 
ATOM     10  N   UNL     1      43.997   4.481   9.143  0.00  0.00    +0.000 N 
ATOM     11  O   UNL     1      43.233   3.271  10.867  0.00  0.00    +0.000 OA
ATOM     12  H   UNL     1      44.562   5.191   8.709  0.00  0.00    +0.000 HD
ATOM     13  H   UNL     1      43.408   3.916   8.542  0.00  0.00    +0.000 HD
ENDBRANCH   5   9
BRANCH   1  15
ATOM     14  C   UNL     1      48.552   6.512  16.107  0.00  0.00    +0.000 C 
ATOM     15  C   UNL     1      48.353   6.427  14.784  0.00  0.00    +0.000 C 
BRANCH  14  20
ATOM     16  C   UNL     1      50.552   3.604  17.450  0.00  0.00    +0.000 A 
ATOM     17  C   UNL     1      51.574   4.269  18.138  0.00  0.00    +0.000 A 
ATOM     18  C   UNL     1      51.601   5.662  18.189  0.00  0.00    +0.000 A 
ATOM     19  C   UNL     1      50.605   6.406  17.554  0.00  0.00    +0.000 A 
ATOM     20  C   UNL     1      49.563   5.767  16.873  0.00  0.00    +0.000 A 
ATOM     21  C   UNL     1      49.553   4.366  16.821  0.00  0.00    +0.000 A 
BRANCH  16  22
ATOM     22  C   UNL     1      50.515   2.098  17.395  0.00  0.00    +0.000 C 
BRANCH  22  23
ATOM     23  N   UNL     1      49.860   1.616  16.185  0.00  0.00    +0.000 NA
ATOM     24  H   UNL     1      50.496   1.721  15.398  0.00  0.00    +0.000 HD
ATOM     25  H   UNL     1      49.056   2.211  15.988  0.00  0.00    +0.000 HD
ENDBRANCH  22  23
ENDBRANCH  16  22
ENDBRANCH  14  20
ENDBRANCH   1  15
TORSDOF 5
ENDMDL
MODEL 8
REMARK VINA RESULT:    -5.597      6.459      9.695
REMARK INTER + INTRA:          -7.400
REMARK INTER:                  -7.112
REMARK INTRA:                  -0.288
REMARK UNBOUND:                -0.330
REMARK  Name = 
REMARK  5 active torsions:
REMARK  status: ('A' for Active; 'I' for Inactive)
REMARK    1  A    between atoms: N_1  and  C_2
REMARK    2  A    between atoms: C_2  and  C_3
REMARK    3  A    between atoms: C_7  and  C_8
REMARK    4  A    between atoms: C_9  and  N_10
REMARK    5  A    between atoms: C_14  and  C_15
REMARK                            x       y       z     vdW  Elec       q    Type
REMARK                         _______ _______ _______ _____ _____    ______ ____
ROOT
ATOM      1  N   UNL     1      47.993   5.934  14.870  0.00  0.00    +0.000 N 
ATOM      2  C   UNL     1      48.284   5.726  16.232  0.00  0.00    +0.000 A 
ATOM      3  C   UNL     1      48.262   4.472  16.832  0.00  0.00    +0.000 A 
ATOM      4  C   UNL     1      48.515   4.348  18.197  0.00  0.00    +0.000 A 
ATOM      5  C   UNL     1      48.800   5.481  18.953  0.00  0.00    +0.000 A 
ATOM      6  C   UNL     1      48.837   6.690  18.278  0.00  0.00    +0.000 A 
ATOM      7  N   UNL     1      48.588   6.835  16.946  0.00  0.00    +0.000 NA
ATOM      8  H   UNL     1      47.941   6.946  14.756  0.00  0.00    +0.000 HD
ENDROOT
BRANCH   5   9
ATOM      9  C   UNL     1      49.027   5.320  20.409  0.00  0.00    +0.000 C 
ATOM     10  N   UNL     1      48.128   4.613  21.153  0.00  0.00    +0.000 N 
ATOM     11  O   UNL     1      50.017   5.801  20.950  0.00  0.00    +0.000 OA
ATOM     12  H   UNL     1      47.293   4.166  20.813  0.00  0.00    +0.000 HD
ATOM     13  H   UNL     1      48.344   4.520  22.138  0.00  0.00    +0.000 HD
ENDBRANCH   5   9
BRANCH   1  15
ATOM     14  C   UNL     1      46.143   5.705  13.278  0.00  0.00    +0.000 C 
ATOM     15  C   UNL     1      47.032   5.236  14.165  0.00  0.00    +0.000 C 
BRANCH  14  20
ATOM     16  C   UNL     1      44.557   4.133  10.233  0.00  0.00    +0.000 A 
ATOM     17  C   UNL     1      43.678   3.218  10.824  0.00  0.00    +0.000 A 
ATOM     18  C   UNL     1      43.579   3.128  12.212  0.00  0.00    +0.000 A 
ATOM     19  C   UNL     1      44.358   3.954  13.025  0.00  0.00    +0.000 A 
ATOM     20  C   UNL     1      45.234   4.889  12.461  0.00  0.00    +0.000 A 
ATOM     21  C   UNL     1      45.331   4.962  11.064  0.00  0.00    +0.000 A 
BRANCH  16  22
ATOM     22  C   UNL     1      44.665   4.238   8.734  0.00  0.00    +0.000 C 
BRANCH  22  23
ATOM     23  N   UNL     1      45.849   4.985   8.326  0.00  0.00    +0.000 NA
ATOM     24  H   UNL     1      46.676   4.422   8.507  0.00  0.00    +0.000 HD
ATOM     25  H   UNL     1      45.931   5.814   8.913  0.00  0.00    +0.000 HD
ENDBRANCH  22  23
ENDBRANCH  16  22
ENDBRANCH  14  20
ENDBRANCH   1  15
TORSDOF 5
ENDMDL
MODEL 9
REMARK VINA RESULT:    -5.469      6.030     10.868
REMARK INTER + INTRA:          -7.238
REMARK INTER:                  -7.072
REMARK INTRA:                  -0.167
REMARK UNBOUND:                -0.330
REMARK  Name = 
REMARK  5 active torsions:
REMARK  status: ('A' for Active; 'I' for Inactive)
REMARK    1  A    between atoms: N_1  and  C_2
REMARK    2  A    between atoms: C_2  and  C_3
REMARK    3  A    between atoms: C_7  and  C_8
REMARK    4  A    between atoms: C_9  and  N_10
REMARK    5  A    between atoms: C_14  and  C_15
REMARK                            x       y       z     vdW  Elec       q    Type
REMARK                         _______ _______ _______ _____ _____    ______ ____
ROOT
ATOM      1  N   UNL     1      46.198   5.790  13.658  0.00  0.00    +0.000 N 
ATOM      2  C   UNL     1      45.740   5.038  12.559  0.00  0.00    +0.000 A 
ATOM      3  C   UNL     1      45.567   3.659  12.599  0.00  0.00    +0.000 A 
ATOM      4  C   UNL     1      45.156   2.976  11.456  0.00  0.00    +0.000 A 
ATOM      5  C   UNL     1      44.907   3.678  10.281  0.00  0.00    +0.000 A 
ATOM      6  C   UNL     1      45.069   5.053  10.330  0.00  0.00    +0.000 A 
ATOM      7  N   UNL     1      45.476   5.741  11.433  0.00  0.00    +0.000 NA
ATOM      8  H   UNL     1      46.366   6.727  13.294  0.00  0.00    +0.000 HD
ENDROOT
BRANCH   5   9
ATOM      9  C   UNL     1      44.507   2.918   9.073  0.00  0.00    +0.000 C 
ATOM     10  N   UNL     1      44.318   3.581   7.897  0.00  0.00    +0.000 N 
ATOM     11  O   UNL     1      44.357   1.702   9.115  0.00  0.00    +0.000 OA
ATOM     12  H   UNL     1      44.426   4.570   7.745  0.00  0.00    +0.000 HD
ATOM     13  H   UNL     1      44.064   3.008   7.101  0.00  0.00    +0.000 HD
ENDBRANCH   5   9
BRANCH   1  15
ATOM     14  C   UNL     1      47.055   4.377  15.468  0.00  0.00    +0.000 C 
ATOM     15  C   UNL     1      47.153   5.353  14.554  0.00  0.00    +0.000 C 
BRANCH  14  20
ATOM     16  C   UNL     1      49.669   4.238  18.189  0.00  0.00    +0.000 A 
ATOM     17  C   UNL     1      50.111   2.915  18.077  0.00  0.00    +0.000 A 
ATOM     18  C   UNL     1      49.580   2.073  17.101  0.00  0.00    +0.000 A 
ATOM     19  C   UNL     1      48.601   2.546  16.224  0.00  0.00    +0.000 A 
ATOM     20  C   UNL     1      48.153   3.869  16.304  0.00  0.00    +0.000 A 
ATOM     21  C   UNL     1      48.688   4.702  17.296  0.00  0.00    +0.000 A 
BRANCH  16  22
ATOM     22  C   UNL     1      50.243   5.155  19.239  0.00  0.00    +0.000 C 
BRANCH  22  23
ATOM     23  N   UNL     1      51.192   4.462  20.103  0.00  0.00    +0.000 NA
ATOM     24  H   UNL     1      50.775   3.592  20.424  0.00  0.00    +0.000 HD
ATOM     25  H   UNL     1      51.352   5.029  20.934  0.00  0.00    +0.000 HD
ENDBRANCH  22  23
ENDBRANCH  16  22
ENDBRANCH  14  20
ENDBRANCH   1  15
TORSDOF 5
ENDMDL
