MODEL 1
REMARK VINA RESULT:    -8.103      0.000      0.000
REMARK INTER + INTRA:         -14.095
REMARK INTER:                 -12.604
REMARK INTRA:                  -1.491
REMARK UNBOUND:                -1.491
REMARK  Name = 
REMARK  10 active torsions:
REMARK  status: ('A' for Active; 'I' for Inactive)
REMARK    1  A    between atoms: N_1  and  C_2
REMARK    2  A    between atoms: C_2  and  C_3
REMARK    3  A    between atoms: C_3  and  N_4
REMARK    4  A    between atoms: N_4  and  C_5
REMARK    5  A    between atoms: N_4  and  C_12
REMARK    6  A    between atoms: C_5  and  C_6
REMARK    7  A    between atoms: C_12  and  C_13
REMARK    8  A    between atoms: C_16  and  C_17
REMARK    9  A    between atoms: C_17  and  N_18
REMARK   10  A    between atoms: C_19  and  C_21
REMARK                            x       y       z     vdW  Elec       q    Type
REMARK                         _______ _______ _______ _____ _____    ______ ____
ROOT
ATOM      1  C   UNL     1      44.960   6.287  11.052  0.00  0.00    +0.000 A 
ATOM      2  C   UNL     1      46.353   6.136  10.994  0.00  0.00    +0.000 A 
ATOM      3  C   UNL     1      47.187   6.905  11.811  0.00  0.00    +0.000 A 
ATOM      4  C   UNL     1      46.644   7.835  12.708  0.00  0.00    +0.000 A 
ATOM      5  C   UNL     1      45.256   8.022  12.730  0.00  0.00    +0.000 A 
ATOM      6  C   UNL     1      44.422   7.254  11.914  0.00  0.00    +0.000 A 
ENDROOT
BRANCH   1   7
ATOM      7  C   UNL     1      44.049   5.411  10.214  0.00  0.00    +0.000 C 
BRANCH   7   8
ATOM      8  N   UNL     1      44.542   4.022  10.030  0.00  0.00    +0.000 NA
BRANCH   8   9
ATOM      9  C   UNL     1      43.731   3.089  10.866  0.00  0.00    +0.000 C 
BRANCH   9  10
ATOM     10  C   UNL     1      44.020   3.112  12.387  0.00  0.00    +0.000 C 
BRANCH  10  11
ATOM     11  N   UNL     1      45.440   2.874  12.672  0.00  0.00    +0.000 NA
ATOM     12  H   UNL     1      45.553   1.931  13.042  0.00  0.00    +0.000 HD
ATOM     13  H   UNL     1      45.753   3.509  13.406  0.00  0.00    +0.000 HD
ENDBRANCH  10  11
ENDBRANCH   9  10
ENDBRANCH   8   9
BRANCH   8  14
ATOM     14  C   UNL     1      44.444   3.639   8.607  0.00  0.00    +0.000 C 
BRANCH  14  15
ATOM     15  C   UNL     1      45.642   2.924   8.009  0.00  0.00    +0.000 A 
ATOM     16  C   UNL     1      45.948   1.602   8.362  0.00  0.00    +0.000 A 
ATOM     17  C   UNL     1      46.923   0.889   7.659  0.00  0.00    +0.000 A 
ATOM     18  C   UNL     1      47.613   1.493   6.608  0.00  0.00    +0.000 A 
ATOM     19  C   UNL     1      47.356   2.823   6.284  0.00  0.00    +0.000 A 
ATOM     20  C   UNL     1      46.378   3.536   6.982  0.00  0.00    +0.000 A 
ENDBRANCH  14  15
ENDBRANCH   8  14
ENDBRANCH   7   8
ENDBRANCH   1   7
BRANCH   4  21
ATOM     21  C   UNL     1      47.530   8.643  13.619  0.00  0.00    +0.000 C 
BRANCH  21  22
ATOM     22  N   UNL     1      47.772   7.952  14.858  0.00  0.00    +0.000 N 
ATOM     23  C   UNL     1      48.841   7.107  15.003  0.00  0.00    +0.000 C 
ATOM     24  O   UNL     1      49.660   6.933  14.104  0.00  0.00    +0.000 OA
ATOM     25  H   UNL     1      46.999   7.900  15.514  0.00  0.00    +0.000 HD
BRANCH  23  26
ATOM     26  C   UNL     1      48.997   6.467  16.315  0.00  0.00    +0.000 A 
ATOM     27  C   UNL     1      49.733   7.102  17.305  0.00  0.00    +0.000 A 
ATOM     28  S   UNL     1      49.762   6.257  18.786  0.00  0.00    +0.000 S 
ATOM     29  C   UNL     1      48.840   4.982  18.137  0.00  0.00    +0.000 A 
ATOM     30  N   UNL     1      48.514   3.897  18.893  0.00  0.00    +0.000 NA
ATOM     31  C   UNL     1      47.833   2.998  18.268  0.00  0.00    +0.000 A 
ATOM     32  N   UNL     1      47.443   3.086  16.957  0.00  0.00    +0.000 N 
ATOM     33  C   UNL     1      47.726   4.169  16.164  0.00  0.00    +0.000 A 
ATOM     34  O   UNL     1      47.335   4.227  15.001  0.00  0.00    +0.000 OA
ATOM     35  C   UNL     1      48.498   5.209  16.817  0.00  0.00    +0.000 A 
ATOM     36  H   UNL     1      46.905   2.346  16.528  0.00  0.00    +0.000 HD
ENDBRANCH  23  26
ENDBRANCH  21  22
ENDBRANCH   4  21
TORSDOF 10
ENDMDL
MODEL 2
REMARK VINA RESULT:    -7.475      1.992      2.562
REMARK INTER + INTRA:         -13.118
REMARK INTER:                 -12.108
REMARK INTRA:                  -1.010
REMARK UNBOUND:                -1.491
REMARK  Name = 
REMARK  10 active torsions:
REMARK  status: ('A' for Active; 'I' for Inactive)
REMARK    1  A    between atoms: N_1  and  C_2
REMARK    2  A    between atoms: C_2  and  C_3
REMARK    3  A    between atoms: C_3  and  N_4
REMARK    4  A    between atoms: N_4  and  C_5
REMARK    5  A    between atoms: N_4  and  C_12
REMARK    6  A    between atoms: C_5  and  C_6
REMARK    7  A    between atoms: C_12  and  C_13
REMARK    8  A    between atoms: C_16  and  C_17
REMARK    9  A    between atoms: C_17  and  N_18
REMARK   10  A    between atoms: C_19  and  C_21
REMARK                            x       y       z     vdW  Elec       q    Type
REMARK                         _______ _______ _______ _____ _____    ______ ____
ROOT
ATOM      1  C   UNL     1      45.827   5.606  11.453  0.00  0.00    +0.000 A 
ATOM      2  C   UNL     1      46.051   5.005  12.699  0.00  0.00    +0.000 A 
ATOM      3  C   UNL     1      46.986   5.540  13.591  0.00  0.00    +0.000 A 
ATOM      4  C   UNL     1      47.711   6.692  13.255  0.00  0.00    +0.000 A 
ATOM      5  C   UNL     1      47.524   7.263  11.989  0.00  0.00    +0.000 A 
ATOM      6  C   UNL     1      46.590   6.728  11.099  0.00  0.00    +0.000 A 
ENDROOT
BRANCH   1   7
ATOM      7  C   UNL     1      44.769   5.066  10.510  0.00  0.00    +0.000 C 
BRANCH   7   8
ATOM      8  N   UNL     1      45.088   3.733   9.938  0.00  0.00    +0.000 NA
BRANCH   8   9
ATOM      9  C   UNL     1      44.134   2.719  10.472  0.00  0.00    +0.000 C 
BRANCH   9  10
ATOM     10  C   UNL     1      43.230   3.184  11.640  0.00  0.00    +0.000 C 
BRANCH  10  11
ATOM     11  N   UNL     1      43.444   2.376  12.846  0.00  0.00    +0.000 NA
ATOM     12  H   UNL     1      43.730   1.437  12.572  0.00  0.00    +0.000 HD
ATOM     13  H   UNL     1      42.563   2.271  13.348  0.00  0.00    +0.000 HD
ENDBRANCH  10  11
ENDBRANCH   9  10
ENDBRANCH   8   9
BRANCH   8  14
ATOM     14  C   UNL     1      44.997   3.785   8.464  0.00  0.00    +0.000 C 
BRANCH  14  15
ATOM     15  C   UNL     1      46.012   2.964   7.689  0.00  0.00    +0.000 A 
ATOM     16  C   UNL     1      46.314   1.646   8.059  0.00  0.00    +0.000 A 
ATOM     17  C   UNL     1      47.090   0.836   7.225  0.00  0.00    +0.000 A 
ATOM     18  C   UNL     1      47.584   1.339   6.021  0.00  0.00    +0.000 A 
ATOM     19  C   UNL     1      47.336   2.663   5.668  0.00  0.00    +0.000 A 
ATOM     20  C   UNL     1      46.557   3.472   6.498  0.00  0.00    +0.000 A 
ENDBRANCH  14  15
ENDBRANCH   8  14
ENDBRANCH   7   8
ENDBRANCH   1   7
BRANCH   4  21
ATOM     21  C   UNL     1      48.694   7.299  14.221  0.00  0.00    +0.000 C 
BRANCH  21  22
ATOM     22  N   UNL     1      48.421   6.884  15.572  0.00  0.00    +0.000 N 
ATOM     23  C   UNL     1      49.405   6.354  16.364  0.00  0.00    +0.000 C 
ATOM     24  O   UNL     1      50.565   6.246  15.978  0.00  0.00    +0.000 OA
ATOM     25  H   UNL     1      47.446   6.750  15.823  0.00  0.00    +0.000 HD
BRANCH  23  26
ATOM     26  C   UNL     1      49.015   5.979  17.730  0.00  0.00    +0.000 A 
ATOM     27  C   UNL     1      49.189   4.670  18.158  0.00  0.00    +0.000 A 
ATOM     28  S   UNL     1      48.747   4.417  19.785  0.00  0.00    +0.000 S 
ATOM     29  C   UNL     1      48.252   6.037  19.958  0.00  0.00    +0.000 A 
ATOM     30  N   UNL     1      47.739   6.492  21.135  0.00  0.00    +0.000 NA
ATOM     31  C   UNL     1      47.384   7.732  21.117  0.00  0.00    +0.000 A 
ATOM     32  N   UNL     1      47.498   8.560  20.030  0.00  0.00    +0.000 N 
ATOM     33  C   UNL     1      48.030   8.154  18.833  0.00  0.00    +0.000 A 
ATOM     34  O   UNL     1      48.144   8.932  17.889  0.00  0.00    +0.000 OA
ATOM     35  C   UNL     1      48.441   6.763  18.797  0.00  0.00    +0.000 A 
ATOM     36  H   UNL     1      47.205   9.525  20.085  0.00  0.00    +0.000 HD
ENDBRANCH  23  26
ENDBRANCH  21  22
ENDBRANCH   4  21
TORSDOF 10
ENDMDL
MODEL 3
REMARK VINA RESULT:    -7.226      2.841      3.742
REMARK INTER + INTRA:         -12.731
REMARK INTER:                 -12.002
REMARK INTRA:                  -0.729
REMARK UNBOUND:                -1.491
REMARK  Name = 
REMARK  10 active torsions:
REMARK  status: ('A' for Active; 'I' for Inactive)
REMARK    1  A    between atoms: N_1  and  C_2
REMARK    2  A    between atoms: C_2  and  C_3
REMARK    3  A    between atoms: C_3  and  N_4
REMARK    4  A    between atoms: N_4  and  C_5
REMARK    5  A    between atoms: N_4  and  C_12
REMARK    6  A    between atoms: C_5  and  C_6
REMARK    7  A    between atoms: C_12  and  C_13
REMARK    8  A    between atoms: C_16  and  C_17
REMARK    9  A    between atoms: C_17  and  N_18
REMARK   10  A    between atoms: C_19  and  C_21
REMARK                            x       y       z     vdW  Elec       q    Type
REMARK                         _______ _______ _______ _____ _____    ______ ____
ROOT
ATOM      1  C   UNL     1      46.539   4.523  13.305  0.00  0.00    +0.000 A 
ATOM      2  C   UNL     1      47.146   5.742  12.971  0.00  0.00    +0.000 A 
ATOM      3  C   UNL     1      47.917   6.434  13.910  0.00  0.00    +0.000 A 
ATOM      4  C   UNL     1      48.103   5.917  15.199  0.00  0.00    +0.000 A 
ATOM      5  C   UNL     1      47.454   4.725  15.549  0.00  0.00    +0.000 A 
ATOM      6  C   UNL     1      46.684   4.034  14.611  0.00  0.00    +0.000 A 
ENDROOT
BRANCH   1   7
ATOM      7  C   UNL     1      45.755   3.738  12.272  0.00  0.00    +0.000 C 
BRANCH   7   8
ATOM      8  N   UNL     1      44.297   3.663  12.544  0.00  0.00    +0.000 NA
BRANCH   8   9
ATOM      9  C   UNL     1      43.771   5.029  12.835  0.00  0.00    +0.000 C 
BRANCH   9  10
ATOM     10  C   UNL     1      42.490   5.441  12.069  0.00  0.00    +0.000 C 
BRANCH  10  11
ATOM     11  N   UNL     1      42.693   6.675  11.300  0.00  0.00    +0.000 NA
ATOM     12  H   UNL     1      42.816   7.454  11.945  0.00  0.00    +0.000 HD
ATOM     13  H   UNL     1      41.854   6.882  10.759  0.00  0.00    +0.000 HD
ENDBRANCH  10  11
ENDBRANCH   9  10
ENDBRANCH   8   9
BRANCH   8  14
ATOM     14  C   UNL     1      43.597   3.091  11.375  0.00  0.00    +0.000 C 
BRANCH  14  15
ATOM     15  C   UNL     1      44.343   3.117  10.053  0.00  0.00    +0.000 A 
ATOM     16  C   UNL     1      44.683   4.329   9.436  0.00  0.00    +0.000 A 
ATOM     17  C   UNL     1      45.541   4.345   8.332  0.00  0.00    +0.000 A 
ATOM     18  C   UNL     1      46.054   3.152   7.825  0.00  0.00    +0.000 A 
ATOM     19  C   UNL     1      45.680   1.938   8.396  0.00  0.00    +0.000 A 
ATOM     20  C   UNL     1      44.827   1.920   9.502  0.00  0.00    +0.000 A 
ENDBRANCH  14  15
ENDBRANCH   8  14
ENDBRANCH   7   8
ENDBRANCH   1   7
BRANCH   4  21
ATOM     21  C   UNL     1      48.960   6.635  16.208  0.00  0.00    +0.000 C 
BRANCH  21  22
ATOM     22  N   UNL     1      50.049   5.803  16.652  0.00  0.00    +0.000 N 
ATOM     23  C   UNL     1      50.177   5.447  17.969  0.00  0.00    +0.000 C 
ATOM     24  O   UNL     1      49.356   5.781  18.817  0.00  0.00    +0.000 OA
ATOM     25  H   UNL     1      50.844   5.715  16.028  0.00  0.00    +0.000 HD
BRANCH  23  26
ATOM     26  C   UNL     1      51.318   4.585  18.305  0.00  0.00    +0.000 A 
ATOM     27  C   UNL     1      52.375   5.102  19.040  0.00  0.00    +0.000 A 
ATOM     28  S   UNL     1      53.585   3.955  19.399  0.00  0.00    +0.000 S 
ATOM     29  C   UNL     1      52.766   2.740  18.534  0.00  0.00    +0.000 A 
ATOM     30  N   UNL     1      53.283   1.485  18.427  0.00  0.00    +0.000 NA
ATOM     31  C   UNL     1      52.569   0.673  17.724  0.00  0.00    +0.000 A 
ATOM     32  N   UNL     1      51.382   1.000  17.121  0.00  0.00    +0.000 N 
ATOM     33  C   UNL     1      50.809   2.242  17.221  0.00  0.00    +0.000 A 
ATOM     34  O   UNL     1      49.730   2.492  16.692  0.00  0.00    +0.000 OA
ATOM     35  C   UNL     1      51.577   3.198  17.997  0.00  0.00    +0.000 A 
ATOM     36  H   UNL     1      50.868   0.313  16.587  0.00  0.00    +0.000 HD
ENDBRANCH  23  26
ENDBRANCH  21  22
ENDBRANCH   4  21
TORSDOF 10
ENDMDL
MODEL 4
REMARK VINA RESULT:    -6.875      3.396      5.402
REMARK INTER + INTRA:         -12.185
REMARK INTER:                 -10.908
REMARK INTRA:                  -1.277
REMARK UNBOUND:                -1.491
REMARK  Name = 
REMARK  10 active torsions:
REMARK  status: ('A' for Active; 'I' for Inactive)
REMARK    1  A    between atoms: N_1  and  C_2
REMARK    2  A    between atoms: C_2  and  C_3
REMARK    3  A    between atoms: C_3  and  N_4
REMARK    4  A    between atoms: N_4  and  C_5
REMARK    5  A    between atoms: N_4  and  C_12
REMARK    6  A    between atoms: C_5  and  C_6
REMARK    7  A    between atoms: C_12  and  C_13
REMARK    8  A    between atoms: C_16  and  C_17
REMARK    9  A    between atoms: C_17  and  N_18
REMARK   10  A    between atoms: C_19  and  C_21
REMARK                            x       y       z     vdW  Elec       q    Type
REMARK                         _______ _______ _______ _____ _____    ______ ____
ROOT
ATOM      1  C   UNL     1      47.572   5.742  14.393  0.00  0.00    +0.000 A 
ATOM      2  C   UNL     1      48.316   6.179  15.497  0.00  0.00    +0.000 A 
ATOM      3  C   UNL     1      48.501   5.346  16.605  0.00  0.00    +0.000 A 
ATOM      4  C   UNL     1      47.951   4.057  16.627  0.00  0.00    +0.000 A 
ATOM      5  C   UNL     1      47.164   3.640  15.545  0.00  0.00    +0.000 A 
ATOM      6  C   UNL     1      46.979   4.472  14.438  0.00  0.00    +0.000 A 
ENDROOT
BRANCH   1   7
ATOM      7  C   UNL     1      47.422   6.618  13.163  0.00  0.00    +0.000 C 
BRANCH   7   8
ATOM      8  N   UNL     1      46.093   6.521  12.507  0.00  0.00    +0.000 NA
BRANCH   8   9
ATOM      9  C   UNL     1      45.325   7.778  12.744  0.00  0.00    +0.000 C 
BRANCH   9  10
ATOM     10  C   UNL     1      44.883   8.553  11.479  0.00  0.00    +0.000 C 
BRANCH  10  11
ATOM     11  N   UNL     1      43.490   8.259  11.123  0.00  0.00    +0.000 NA
ATOM     12  H   UNL     1      42.870   8.733  11.779  0.00  0.00    +0.000 HD
ATOM     13  H   UNL     1      43.312   7.262  11.233  0.00  0.00    +0.000 HD
ENDBRANCH  10  11
ENDBRANCH   9  10
ENDBRANCH   8   9
BRANCH   8  14
ATOM     14  C   UNL     1      46.265   6.301  11.056  0.00  0.00    +0.000 C 
BRANCH  14  15
ATOM     15  C   UNL     1      45.513   5.130  10.450  0.00  0.00    +0.000 A 
ATOM     16  C   UNL     1      45.537   4.889   9.068  0.00  0.00    +0.000 A 
ATOM     17  C   UNL     1      45.015   3.702   8.548  0.00  0.00    +0.000 A 
ATOM     18  C   UNL     1      44.449   2.752   9.398  0.00  0.00    +0.000 A 
ATOM     19  C   UNL     1      44.370   3.004  10.765  0.00  0.00    +0.000 A 
ATOM     20  C   UNL     1      44.896   4.188  11.288  0.00  0.00    +0.000 A 
ENDBRANCH  14  15
ENDBRANCH   8  14
ENDBRANCH   7   8
ENDBRANCH   1   7
BRANCH   4  21
ATOM     21  C   UNL     1      48.173   3.137  17.798  0.00  0.00    +0.000 C 
BRANCH  21  22
ATOM     22  N   UNL     1      49.578   2.938  18.045  0.00  0.00    +0.000 N 
ATOM     23  C   UNL     1      50.342   2.163  17.213  0.00  0.00    +0.000 C 
ATOM     24  O   UNL     1      49.879   1.639  16.203  0.00  0.00    +0.000 OA
ATOM     25  H   UNL     1      49.916   3.161  18.976  0.00  0.00    +0.000 HD
BRANCH  23  26
ATOM     26  C   UNL     1      51.765   2.041  17.555  0.00  0.00    +0.000 A 
ATOM     27  C   UNL     1      52.325   0.783  17.725  0.00  0.00    +0.000 A 
ATOM     28  S   UNL     1      53.997   0.816  18.055  0.00  0.00    +0.000 S 
ATOM     29  C   UNL     1      54.020   2.517  18.039  0.00  0.00    +0.000 A 
ATOM     30  N   UNL     1      55.172   3.205  18.276  0.00  0.00    +0.000 NA
ATOM     31  C   UNL     1      55.039   4.488  18.256  0.00  0.00    +0.000 A 
ATOM     32  N   UNL     1      53.861   5.147  18.017  0.00  0.00    +0.000 N 
ATOM     33  C   UNL     1      52.683   4.498  17.749  0.00  0.00    +0.000 A 
ATOM     34  O   UNL     1      51.652   5.122  17.511  0.00  0.00    +0.000 OA
ATOM     35  C   UNL     1      52.774   3.051  17.766  0.00  0.00    +0.000 A 
ATOM     36  H   UNL     1      53.827   6.157  18.010  0.00  0.00    +0.000 HD
ENDBRANCH  23  26
ENDBRANCH  21  22
ENDBRANCH   4  21
TORSDOF 10
ENDMDL
MODEL 5
REMARK VINA RESULT:    -6.855      3.812     10.092
REMARK INTER + INTRA:         -12.153
REMARK INTER:                 -10.352
REMARK INTRA:                  -1.801
REMARK UNBOUND:                -1.491
REMARK  Name = 
REMARK  10 active torsions:
REMARK  status: ('A' for Active; 'I' for Inactive)
REMARK    1  A    between atoms: N_1  and  C_2
REMARK    2  A    between atoms: C_2  and  C_3
REMARK    3  A    between atoms: C_3  and  N_4
REMARK    4  A    between atoms: N_4  and  C_5
REMARK    5  A    between atoms: N_4  and  C_12
REMARK    6  A    between atoms: C_5  and  C_6
REMARK    7  A    between atoms: C_12  and  C_13
REMARK    8  A    between atoms: C_16  and  C_17
REMARK    9  A    between atoms: C_17  and  N_18
REMARK   10  A    between atoms: C_19  and  C_21
REMARK                            x       y       z     vdW  Elec       q    Type
REMARK                         _______ _______ _______ _____ _____    ______ ____
ROOT
ATOM      1  C   UNL     1      51.431   3.324  17.716  0.00  0.00    +0.000 A 
ATOM      2  C   UNL     1      50.765   2.157  17.318  0.00  0.00    +0.000 A 
ATOM      3  C   UNL     1      49.387   2.170  17.076  0.00  0.00    +0.000 A 
ATOM      4  C   UNL     1      48.651   3.354  17.220  0.00  0.00    +0.000 A 
ATOM      5  C   UNL     1      49.308   4.508  17.667  0.00  0.00    +0.000 A 
ATOM      6  C   UNL     1      50.683   4.495  17.909  0.00  0.00    +0.000 A 
ENDROOT
BRANCH   1   7
ATOM      7  C   UNL     1      52.934   3.329  17.918  0.00  0.00    +0.000 C 
BRANCH   7   8
ATOM      8  N   UNL     1      53.379   2.697  19.186  0.00  0.00    +0.000 NA
BRANCH   8   9
ATOM      9  C   UNL     1      54.349   1.604  18.887  0.00  0.00    +0.000 C 
BRANCH   9  10
ATOM     10  C   UNL     1      53.890   0.555  17.845  0.00  0.00    +0.000 C 
BRANCH  10  11
ATOM     11  N   UNL     1      53.065  -0.493  18.458  0.00  0.00    +0.000 NA
ATOM     12  H   UNL     1      52.117  -0.140  18.585  0.00  0.00    +0.000 HD
ATOM     13  H   UNL     1      53.418  -0.704  19.390  0.00  0.00    +0.000 HD
ENDBRANCH  10  11
ENDBRANCH   9  10
ENDBRANCH   8   9
BRANCH   8  14
ATOM     14  C   UNL     1      54.012   3.710  20.056  0.00  0.00    +0.000 C 
BRANCH  14  15
ATOM     15  C   UNL     1      53.119   4.828  20.563  0.00  0.00    +0.000 A 
ATOM     16  C   UNL     1      53.278   6.145  20.109  0.00  0.00    +0.000 A 
ATOM     17  C   UNL     1      52.328   7.122  20.424  0.00  0.00    +0.000 A 
ATOM     18  C   UNL     1      51.221   6.797  21.208  0.00  0.00    +0.000 A 
ATOM     19  C   UNL     1      51.082   5.505  21.710  0.00  0.00    +0.000 A 
ATOM     20  C   UNL     1      52.027   4.527  21.392  0.00  0.00    +0.000 A 
ENDBRANCH  14  15
ENDBRANCH   8  14
ENDBRANCH   7   8
ENDBRANCH   1   7
BRANCH   4  21
ATOM     21  C   UNL     1      47.174   3.390  16.927  0.00  0.00    +0.000 C 
BRANCH  21  22
ATOM     22  N   UNL     1      46.865   4.381  15.929  0.00  0.00    +0.000 N 
ATOM     23  C   UNL     1      46.997   4.107  14.593  0.00  0.00    +0.000 C 
ATOM     24  O   UNL     1      47.343   3.002  14.185  0.00  0.00    +0.000 OA
ATOM     25  H   UNL     1      46.807   5.345  16.241  0.00  0.00    +0.000 HD
BRANCH  23  26
ATOM     26  C   UNL     1      46.640   5.188  13.665  0.00  0.00    +0.000 A 
ATOM     27  C   UNL     1      47.557   6.195  13.399  0.00  0.00    +0.000 A 
ATOM     28  S   UNL     1      47.011   7.335  12.254  0.00  0.00    +0.000 S 
ATOM     29  C   UNL     1      45.505   6.554  12.117  0.00  0.00    +0.000 A 
ATOM     30  N   UNL     1      44.536   7.039  11.292  0.00  0.00    +0.000 NA
ATOM     31  C   UNL     1      43.439   6.362  11.304  0.00  0.00    +0.000 A 
ATOM     32  N   UNL     1      43.222   5.240  12.062  0.00  0.00    +0.000 N 
ATOM     33  C   UNL     1      44.175   4.701  12.888  0.00  0.00    +0.000 A 
ATOM     34  O   UNL     1      43.956   3.678  13.531  0.00  0.00    +0.000 OA
ATOM     35  C   UNL     1      45.429   5.429  12.918  0.00  0.00    +0.000 A 
ATOM     36  H   UNL     1      42.338   4.752  12.021  0.00  0.00    +0.000 HD
ENDBRANCH  23  26
ENDBRANCH  21  22
ENDBRANCH   4  21
TORSDOF 10
ENDMDL
MODEL 6
REMARK VINA RESULT:    -6.683      2.462      3.351
REMARK INTER + INTRA:         -11.886
REMARK INTER:                 -10.810
REMARK INTRA:                  -1.076
REMARK UNBOUND:                -1.491
REMARK  Name = 
REMARK  10 active torsions:
REMARK  status: ('A' for Active; 'I' for Inactive)
REMARK    1  A    between atoms: N_1  and  C_2
REMARK    2  A    between atoms: C_2  and  C_3
REMARK    3  A    between atoms: C_3  and  N_4
REMARK    4  A    between atoms: N_4  and  C_5
REMARK    5  A    between atoms: N_4  and  C_12
REMARK    6  A    between atoms: C_5  and  C_6
REMARK    7  A    between atoms: C_12  and  C_13
REMARK    8  A    between atoms: C_16  and  C_17
REMARK    9  A    between atoms: C_17  and  N_18
REMARK   10  A    between atoms: C_19  and  C_21
REMARK                            x       y       z     vdW  Elec       q    Type
REMARK                         _______ _______ _______ _____ _____    ______ ____
ROOT
ATOM      1  C   UNL     1      46.277   5.252  12.195  0.00  0.00    +0.000 A 
ATOM      2  C   UNL     1      46.176   3.926  12.640  0.00  0.00    +0.000 A 
ATOM      3  C   UNL     1      46.642   3.563  13.907  0.00  0.00    +0.000 A 
ATOM      4  C   UNL     1      47.211   4.521  14.758  0.00  0.00    +0.000 A 
ATOM      5  C   UNL     1      47.359   5.835  14.293  0.00  0.00    +0.000 A 
ATOM      6  C   UNL     1      46.893   6.197  13.027  0.00  0.00    +0.000 A 
ENDROOT
BRANCH   1   7
ATOM      7  C   UNL     1      45.716   5.663  10.847  0.00  0.00    +0.000 C 
BRANCH   7   8
ATOM      8  N   UNL     1      44.967   4.588  10.148  0.00  0.00    +0.000 NA
BRANCH   8   9
ATOM      9  C   UNL     1      43.501   4.797  10.334  0.00  0.00    +0.000 C 
BRANCH   9  10
ATOM     10  C   UNL     1      42.876   4.146  11.592  0.00  0.00    +0.000 C 
BRANCH  10  11
ATOM     11  N   UNL     1      42.950   2.682  11.538  0.00  0.00    +0.000 NA
ATOM     12  H   UNL     1      43.751   2.408  10.970  0.00  0.00    +0.000 HD
ATOM     13  H   UNL     1      42.125   2.315  11.064  0.00  0.00    +0.000 HD
ENDBRANCH  10  11
ENDBRANCH   9  10
ENDBRANCH   8   9
BRANCH   8  14
ATOM     14  C   UNL     1      45.299   4.600   8.709  0.00  0.00    +0.000 C 
BRANCH  14  15
ATOM     15  C   UNL     1      46.071   3.406   8.177  0.00  0.00    +0.000 A 
ATOM     16  C   UNL     1      45.786   2.104   8.614  0.00  0.00    +0.000 A 
ATOM     17  C   UNL     1      46.358   1.001   7.973  0.00  0.00    +0.000 A 
ATOM     18  C   UNL     1      47.230   1.187   6.901  0.00  0.00    +0.000 A 
ATOM     19  C   UNL     1      47.563   2.476   6.493  0.00  0.00    +0.000 A 
ATOM     20  C   UNL     1      46.990   3.580   7.129  0.00  0.00    +0.000 A 
ENDBRANCH  14  15
ENDBRANCH   8  14
ENDBRANCH   7   8
ENDBRANCH   1   7
BRANCH   4  21
ATOM     21  C   UNL     1      47.684   4.150  16.139  0.00  0.00    +0.000 C 
BRANCH  21  22
ATOM     22  N   UNL     1      47.995   5.322  16.915  0.00  0.00    +0.000 N 
ATOM     23  C   UNL     1      49.286   5.621  17.263  0.00  0.00    +0.000 C 
ATOM     24  O   UNL     1      50.235   4.934  16.896  0.00  0.00    +0.000 OA
ATOM     25  H   UNL     1      47.226   5.760  17.413  0.00  0.00    +0.000 HD
BRANCH  23  26
ATOM     26  C   UNL     1      49.485   6.848  18.045  0.00  0.00    +0.000 A 
ATOM     27  C   UNL     1      49.633   8.063  17.389  0.00  0.00    +0.000 A 
ATOM     28  S   UNL     1      49.791   9.395  18.442  0.00  0.00    +0.000 S 
ATOM     29  C   UNL     1      49.727   8.387  19.812  0.00  0.00    +0.000 A 
ATOM     30  N   UNL     1      49.828   8.903  21.069  0.00  0.00    +0.000 NA
ATOM     31  C   UNL     1      49.786   8.024  22.011  0.00  0.00    +0.000 A 
ATOM     32  N   UNL     1      49.650   6.674  21.813  0.00  0.00    +0.000 N 
ATOM     33  C   UNL     1      49.520   6.110  20.569  0.00  0.00    +0.000 A 
ATOM     34  O   UNL     1      49.369   4.899  20.430  0.00  0.00    +0.000 OA
ATOM     35  C   UNL     1      49.566   7.056  19.471  0.00  0.00    +0.000 A 
ATOM     36  H   UNL     1      49.619   6.038  22.597  0.00  0.00    +0.000 HD
ENDBRANCH  23  26
ENDBRANCH  21  22
ENDBRANCH   4  21
TORSDOF 10
ENDMDL
MODEL 7
REMARK VINA RESULT:    -6.645      3.462      4.632
REMARK INTER + INTRA:         -11.826
REMARK INTER:                 -10.332
REMARK INTRA:                  -1.494
REMARK UNBOUND:                -1.491
REMARK  Name = 
REMARK  10 active torsions:
REMARK  status: ('A' for Active; 'I' for Inactive)
REMARK    1  A    between atoms: N_1  and  C_2
REMARK    2  A    between atoms: C_2  and  C_3
REMARK    3  A    between atoms: C_3  and  N_4
REMARK    4  A    between atoms: N_4  and  C_5
REMARK    5  A    between atoms: N_4  and  C_12
REMARK    6  A    between atoms: C_5  and  C_6
REMARK    7  A    between atoms: C_12  and  C_13
REMARK    8  A    between atoms: C_16  and  C_17
REMARK    9  A    between atoms: C_17  and  N_18
REMARK   10  A    between atoms: C_19  and  C_21
REMARK                            x       y       z     vdW  Elec       q    Type
REMARK                         _______ _______ _______ _____ _____    ______ ____
ROOT
ATOM      1  C   UNL     1      45.273   6.934  11.809  0.00  0.00    +0.000 A 
ATOM      2  C   UNL     1      46.445   6.245  12.151  0.00  0.00    +0.000 A 
ATOM      3  C   UNL     1      47.413   6.845  12.963  0.00  0.00    +0.000 A 
ATOM      4  C   UNL     1      47.224   8.144  13.454  0.00  0.00    +0.000 A 
ATOM      5  C   UNL     1      46.077   8.851  13.069  0.00  0.00    +0.000 A 
ATOM      6  C   UNL     1      45.110   8.252  12.259  0.00  0.00    +0.000 A 
ENDROOT
BRANCH   1   7
ATOM      7  C   UNL     1      44.192   6.264  10.982  0.00  0.00    +0.000 C 
BRANCH   7   8
ATOM      8  N   UNL     1      44.303   4.784  10.923  0.00  0.00    +0.000 NA
BRANCH   8   9
ATOM      9  C   UNL     1      43.331   4.171  11.875  0.00  0.00    +0.000 C 
BRANCH   9  10
ATOM     10  C   UNL     1      43.700   2.767  12.412  0.00  0.00    +0.000 C 
BRANCH  10  11
ATOM     11  N   UNL     1      42.973   1.708  11.704  0.00  0.00    +0.000 NA
ATOM     12  H   UNL     1      42.726   2.038  10.772  0.00  0.00    +0.000 HD
ATOM     13  H   UNL     1      42.093   1.518  12.182  0.00  0.00    +0.000 HD
ENDBRANCH  10  11
ENDBRANCH   9  10
ENDBRANCH   8   9
BRANCH   8  14
ATOM     14  C   UNL     1      44.027   4.315   9.549  0.00  0.00    +0.000 C 
BRANCH  14  15
ATOM     15  C   UNL     1      45.147   3.573   8.843  0.00  0.00    +0.000 A 
ATOM     16  C   UNL     1      45.285   2.182   8.965  0.00  0.00    +0.000 A 
ATOM     17  C   UNL     1      46.187   1.487   8.155  0.00  0.00    +0.000 A 
ATOM     18  C   UNL     1      46.971   2.174   7.228  0.00  0.00    +0.000 A 
ATOM     19  C   UNL     1      46.882   3.560   7.136  0.00  0.00    +0.000 A 
ATOM     20  C   UNL     1      45.977   4.257   7.941  0.00  0.00    +0.000 A 
ENDBRANCH  14  15
ENDBRANCH   8  14
ENDBRANCH   7   8
ENDBRANCH   1   7
BRANCH   4  21
ATOM     21  C   UNL     1      48.242   8.788  14.357  0.00  0.00    +0.000 C 
BRANCH  21  22
ATOM     22  N   UNL     1      49.581   8.556  13.883  0.00  0.00    +0.000 N 
ATOM     23  C   UNL     1      50.434   9.597  13.627  0.00  0.00    +0.000 C 
ATOM     24  O   UNL     1      50.114  10.765  13.829  0.00  0.00    +0.000 OA
ATOM     25  H   UNL     1      49.779   7.638  13.497  0.00  0.00    +0.000 HD
BRANCH  23  26
ATOM     26  C   UNL     1      51.780   9.241  13.160  0.00  0.00    +0.000 A 
ATOM     27  C   UNL     1      52.891   9.771  13.801  0.00  0.00    +0.000 A 
ATOM     28  S   UNL     1      54.375   9.208  13.178  0.00  0.00    +0.000 S 
ATOM     29  C   UNL     1      53.585   8.280  11.990  0.00  0.00    +0.000 A 
ATOM     30  N   UNL     1      54.293   7.546  11.087  0.00  0.00    +0.000 NA
ATOM     31  C   UNL     1      53.567   6.911  10.231  0.00  0.00    +0.000 A 
ATOM     32  N   UNL     1      52.197   6.940  10.196  0.00  0.00    +0.000 N 
ATOM     33  C   UNL     1      51.440   7.644  11.098  0.00  0.00    +0.000 A 
ATOM     34  O   UNL     1      50.213   7.623  11.055  0.00  0.00    +0.000 OA
ATOM     35  C   UNL     1      52.209   8.383  12.081  0.00  0.00    +0.000 A 
ATOM     36  H   UNL     1      51.687   6.413   9.500  0.00  0.00    +0.000 HD
ENDBRANCH  23  26
ENDBRANCH  21  22
ENDBRANCH   4  21
TORSDOF 10
ENDMDL
MODEL 8
REMARK VINA RESULT:    -6.561      3.955     10.103
REMARK INTER + INTRA:         -11.696
REMARK INTER:                  -9.539
REMARK INTRA:                  -2.157
REMARK UNBOUND:                -1.491
REMARK  Name = 
REMARK  10 active torsions:
REMARK  status: ('A' for Active; 'I' for Inactive)
REMARK    1  A    between atoms: N_1  and  C_2
REMARK    2  A    between atoms: C_2  and  C_3
REMARK    3  A    between atoms: C_3  and  N_4
REMARK    4  A    between atoms: N_4  and  C_5
REMARK    5  A    between atoms: N_4  and  C_12
REMARK    6  A    between atoms: C_5  and  C_6
REMARK    7  A    between atoms: C_12  and  C_13
REMARK    8  A    between atoms: C_16  and  C_17
REMARK    9  A    between atoms: C_17  and  N_18
REMARK   10  A    between atoms: C_19  and  C_21
REMARK                            x       y       z     vdW  Elec       q    Type
REMARK                         _______ _______ _______ _____ _____    ______ ____
ROOT
ATOM      1  C   UNL     1      51.570   3.265  17.746  0.00  0.00    +0.000 A 
ATOM      2  C   UNL     1      50.845   2.157  17.285  0.00  0.00    +0.000 A 
ATOM      3  C   UNL     1      49.469   2.252  17.054  0.00  0.00    +0.000 A 
ATOM      4  C   UNL     1      48.793   3.460  17.273  0.00  0.00    +0.000 A 
ATOM      5  C   UNL     1      49.507   4.552  17.783  0.00  0.00    +0.000 A 
ATOM      6  C   UNL     1      50.881   4.457  18.013  0.00  0.00    +0.000 A 
ENDROOT
BRANCH   1   7
ATOM      7  C   UNL     1      53.072   3.184  17.938  0.00  0.00    +0.000 C 
BRANCH   7   8
ATOM      8  N   UNL     1      53.489   2.519  19.198  0.00  0.00    +0.000 NA
BRANCH   8   9
ATOM      9  C   UNL     1      54.425   1.399  18.887  0.00  0.00    +0.000 C 
BRANCH   9  10
ATOM     10  C   UNL     1      53.898   0.328  17.900  0.00  0.00    +0.000 C 
BRANCH  10  11
ATOM     11  N   UNL     1      52.888  -0.533  18.524  0.00  0.00    +0.000 NA
ATOM     12  H   UNL     1      51.994  -0.044  18.539  0.00  0.00    +0.000 HD
ATOM     13  H   UNL     1      53.137  -0.702  19.498  0.00  0.00    +0.000 HD
ENDBRANCH  10  11
ENDBRANCH   9  10
ENDBRANCH   8   9
BRANCH   8  14
ATOM     14  C   UNL     1      54.151   3.497  20.086  0.00  0.00    +0.000 C 
BRANCH  14  15
ATOM     15  C   UNL     1      53.286   4.619  20.631  0.00  0.00    +0.000 A 
ATOM     16  C   UNL     1      53.474   5.946  20.217  0.00  0.00    +0.000 A 
ATOM     17  C   UNL     1      52.548   6.933  20.565  0.00  0.00    +0.000 A 
ATOM     18  C   UNL     1      51.435   6.610  21.341  0.00  0.00    +0.000 A 
ATOM     19  C   UNL     1      51.267   5.307  21.804  0.00  0.00    +0.000 A 
ATOM     20  C   UNL     1      52.188   4.317  21.453  0.00  0.00    +0.000 A 
ENDBRANCH  14  15
ENDBRANCH   8  14
ENDBRANCH   7   8
ENDBRANCH   1   7
BRANCH   4  21
ATOM     21  C   UNL     1      47.318   3.585  16.994  0.00  0.00    +0.000 C 
BRANCH  21  22
ATOM     22  N   UNL     1      47.060   4.595  16.000  0.00  0.00    +0.000 N 
ATOM     23  C   UNL     1      47.082   4.297  14.663  0.00  0.00    +0.000 C 
ATOM     24  O   UNL     1      47.278   3.156  14.253  0.00  0.00    +0.000 OA
ATOM     25  H   UNL     1      47.128   5.562  16.301  0.00  0.00    +0.000 HD
BRANCH  23  26
ATOM     26  C   UNL     1      46.790   5.402  13.742  0.00  0.00    +0.000 A 
ATOM     27  C   UNL     1      45.645   5.359  12.959  0.00  0.00    +0.000 A 
ATOM     28  S   UNL     1      45.423   6.747  11.993  0.00  0.00    +0.000 S 
ATOM     29  C   UNL     1      46.881   7.430  12.545  0.00  0.00    +0.000 A 
ATOM     30  N   UNL     1      47.307   8.639  12.086  0.00  0.00    +0.000 NA
ATOM     31  C   UNL     1      48.439   9.024  12.571  0.00  0.00    +0.000 A 
ATOM     32  N   UNL     1      49.182   8.312  13.476  0.00  0.00    +0.000 N 
ATOM     33  C   UNL     1      48.782   7.103  13.986  0.00  0.00    +0.000 A 
ATOM     34  O   UNL     1      49.460   6.506  14.818  0.00  0.00    +0.000 OA
ATOM     35  C   UNL     1      47.517   6.619  13.467  0.00  0.00    +0.000 A 
ATOM     36  H   UNL     1      50.060   8.674  13.821  0.00  0.00    +0.000 HD
ENDBRANCH  23  26
ENDBRANCH  21  22
ENDBRANCH   4  21
TORSDOF 10
ENDMDL
