MODEL 1
REMARK VINA RESULT:    -6.891      0.000      0.000
REMARK INTER + INTRA:         -10.999
REMARK INTER:                  -9.711
REMARK INTRA:                  -1.288
REMARK UNBOUND:                -1.288
REMARK  Name = 
REMARK  8 active torsions:
REMARK  status: ('A' for Active; 'I' for Inactive)
REMARK    1  A    between atoms: C_1  and  N_2
REMARK    2  A    between atoms: N_2  and  C_3
REMARK    3  A    between atoms: N_2  and  C_16
REMARK    4  A    between atoms: C_3  and  C_4
REMARK    5  A    between atoms: C_4  and  C_5
REMARK    6  A    between atoms: C_9  and  N_10
REMARK    7  A    between atoms: N_10  and  C_11
REMARK    8  A    between atoms: C_20  and  C_21
REMARK                            x       y       z     vdW  Elec       q    Type
REMARK                         _______ _______ _______ _____ _____    ______ ____
ROOT
ATOM      1  C   UNL     1      46.868   7.441  13.265  0.00  0.00    +0.000 C 
ENDROOT
BRANCH   1   3
ATOM      2  C   UNL     1      48.681   8.513  11.891  0.00  0.00    +0.000 C 
ATOM      3  N   UNL     1      47.394   8.633  12.565  0.00  0.00    +0.000 N 
BRANCH   3   4
ATOM      4  C   UNL     1      46.461   9.563  12.095  0.00  0.00    +0.000 A 
ATOM      5  C   UNL     1      46.743  10.931  11.973  0.00  0.00    +0.000 A 
ATOM      6  C   UNL     1      45.798  11.823  11.446  0.00  0.00    +0.000 A 
ATOM      7  C   UNL     1      44.550  11.358  11.043  0.00  0.00    +0.000 A 
ATOM      8  C   UNL     1      44.230  10.003  11.172  0.00  0.00    +0.000 A 
ATOM      9  C   UNL     1      45.184   9.125  11.707  0.00  0.00    +0.000 A 
BRANCH   8  10
ATOM     10  C   UNL     1      42.883   9.554  10.718  0.00  0.00    +0.000 C 
ATOM     11  N   UNL     1      42.499   8.265  10.963  0.00  0.00    +0.000 N 
ATOM     12  O   UNL     1      42.123  10.311  10.122  0.00  0.00    +0.000 OA
ATOM     13  H   UNL     1      43.042   7.577  11.452  0.00  0.00    +0.000 HD
ATOM     14  H   UNL     1      41.581   7.996  10.634  0.00  0.00    +0.000 HD
ENDBRANCH   8  10
ENDBRANCH   3   4
ENDBRANCH   1   3
BRANCH   1  15
ATOM     15  C   UNL     1      47.026   6.147  12.449  0.00  0.00    +0.000 C 
BRANCH  15  16
ATOM     16  C   UNL     1      45.698   5.572  12.005  0.00  0.00    +0.000 A 
ATOM     17  C   UNL     1      44.694   5.308  12.943  0.00  0.00    +0.000 A 
ATOM     18  C   UNL     1      43.480   4.751  12.536  0.00  0.00    +0.000 A 
ATOM     19  C   UNL     1      43.253   4.448  11.190  0.00  0.00    +0.000 A 
ATOM     20  C   UNL     1      44.233   4.715  10.233  0.00  0.00    +0.000 A 
ATOM     21  C   UNL     1      45.449   5.283  10.651  0.00  0.00    +0.000 A 
BRANCH  20  22
ATOM     22  N   UNL     1      44.056   4.451   8.853  0.00  0.00    +0.000 N 
ATOM     23  H   UNL     1      43.099   4.696   8.600  0.00  0.00    +0.000 HD
BRANCH  22  24
ATOM     24  C   UNL     1      44.513   3.291   8.141  0.00  0.00    +0.000 C 
ATOM     25  C   UNL     1      45.130   2.214   9.066  0.00  0.00    +0.000 C 
ATOM     26  C   UNL     1      46.293   2.095   8.062  0.00  0.00    +0.000 C 
ATOM     27  C   UNL     1      45.941   3.511   7.575  0.00  0.00    +0.000 C 
ENDBRANCH  22  24
ENDBRANCH  20  22
ENDBRANCH  15  16
ENDBRANCH   1  15
TORSDOF 7
ENDMDL
MODEL 2
REMARK VINA RESULT:    -6.665      3.767      5.464
REMARK INTER + INTRA:         -10.681
REMARK INTER:                  -9.889
REMARK INTRA:                  -0.792
REMARK UNBOUND:                -1.288
REMARK  Name = 
REMARK  8 active torsions:
REMARK  status: ('A' for Active; 'I' for Inactive)
REMARK    1  A    between atoms: C_1  and  N_2
REMARK    2  A    between atoms: N_2  and  C_3
REMARK    3  A    between atoms: N_2  and  C_16
REMARK    4  A    between atoms: C_3  and  C_4
REMARK    5  A    between atoms: C_4  and  C_5
REMARK    6  A    between atoms: C_9  and  N_10
REMARK    7  A    between atoms: N_10  and  C_11
REMARK    8  A    between atoms: C_20  and  C_21
REMARK                            x       y       z     vdW  Elec       q    Type
REMARK                         _______ _______ _______ _____ _____    ______ ____
ROOT
ATOM      1  C   UNL     1      45.616   6.124  12.887  0.00  0.00    +0.000 C 
ENDROOT
BRANCH   1   3
ATOM      2  C   UNL     1      47.725   7.143  11.973  0.00  0.00    +0.000 C 
ATOM      3  N   UNL     1      47.089   6.251  12.934  0.00  0.00    +0.000 N 
BRANCH   3   4
ATOM      4  C   UNL     1      47.713   6.014  14.163  0.00  0.00    +0.000 A 
ATOM      5  C   UNL     1      48.549   6.951  14.787  0.00  0.00    +0.000 A 
ATOM      6  C   UNL     1      49.113   6.696  16.045  0.00  0.00    +0.000 A 
ATOM      7  C   UNL     1      48.858   5.491  16.692  0.00  0.00    +0.000 A 
ATOM      8  C   UNL     1      48.047   4.527  16.086  0.00  0.00    +0.000 A 
ATOM      9  C   UNL     1      47.495   4.795  14.825  0.00  0.00    +0.000 A 
BRANCH   8  10
ATOM     10  C   UNL     1      47.797   3.257  16.825  0.00  0.00    +0.000 C 
ATOM     11  N   UNL     1      46.613   3.102  17.491  0.00  0.00    +0.000 N 
ATOM     12  O   UNL     1      48.632   2.358  16.856  0.00  0.00    +0.000 OA
ATOM     13  H   UNL     1      45.865   3.771  17.514  0.00  0.00    +0.000 HD
ATOM     14  H   UNL     1      46.483   2.229  17.986  0.00  0.00    +0.000 HD
ENDBRANCH   8  10
ENDBRANCH   3   4
ENDBRANCH   1   3
BRANCH   1  15
ATOM     15  C   UNL     1      45.041   6.322  11.476  0.00  0.00    +0.000 C 
BRANCH  15  16
ATOM     16  C   UNL     1      44.819   5.013  10.747  0.00  0.00    +0.000 A 
ATOM     17  C   UNL     1      44.180   3.947  11.388  0.00  0.00    +0.000 A 
ATOM     18  C   UNL     1      44.001   2.733  10.725  0.00  0.00    +0.000 A 
ATOM     19  C   UNL     1      44.461   2.564   9.416  0.00  0.00    +0.000 A 
ATOM     20  C   UNL     1      45.088   3.616   8.748  0.00  0.00    +0.000 A 
ATOM     21  C   UNL     1      45.256   4.838   9.422  0.00  0.00    +0.000 A 
BRANCH  20  22
ATOM     22  N   UNL     1      45.556   3.515   7.415  0.00  0.00    +0.000 N 
ATOM     23  H   UNL     1      44.845   3.038   6.861  0.00  0.00    +0.000 HD
BRANCH  22  24
ATOM     24  C   UNL     1      46.882   3.154   7.002  0.00  0.00    +0.000 C 
ATOM     25  C   UNL     1      46.980   2.823   5.494  0.00  0.00    +0.000 C 
ATOM     26  C   UNL     1      47.804   1.578   5.875  0.00  0.00    +0.000 C 
ATOM     27  C   UNL     1      47.161   1.652   7.271  0.00  0.00    +0.000 C 
ENDBRANCH  22  24
ENDBRANCH  20  22
ENDBRANCH  15  16
ENDBRANCH   1  15
TORSDOF 7
ENDMDL
MODEL 3
REMARK VINA RESULT:    -6.567      3.605      5.248
REMARK INTER + INTRA:         -10.542
REMARK INTER:                  -9.679
REMARK INTRA:                  -0.863
REMARK UNBOUND:                -1.288
REMARK  Name = 
REMARK  8 active torsions:
REMARK  status: ('A' for Active; 'I' for Inactive)
REMARK    1  A    between atoms: C_1  and  N_2
REMARK    2  A    between atoms: N_2  and  C_3
REMARK    3  A    between atoms: N_2  and  C_16
REMARK    4  A    between atoms: C_3  and  C_4
REMARK    5  A    between atoms: C_4  and  C_5
REMARK    6  A    between atoms: C_9  and  N_10
REMARK    7  A    between atoms: N_10  and  C_11
REMARK    8  A    between atoms: C_20  and  C_21
REMARK                            x       y       z     vdW  Elec       q    Type
REMARK                         _______ _______ _______ _____ _____    ______ ____
ROOT
ATOM      1  C   UNL     1      48.303   6.873  12.523  0.00  0.00    +0.000 C 
ENDROOT
BRANCH   1   3
ATOM      2  C   UNL     1      47.882   8.898  13.952  0.00  0.00    +0.000 C 
ATOM      3  N   UNL     1      48.569   7.626  13.767  0.00  0.00    +0.000 N 
BRANCH   3   4
ATOM      4  C   UNL     1      48.957   6.890  14.892  0.00  0.00    +0.000 A 
ATOM      5  C   UNL     1      50.211   7.032  15.501  0.00  0.00    +0.000 A 
ATOM      6  C   UNL     1      50.541   6.315  16.660  0.00  0.00    +0.000 A 
ATOM      7  C   UNL     1      49.621   5.435  17.219  0.00  0.00    +0.000 A 
ATOM      8  C   UNL     1      48.369   5.254  16.623  0.00  0.00    +0.000 A 
ATOM      9  C   UNL     1      48.058   5.975  15.461  0.00  0.00    +0.000 A 
BRANCH   8  10
ATOM     10  C   UNL     1      47.416   4.306  17.267  0.00  0.00    +0.000 C 
ATOM     11  N   UNL     1      47.405   4.204  18.630  0.00  0.00    +0.000 N 
ATOM     12  O   UNL     1      46.655   3.611  16.600  0.00  0.00    +0.000 OA
ATOM     13  H   UNL     1      47.978   4.736  19.260  0.00  0.00    +0.000 HD
ATOM     14  H   UNL     1      46.749   3.545  19.030  0.00  0.00    +0.000 HD
ENDBRANCH   8  10
ENDBRANCH   3   4
ENDBRANCH   1   3
BRANCH   1  15
ATOM     15  C   UNL     1      46.934   7.199  11.905  0.00  0.00    +0.000 C 
BRANCH  15  16
ATOM     16  C   UNL     1      46.078   5.967  11.700  0.00  0.00    +0.000 A 
ATOM     17  C   UNL     1      45.818   5.102  12.769  0.00  0.00    +0.000 A 
ATOM     18  C   UNL     1      45.052   3.953  12.573  0.00  0.00    +0.000 A 
ATOM     19  C   UNL     1      44.538   3.648  11.309  0.00  0.00    +0.000 A 
ATOM     20  C   UNL     1      44.771   4.501  10.229  0.00  0.00    +0.000 A 
ATOM     21  C   UNL     1      45.536   5.661  10.439  0.00  0.00    +0.000 A 
BRANCH  20  22
ATOM     22  N   UNL     1      44.260   4.260   8.931  0.00  0.00    +0.000 N 
ATOM     23  H   UNL     1      43.242   4.262   8.981  0.00  0.00    +0.000 HD
BRANCH  22  24
ATOM     24  C   UNL     1      44.744   3.288   7.992  0.00  0.00    +0.000 C 
ATOM     25  C   UNL     1      45.468   2.098   8.667  0.00  0.00    +0.000 C 
ATOM     26  C   UNL     1      46.582   2.246   7.611  0.00  0.00    +0.000 C 
ATOM     27  C   UNL     1      46.125   3.703   7.420  0.00  0.00    +0.000 C 
ENDBRANCH  22  24
ENDBRANCH  20  22
ENDBRANCH  15  16
ENDBRANCH   1  15
TORSDOF 7
ENDMDL
MODEL 4
REMARK VINA RESULT:    -6.454      3.498      5.904
REMARK INTER + INTRA:         -10.384
REMARK INTER:                 -10.260
REMARK INTRA:                  -0.123
REMARK UNBOUND:                -1.288
REMARK  Name = 
REMARK  8 active torsions:
REMARK  status: ('A' for Active; 'I' for Inactive)
REMARK    1  A    between atoms: C_1  and  N_2
REMARK    2  A    between atoms: N_2  and  C_3
REMARK    3  A    between atoms: N_2  and  C_16
REMARK    4  A    between atoms: C_3  and  C_4
REMARK    5  A    between atoms: C_4  and  C_5
REMARK    6  A    between atoms: C_9  and  N_10
REMARK    7  A    between atoms: N_10  and  C_11
REMARK    8  A    between atoms: C_20  and  C_21
REMARK                            x       y       z     vdW  Elec       q    Type
REMARK                         _______ _______ _______ _____ _____    ______ ____
ROOT
ATOM      1  C   UNL     1      43.904   4.000  10.219  0.00  0.00    +0.000 C 
ENDROOT
BRANCH   1   3
ATOM      2  C   UNL     1      42.705   5.532  11.812  0.00  0.00    +0.000 C 
ATOM      3  N   UNL     1      43.950   5.137  11.164  0.00  0.00    +0.000 N 
BRANCH   3   4
ATOM      4  C   UNL     1      45.164   5.383  11.812  0.00  0.00    +0.000 A 
ATOM      5  C   UNL     1      46.042   6.405  11.424  0.00  0.00    +0.000 A 
ATOM      6  C   UNL     1      47.225   6.655  12.133  0.00  0.00    +0.000 A 
ATOM      7  C   UNL     1      47.553   5.875  13.237  0.00  0.00    +0.000 A 
ATOM      8  C   UNL     1      46.710   4.833  13.637  0.00  0.00    +0.000 A 
ATOM      9  C   UNL     1      45.533   4.593  12.912  0.00  0.00    +0.000 A 
BRANCH   8  10
ATOM     10  C   UNL     1      47.102   4.033  14.831  0.00  0.00    +0.000 C 
ATOM     11  N   UNL     1      46.589   4.373  16.052  0.00  0.00    +0.000 N 
ATOM     12  O   UNL     1      47.880   3.088  14.742  0.00  0.00    +0.000 OA
ATOM     13  H   UNL     1      45.938   5.118  16.225  0.00  0.00    +0.000 HD
ATOM     14  H   UNL     1      46.884   3.811  16.840  0.00  0.00    +0.000 HD
ENDBRANCH   8  10
ENDBRANCH   3   4
ENDBRANCH   1   3
BRANCH   1  15
ATOM     15  C   UNL     1      44.483   4.345   8.837  0.00  0.00    +0.000 C 
BRANCH  15  16
ATOM     16  C   UNL     1      45.281   3.207   8.238  0.00  0.00    +0.000 A 
ATOM     17  C   UNL     1      45.398   1.991   8.920  0.00  0.00    +0.000 A 
ATOM     18  C   UNL     1      46.157   0.952   8.380  0.00  0.00    +0.000 A 
ATOM     19  C   UNL     1      46.813   1.113   7.156  0.00  0.00    +0.000 A 
ATOM     20  C   UNL     1      46.701   2.311   6.448  0.00  0.00    +0.000 A 
ATOM     21  C   UNL     1      45.927   3.348   6.997  0.00  0.00    +0.000 A 
BRANCH  20  22
ATOM     22  N   UNL     1      47.322   2.528   5.195  0.00  0.00    +0.000 N 
ATOM     23  H   UNL     1      47.022   3.436   4.841  0.00  0.00    +0.000 HD
BRANCH  22  24
ATOM     24  C   UNL     1      47.466   1.568   4.137  0.00  0.00    +0.000 C 
ATOM     25  C   UNL     1      46.180   1.396   3.293  0.00  0.00    +0.000 C 
ATOM     26  C   UNL     1      46.382  -0.128   3.394  0.00  0.00    +0.000 C 
ATOM     27  C   UNL     1      47.225   0.126   4.655  0.00  0.00    +0.000 C 
ENDBRANCH  22  24
ENDBRANCH  20  22
ENDBRANCH  15  16
ENDBRANCH   1  15
TORSDOF 7
ENDMDL
MODEL 5
REMARK VINA RESULT:    -6.327      4.131      5.991
REMARK INTER + INTRA:         -10.204
REMARK INTER:                  -9.188
REMARK INTRA:                  -1.015
REMARK UNBOUND:                -1.288
REMARK  Name = 
REMARK  8 active torsions:
REMARK  status: ('A' for Active; 'I' for Inactive)
REMARK    1  A    between atoms: C_1  and  N_2
REMARK    2  A    between atoms: N_2  and  C_3
REMARK    3  A    between atoms: N_2  and  C_16
REMARK    4  A    between atoms: C_3  and  C_4
REMARK    5  A    between atoms: C_4  and  C_5
REMARK    6  A    between atoms: C_9  and  N_10
REMARK    7  A    between atoms: N_10  and  C_11
REMARK    8  A    between atoms: C_20  and  C_21
REMARK                            x       y       z     vdW  Elec       q    Type
REMARK                         _______ _______ _______ _____ _____    ______ ____
ROOT
ATOM      1  C   UNL     1      46.931   6.987  13.524  0.00  0.00    +0.000 C 
ENDROOT
BRANCH   1   3
ATOM      2  C   UNL     1      49.346   7.427  14.069  0.00  0.00    +0.000 C 
ATOM      3  N   UNL     1      48.189   6.547  14.167  0.00  0.00    +0.000 N 
BRANCH   3   4
ATOM      4  C   UNL     1      48.080   5.680  15.259  0.00  0.00    +0.000 A 
ATOM      5  C   UNL     1      47.230   4.565  15.266  0.00  0.00    +0.000 A 
ATOM      6  C   UNL     1      47.190   3.689  16.359  0.00  0.00    +0.000 A 
ATOM      7  C   UNL     1      47.995   3.924  17.470  0.00  0.00    +0.000 A 
ATOM      8  C   UNL     1      48.838   5.039  17.503  0.00  0.00    +0.000 A 
ATOM      9  C   UNL     1      48.861   5.909  16.403  0.00  0.00    +0.000 A 
BRANCH   8  10
ATOM     10  C   UNL     1      49.687   5.241  18.711  0.00  0.00    +0.000 C 
ATOM     11  N   UNL     1      49.585   4.353  19.746  0.00  0.00    +0.000 N 
ATOM     12  O   UNL     1      50.462   6.188  18.799  0.00  0.00    +0.000 OA
ATOM     13  H   UNL     1      48.992   3.543  19.764  0.00  0.00    +0.000 HD
ATOM     14  H   UNL     1      50.172   4.528  20.552  0.00  0.00    +0.000 HD
ENDBRANCH   8  10
ENDBRANCH   3   4
ENDBRANCH   1   3
BRANCH   1  15
ATOM     15  C   UNL     1      46.878   6.659  12.023  0.00  0.00    +0.000 C 
BRANCH  15  16
ATOM     16  C   UNL     1      45.697   5.784  11.660  0.00  0.00    +0.000 A 
ATOM     17  C   UNL     1      44.828   5.320  12.654  0.00  0.00    +0.000 A 
ATOM     18  C   UNL     1      43.757   4.491  12.321  0.00  0.00    +0.000 A 
ATOM     19  C   UNL     1      43.539   4.110  10.993  0.00  0.00    +0.000 A 
ATOM     20  C   UNL     1      44.382   4.570   9.981  0.00  0.00    +0.000 A 
ATOM     21  C   UNL     1      45.454   5.412  10.325  0.00  0.00    +0.000 A 
BRANCH  20  22
ATOM     22  N   UNL     1      44.202   4.238   8.616  0.00  0.00    +0.000 N 
ATOM     23  H   UNL     1      43.241   4.457   8.356  0.00  0.00    +0.000 HD
BRANCH  22  24
ATOM     24  C   UNL     1      44.672   3.051   7.959  0.00  0.00    +0.000 C 
ATOM     25  C   UNL     1      45.410   2.080   8.911  0.00  0.00    +0.000 C 
ATOM     26  C   UNL     1      46.505   1.942   7.835  0.00  0.00    +0.000 C 
ATOM     27  C   UNL     1      46.042   3.297   7.274  0.00  0.00    +0.000 C 
ENDBRANCH  22  24
ENDBRANCH  20  22
ENDBRANCH  15  16
ENDBRANCH   1  15
TORSDOF 7
ENDMDL
MODEL 6
REMARK VINA RESULT:    -6.225      6.071      8.118
REMARK INTER + INTRA:         -10.060
REMARK INTER:                  -9.392
REMARK INTRA:                  -0.668
REMARK UNBOUND:                -1.288
REMARK  Name = 
REMARK  8 active torsions:
REMARK  status: ('A' for Active; 'I' for Inactive)
REMARK    1  A    between atoms: C_1  and  N_2
REMARK    2  A    between atoms: N_2  and  C_3
REMARK    3  A    between atoms: N_2  and  C_16
REMARK    4  A    between atoms: C_3  and  C_4
REMARK    5  A    between atoms: C_4  and  C_5
REMARK    6  A    between atoms: C_9  and  N_10
REMARK    7  A    between atoms: N_10  and  C_11
REMARK    8  A    between atoms: C_20  and  C_21
REMARK                            x       y       z     vdW  Elec       q    Type
REMARK                         _______ _______ _______ _____ _____    ______ ____
ROOT
ATOM      1  C   UNL     1      47.977   5.054  15.966  0.00  0.00    +0.000 C 
ENDROOT
BRANCH   1   3
ATOM      2  C   UNL     1      47.477   3.179  17.565  0.00  0.00    +0.000 C 
ATOM      3  N   UNL     1      48.389   4.225  17.119  0.00  0.00    +0.000 N 
BRANCH   3   4
ATOM      4  C   UNL     1      49.761   4.075  17.343  0.00  0.00    +0.000 A 
ATOM      5  C   UNL     1      50.620   5.159  17.573  0.00  0.00    +0.000 A 
ATOM      6  C   UNL     1      51.981   4.963  17.847  0.00  0.00    +0.000 A 
ATOM      7  C   UNL     1      52.505   3.674  17.882  0.00  0.00    +0.000 A 
ATOM      8  C   UNL     1      51.680   2.573  17.635  0.00  0.00    +0.000 A 
ATOM      9  C   UNL     1      50.322   2.788  17.357  0.00  0.00    +0.000 A 
BRANCH   8  10
ATOM     10  C   UNL     1      52.288   1.214  17.694  0.00  0.00    +0.000 C 
ATOM     11  N   UNL     1      51.538   0.174  18.169  0.00  0.00    +0.000 N 
ATOM     12  O   UNL     1      53.445   1.014  17.337  0.00  0.00    +0.000 OA
ATOM     13  H   UNL     1      50.583   0.234  18.472  0.00  0.00    +0.000 HD
ATOM     14  H   UNL     1      51.988  -0.732  18.200  0.00  0.00    +0.000 HD
ENDBRANCH   8  10
ENDBRANCH   3   4
ENDBRANCH   1   3
BRANCH   1  15
ATOM     15  C   UNL     1      47.162   4.270  14.924  0.00  0.00    +0.000 C 
BRANCH  15  16
ATOM     16  C   UNL     1      46.839   5.094  13.696  0.00  0.00    +0.000 A 
ATOM     17  C   UNL     1      47.751   6.042  13.221  0.00  0.00    +0.000 A 
ATOM     18  C   UNL     1      47.440   6.820  12.105  0.00  0.00    +0.000 A 
ATOM     19  C   UNL     1      46.214   6.667  11.451  0.00  0.00    +0.000 A 
ATOM     20  C   UNL     1      45.292   5.719  11.896  0.00  0.00    +0.000 A 
ATOM     21  C   UNL     1      45.618   4.933  13.015  0.00  0.00    +0.000 A 
BRANCH  20  22
ATOM     22  N   UNL     1      44.044   5.500  11.265  0.00  0.00    +0.000 N 
ATOM     23  H   UNL     1      43.314   5.531  11.976  0.00  0.00    +0.000 HD
BRANCH  22  24
ATOM     24  C   UNL     1      43.759   4.520  10.255  0.00  0.00    +0.000 C 
ATOM     25  C   UNL     1      43.849   3.066  10.778  0.00  0.00    +0.000 C 
ATOM     26  C   UNL     1      44.659   2.719   9.513  0.00  0.00    +0.000 C 
ATOM     27  C   UNL     1      45.020   4.210   9.406  0.00  0.00    +0.000 C 
ENDBRANCH  22  24
ENDBRANCH  20  22
ENDBRANCH  15  16
ENDBRANCH   1  15
TORSDOF 7
ENDMDL
MODEL 7
REMARK VINA RESULT:    -6.157      2.615      4.073
REMARK INTER + INTRA:          -9.964
REMARK INTER:                  -9.081
REMARK INTRA:                  -0.883
REMARK UNBOUND:                -1.288
REMARK  Name = 
REMARK  8 active torsions:
REMARK  status: ('A' for Active; 'I' for Inactive)
REMARK    1  A    between atoms: C_1  and  N_2
REMARK    2  A    between atoms: N_2  and  C_3
REMARK    3  A    between atoms: N_2  and  C_16
REMARK    4  A    between atoms: C_3  and  C_4
REMARK    5  A    between atoms: C_4  and  C_5
REMARK    6  A    between atoms: C_9  and  N_10
REMARK    7  A    between atoms: N_10  and  C_11
REMARK    8  A    between atoms: C_20  and  C_21
REMARK                            x       y       z     vdW  Elec       q    Type
REMARK                         _______ _______ _______ _____ _____    ______ ____
ROOT
ATOM      1  C   UNL     1      46.929   6.910  13.596  0.00  0.00    +0.000 C 
ENDROOT
BRANCH   1   3
ATOM      2  C   UNL     1      45.416   8.541  12.425  0.00  0.00    +0.000 C 
ATOM      3  N   UNL     1      46.726   7.911  12.526  0.00  0.00    +0.000 N 
BRANCH   3   4
ATOM      4  C   UNL     1      47.853   8.604  12.075  0.00  0.00    +0.000 A 
ATOM      5  C   UNL     1      47.878   9.996  11.912  0.00  0.00    +0.000 A 
ATOM      6  C   UNL     1      49.046  10.660  11.509  0.00  0.00    +0.000 A 
ATOM      7  C   UNL     1      50.205   9.935  11.251  0.00  0.00    +0.000 A 
ATOM      8  C   UNL     1      50.207   8.543  11.381  0.00  0.00    +0.000 A 
ATOM      9  C   UNL     1      49.028   7.894  11.780  0.00  0.00    +0.000 A 
BRANCH   8  10
ATOM     10  C   UNL     1      51.476   7.813  11.101  0.00  0.00    +0.000 C 
ATOM     11  N   UNL     1      52.491   7.879  12.015  0.00  0.00    +0.000 N 
ATOM     12  O   UNL     1      51.630   7.169  10.068  0.00  0.00    +0.000 OA
ATOM     13  H   UNL     1      52.457   8.367  12.891  0.00  0.00    +0.000 HD
ATOM     14  H   UNL     1      53.339   7.377  11.786  0.00  0.00    +0.000 HD
ENDBRANCH   8  10
ENDBRANCH   3   4
ENDBRANCH   1   3
BRANCH   1  15
ATOM     15  C   UNL     1      46.928   5.464  13.074  0.00  0.00    +0.000 C 
BRANCH  15  16
ATOM     16  C   UNL     1      45.647   5.106  12.352  0.00  0.00    +0.000 A 
ATOM     17  C   UNL     1      44.477   4.849  13.074  0.00  0.00    +0.000 A 
ATOM     18  C   UNL     1      43.304   4.492  12.409  0.00  0.00    +0.000 A 
ATOM     19  C   UNL     1      43.282   4.381  11.016  0.00  0.00    +0.000 A 
ATOM     20  C   UNL     1      44.432   4.646  10.270  0.00  0.00    +0.000 A 
ATOM     21  C   UNL     1      45.606   5.014  10.949  0.00  0.00    +0.000 A 
BRANCH  20  22
ATOM     22  N   UNL     1      44.469   4.574   8.857  0.00  0.00    +0.000 N 
ATOM     23  H   UNL     1      43.652   5.060   8.489  0.00  0.00    +0.000 HD
BRANCH  22  24
ATOM     24  C   UNL     1      44.798   3.418   8.071  0.00  0.00    +0.000 C 
ATOM     25  C   UNL     1      45.308   2.230   8.921  0.00  0.00    +0.000 C 
ATOM     26  C   UNL     1      46.444   2.052   7.895  0.00  0.00    +0.000 C 
ATOM     27  C   UNL     1      46.236   3.524   7.498  0.00  0.00    +0.000 C 
ENDBRANCH  22  24
ENDBRANCH  20  22
ENDBRANCH  15  16
ENDBRANCH   1  15
TORSDOF 7
ENDMDL
MODEL 8
REMARK VINA RESULT:    -6.048      4.568      7.031
REMARK INTER + INTRA:          -9.812
REMARK INTER:                  -8.269
REMARK INTRA:                  -1.542
REMARK UNBOUND:                -1.288
REMARK  Name = 
REMARK  8 active torsions:
REMARK  status: ('A' for Active; 'I' for Inactive)
REMARK    1  A    between atoms: C_1  and  N_2
REMARK    2  A    between atoms: N_2  and  C_3
REMARK    3  A    between atoms: N_2  and  C_16
REMARK    4  A    between atoms: C_3  and  C_4
REMARK    5  A    between atoms: C_4  and  C_5
REMARK    6  A    between atoms: C_9  and  N_10
REMARK    7  A    between atoms: N_10  and  C_11
REMARK    8  A    between atoms: C_20  and  C_21
REMARK                            x       y       z     vdW  Elec       q    Type
REMARK                         _______ _______ _______ _____ _____    ______ ____
ROOT
ATOM      1  C   UNL     1      49.831   7.725  13.889  0.00  0.00    +0.000 C 
ENDROOT
BRANCH   1   3
ATOM      2  C   UNL     1      49.588   8.229  11.438  0.00  0.00    +0.000 C 
ATOM      3  N   UNL     1      48.957   7.897  12.709  0.00  0.00    +0.000 N 
BRANCH   3   4
ATOM      4  C   UNL     1      47.740   7.208  12.707  0.00  0.00    +0.000 A 
ATOM      5  C   UNL     1      46.525   7.806  12.342  0.00  0.00    +0.000 A 
ATOM      6  C   UNL     1      45.335   7.066  12.301  0.00  0.00    +0.000 A 
ATOM      7  C   UNL     1      45.342   5.716  12.637  0.00  0.00    +0.000 A 
ATOM      8  C   UNL     1      46.533   5.095  13.027  0.00  0.00    +0.000 A 
ATOM      9  C   UNL     1      47.714   5.852  13.068  0.00  0.00    +0.000 A 
BRANCH   8  10
ATOM     10  C   UNL     1      46.489   3.645  13.369  0.00  0.00    +0.000 C 
ATOM     11  N   UNL     1      45.562   2.850  12.756  0.00  0.00    +0.000 N 
ATOM     12  O   UNL     1      47.257   3.158  14.193  0.00  0.00    +0.000 OA
ATOM     13  H   UNL     1      44.901   3.151  12.062  0.00  0.00    +0.000 HD
ATOM     14  H   UNL     1      45.558   1.873  13.019  0.00  0.00    +0.000 HD
ENDBRANCH   8  10
ENDBRANCH   3   4
ENDBRANCH   1   3
BRANCH   1  15
ATOM     15  C   UNL     1      49.393   8.577  15.090  0.00  0.00    +0.000 C 
BRANCH  15  16
ATOM     16  C   UNL     1      48.896   7.740  16.249  0.00  0.00    +0.000 A 
ATOM     17  C   UNL     1      48.557   8.345  17.464  0.00  0.00    +0.000 A 
ATOM     18  C   UNL     1      48.125   7.569  18.540  0.00  0.00    +0.000 A 
ATOM     19  C   UNL     1      48.030   6.180  18.421  0.00  0.00    +0.000 A 
ATOM     20  C   UNL     1      48.348   5.552  17.216  0.00  0.00    +0.000 A 
ATOM     21  C   UNL     1      48.774   6.343  16.135  0.00  0.00    +0.000 A 
BRANCH  20  22
ATOM     22  N   UNL     1      48.251   4.153  17.026  0.00  0.00    +0.000 N 
ATOM     23  H   UNL     1      47.264   3.899  17.004  0.00  0.00    +0.000 HD
BRANCH  22  24
ATOM     24  C   UNL     1      49.044   3.147  17.675  0.00  0.00    +0.000 C 
ATOM     25  C   UNL     1      50.544   3.517  17.762  0.00  0.00    +0.000 C 
ATOM     26  C   UNL     1      50.869   2.088  17.285  0.00  0.00    +0.000 C 
ATOM     27  C   UNL     1      49.457   2.032  16.678  0.00  0.00    +0.000 C 
ENDBRANCH  22  24
ENDBRANCH  20  22
ENDBRANCH  15  16
ENDBRANCH   1  15
TORSDOF 7
ENDMDL
MODEL 9
REMARK VINA RESULT:    -6.007      3.827      7.023
REMARK INTER + INTRA:          -9.753
REMARK INTER:                  -8.336
REMARK INTRA:                  -1.417
REMARK UNBOUND:                -1.288
REMARK  Name = 
REMARK  8 active torsions:
REMARK  status: ('A' for Active; 'I' for Inactive)
REMARK    1  A    between atoms: C_1  and  N_2
REMARK    2  A    between atoms: N_2  and  C_3
REMARK    3  A    between atoms: N_2  and  C_16
REMARK    4  A    between atoms: C_3  and  C_4
REMARK    5  A    between atoms: C_4  and  C_5
REMARK    6  A    between atoms: C_9  and  N_10
REMARK    7  A    between atoms: N_10  and  C_11
REMARK    8  A    between atoms: C_20  and  C_21
REMARK                            x       y       z     vdW  Elec       q    Type
REMARK                         _______ _______ _______ _____ _____    ______ ____
ROOT
ATOM      1  C   UNL     1      48.208   7.817  12.987  0.00  0.00    +0.000 C 
ENDROOT
BRANCH   1   3
ATOM      2  C   UNL     1      45.811   8.519  12.706  0.00  0.00    +0.000 C 
ATOM      3  N   UNL     1      46.770   7.483  13.068  0.00  0.00    +0.000 N 
BRANCH   3   4
ATOM      4  C   UNL     1      46.415   6.139  12.915  0.00  0.00    +0.000 A 
ATOM      5  C   UNL     1      46.995   5.106  13.664  0.00  0.00    +0.000 A 
ATOM      6  C   UNL     1      46.572   3.778  13.519  0.00  0.00    +0.000 A 
ATOM      7  C   UNL     1      45.568   3.462  12.609  0.00  0.00    +0.000 A 
ATOM      8  C   UNL     1      44.984   4.465  11.831  0.00  0.00    +0.000 A 
ATOM      9  C   UNL     1      45.423   5.789  11.985  0.00  0.00    +0.000 A 
BRANCH   8  10
ATOM     10  C   UNL     1      43.906   4.077  10.878  0.00  0.00    +0.000 C 
ATOM     11  N   UNL     1      43.840   4.702   9.664  0.00  0.00    +0.000 N 
ATOM     12  O   UNL     1      43.075   3.220  11.166  0.00  0.00    +0.000 OA
ATOM     13  H   UNL     1      44.478   5.403   9.333  0.00  0.00    +0.000 HD
ATOM     14  H   UNL     1      43.090   4.415   9.048  0.00  0.00    +0.000 HD
ENDBRANCH   8  10
ENDBRANCH   3   4
ENDBRANCH   1   3
BRANCH   1  15
ATOM     15  C   UNL     1      48.622   8.929  13.964  0.00  0.00    +0.000 C 
BRANCH  15  16
ATOM     16  C   UNL     1      48.610   8.473  15.407  0.00  0.00    +0.000 A 
ATOM     17  C   UNL     1      48.170   9.334  16.417  0.00  0.00    +0.000 A 
ATOM     18  C   UNL     1      48.185   8.922  17.750  0.00  0.00    +0.000 A 
ATOM     19  C   UNL     1      48.644   7.647  18.094  0.00  0.00    +0.000 A 
ATOM     20  C   UNL     1      49.075   6.762  17.105  0.00  0.00    +0.000 A 
ATOM     21  C   UNL     1      49.047   7.184  15.764  0.00  0.00    +0.000 A 
BRANCH  20  22
ATOM     22  N   UNL     1      49.529   5.452  17.386  0.00  0.00    +0.000 N 
ATOM     23  H   UNL     1      50.071   5.121  16.588  0.00  0.00    +0.000 HD
BRANCH  22  24
ATOM     24  C   UNL     1      48.763   4.393  17.982  0.00  0.00    +0.000 C 
ATOM     25  C   UNL     1      48.773   3.091  17.146  0.00  0.00    +0.000 C 
ATOM     26  C   UNL     1      47.249   3.005  17.362  0.00  0.00    +0.000 C 
ATOM     27  C   UNL     1      47.259   4.521  17.622  0.00  0.00    +0.000 C 
ENDBRANCH  22  24
ENDBRANCH  20  22
ENDBRANCH  15  16
ENDBRANCH   1  15
TORSDOF 7
ENDMDL
