MODEL 1
REMARK VINA RESULT:    -8.180      0.000      0.000
REMARK INTER + INTRA:         -15.012
REMARK INTER:                 -13.441
REMARK INTRA:                  -1.571
REMARK UNBOUND:                -1.571
REMARK  Name = 
REMARK  12 active torsions:
REMARK  status: ('A' for Active; 'I' for Inactive)
REMARK    1  A    between atoms: N_1  and  C_2
REMARK    2  A    between atoms: C_2  and  C_3
REMARK    3  A    between atoms: C_2  and  C_23
REMARK    4  A    between atoms: C_3  and  N_4
REMARK    5  A    between atoms: C_8  and  C_9
REMARK    6  A    between atoms: C_9  and  N_10
REMARK    7  A    between atoms: N_10  and  C_11
REMARK    8  A    between atoms: N_10  and  C_14
REMARK    9  A    between atoms: C_11  and  C_12
REMARK   10  A    between atoms: C_12  and  O_13
REMARK   11  A    between atoms: C_14  and  C_15
REMARK   12  A    between atoms: C_23  and  C_25
REMARK                            x       y       z     vdW  Elec       q    Type
REMARK                         _______ _______ _______ _____ _____    ______ ____
ROOT
ATOM      1  N   UNL     1      47.752   4.790  16.145  0.00  0.00    +0.000 N 
ATOM      2  C   UNL     1      47.184   5.015  14.862  0.00  0.00    +0.000 A 
ATOM      3  C   UNL     1      47.670   6.051  14.070  0.00  0.00    +0.000 A 
ATOM      4  C   UNL     1      47.170   6.216  12.774  0.00  0.00    +0.000 A 
ATOM      5  C   UNL     1      46.234   5.312  12.274  0.00  0.00    +0.000 A 
ATOM      6  C   UNL     1      45.754   4.357  13.156  0.00  0.00    +0.000 A 
ATOM      7  N   UNL     1      46.199   4.208  14.420  0.00  0.00    +0.000 NA
ATOM      8  H   UNL     1      48.746   4.641  16.001  0.00  0.00    +0.000 HD
ENDROOT
BRANCH   1   9
ATOM      9  C   UNL     1      47.088   3.638  16.794  0.00  0.00    +0.000 C 
BRANCH   9  10
ATOM     10  C   UNL     1      48.014   2.792  17.696  0.00  0.00    +0.000 C 
BRANCH  10  11
ATOM     11  N   UNL     1      48.547   3.543  18.866  0.00  0.00    +0.000 NA
ATOM     12  H   UNL     1      47.873   4.262  19.118  0.00  0.00    +0.000 HD
ATOM     13  H   UNL     1      49.392   4.039  18.573  0.00  0.00    +0.000 HD
ENDBRANCH  10  11
BRANCH  10  14
ATOM     14  C   UNL     1      49.203   2.336  16.809  0.00  0.00    +0.000 C 
ATOM     15  O   UNL     1      49.004   2.068  15.625  0.00  0.00    +0.000 OA
BRANCH  14  16
ATOM     16  C   UNL     1      50.595   2.395  17.292  0.00  0.00    +0.000 A 
ATOM     17  C   UNL     1      51.237   1.227  17.687  0.00  0.00    +0.000 A 
ATOM     18  S   UNL     1      52.882   1.453  18.079  0.00  0.00    +0.000 S 
ATOM     19  C   UNL     1      52.773   3.123  17.779  0.00  0.00    +0.000 A 
ATOM     20  N   UNL     1      53.865   3.931  17.876  0.00  0.00    +0.000 NA
ATOM     21  C   UNL     1      53.631   5.170  17.613  0.00  0.00    +0.000 A 
ATOM     22  N   UNL     1      52.398   5.688  17.302  0.00  0.00    +0.000 N 
ATOM     23  C   UNL     1      51.251   4.936  17.370  0.00  0.00    +0.000 A 
ATOM     24  O   UNL     1      50.143   5.456  17.432  0.00  0.00    +0.000 OA
ATOM     25  C   UNL     1      51.482   3.510  17.467  0.00  0.00    +0.000 A 
ATOM     26  H   UNL     1      52.266   6.685  17.218  0.00  0.00    +0.000 HD
ENDBRANCH  14  16
ENDBRANCH  10  14
ENDBRANCH   9  10
ENDBRANCH   1   9
BRANCH   5  27
ATOM     27  C   UNL     1      45.789   5.316  10.834  0.00  0.00    +0.000 C 
BRANCH  27  28
ATOM     28  N   UNL     1      44.403   4.796  10.626  0.00  0.00    +0.000 NA
BRANCH  28  29
ATOM     29  C   UNL     1      43.393   5.787  11.093  0.00  0.00    +0.000 C 
BRANCH  29  30
ATOM     30  C   UNL     1      42.383   5.290  12.152  0.00  0.00    +0.000 C 
BRANCH  30  31
ATOM     31  O   UNL     1      42.746   5.675  13.473  0.00  0.00    +0.000 OA
ATOM     32  H   UNL     1      42.571   6.629  13.545  0.00  0.00    +0.000 HD
ENDBRANCH  30  31
ENDBRANCH  29  30
ENDBRANCH  28  29
BRANCH  28  33
ATOM     33  C   UNL     1      44.212   4.528   9.179  0.00  0.00    +0.000 C 
BRANCH  33  34
ATOM     34  C   UNL     1      45.219   3.581   8.559  0.00  0.00    +0.000 A 
ATOM     35  C   UNL     1      45.228   2.230   8.897  0.00  0.00    +0.000 A 
ATOM     36  C   UNL     1      46.137   1.386   8.269  0.00  0.00    +0.000 A 
ATOM     37  C   UNL     1      47.011   1.909   7.325  0.00  0.00    +0.000 A 
ATOM     38  C   UNL     1      46.948   3.266   7.054  0.00  0.00    +0.000 A 
ATOM     39  N   UNL     1      46.078   4.110   7.648  0.00  0.00    +0.000 NA
ENDBRANCH  33  34
ENDBRANCH  28  33
ENDBRANCH  27  28
ENDBRANCH   5  27
TORSDOF 12
ENDMDL
MODEL 2
REMARK VINA RESULT:    -8.004      1.407      2.583
REMARK INTER + INTRA:         -14.722
REMARK INTER:                 -13.177
REMARK INTRA:                  -1.544
REMARK UNBOUND:                -1.571
REMARK  Name = 
REMARK  12 active torsions:
REMARK  status: ('A' for Active; 'I' for Inactive)
REMARK    1  A    between atoms: N_1  and  C_2
REMARK    2  A    between atoms: C_2  and  C_3
REMARK    3  A    between atoms: C_2  and  C_23
REMARK    4  A    between atoms: C_3  and  N_4
REMARK    5  A    between atoms: C_8  and  C_9
REMARK    6  A    between atoms: C_9  and  N_10
REMARK    7  A    between atoms: N_10  and  C_11
REMARK    8  A    between atoms: N_10  and  C_14
REMARK    9  A    between atoms: C_11  and  C_12
REMARK   10  A    between atoms: C_12  and  O_13
REMARK   11  A    between atoms: C_14  and  C_15
REMARK   12  A    between atoms: C_23  and  C_25
REMARK                            x       y       z     vdW  Elec       q    Type
REMARK                         _______ _______ _______ _____ _____    ______ ____
ROOT
ATOM      1  N   UNL     1      48.115   5.549  16.039  0.00  0.00    +0.000 N 
ATOM      2  C   UNL     1      47.482   5.505  14.767  0.00  0.00    +0.000 A 
ATOM      3  C   UNL     1      46.881   4.325  14.341  0.00  0.00    +0.000 A 
ATOM      4  C   UNL     1      46.184   4.310  13.128  0.00  0.00    +0.000 A 
ATOM      5  C   UNL     1      46.057   5.485  12.389  0.00  0.00    +0.000 A 
ATOM      6  C   UNL     1      46.749   6.592  12.852  0.00  0.00    +0.000 A 
ATOM      7  N   UNL     1      47.454   6.614  14.001  0.00  0.00    +0.000 NA
ATOM      8  H   UNL     1      47.411   5.287  16.723  0.00  0.00    +0.000 HD
ENDROOT
BRANCH   1   9
ATOM      9  C   UNL     1      48.670   6.900  16.279  0.00  0.00    +0.000 C 
BRANCH   9  10
ATOM     10  C   UNL     1      50.168   6.916  16.657  0.00  0.00    +0.000 C 
BRANCH  10  11
ATOM     11  N   UNL     1      51.065   6.506  15.541  0.00  0.00    +0.000 NA
ATOM     12  H   UNL     1      50.505   6.425  14.695  0.00  0.00    +0.000 HD
ATOM     13  H   UNL     1      51.415   5.566  15.739  0.00  0.00    +0.000 HD
ENDBRANCH  10  11
BRANCH  10  14
ATOM     14  C   UNL     1      50.340   5.918  17.832  0.00  0.00    +0.000 C 
ATOM     15  O   UNL     1      49.438   5.798  18.659  0.00  0.00    +0.000 OA
BRANCH  14  16
ATOM     16  C   UNL     1      51.471   4.973  17.883  0.00  0.00    +0.000 A 
ATOM     17  C   UNL     1      52.752   5.444  18.144  0.00  0.00    +0.000 A 
ATOM     18  S   UNL     1      53.913   4.206  18.312  0.00  0.00    +0.000 S 
ATOM     19  C   UNL     1      52.750   3.007  17.993  0.00  0.00    +0.000 A 
ATOM     20  N   UNL     1      53.071   1.684  18.033  0.00  0.00    +0.000 NA
ATOM     21  C   UNL     1      52.085   0.894  17.778  0.00  0.00    +0.000 A 
ATOM     22  N   UNL     1      50.817   1.302  17.444  0.00  0.00    +0.000 N 
ATOM     23  C   UNL     1      50.508   2.621  17.222  0.00  0.00    +0.000 A 
ATOM     24  O   UNL     1      49.502   2.952  16.605  0.00  0.00    +0.000 OA
ATOM     25  C   UNL     1      51.517   3.552  17.683  0.00  0.00    +0.000 A 
ATOM     26  H   UNL     1      50.124   0.631  17.147  0.00  0.00    +0.000 HD
ENDBRANCH  14  16
ENDBRANCH  10  14
ENDBRANCH   9  10
ENDBRANCH   1   9
BRANCH   5  27
ATOM     27  C   UNL     1      45.171   5.587  11.173  0.00  0.00    +0.000 C 
BRANCH  27  28
ATOM     28  N   UNL     1      44.561   4.288  10.757  0.00  0.00    +0.000 NA
BRANCH  28  29
ATOM     29  C   UNL     1      43.233   4.097  11.405  0.00  0.00    +0.000 C 
BRANCH  29  30
ATOM     30  C   UNL     1      42.538   5.373  11.932  0.00  0.00    +0.000 C 
BRANCH  30  31
ATOM     31  O   UNL     1      42.533   5.443  13.353  0.00  0.00    +0.000 OA
ATOM     32  H   UNL     1      42.826   4.574  13.678  0.00  0.00    +0.000 HD
ENDBRANCH  30  31
ENDBRANCH  29  30
ENDBRANCH  28  29
BRANCH  28  33
ATOM     33  C   UNL     1      44.403   4.292   9.282  0.00  0.00    +0.000 C 
BRANCH  33  34
ATOM     34  C   UNL     1      45.406   3.449   8.521  0.00  0.00    +0.000 A 
ATOM     35  C   UNL     1      45.532   2.085   8.782  0.00  0.00    +0.000 A 
ATOM     36  C   UNL     1      46.430   1.338   8.028  0.00  0.00    +0.000 A 
ATOM     37  C   UNL     1      47.178   1.966   7.041  0.00  0.00    +0.000 A 
ATOM     38  C   UNL     1      47.005   3.327   6.853  0.00  0.00    +0.000 A 
ATOM     39  N   UNL     1      46.142   4.080   7.569  0.00  0.00    +0.000 NA
ENDBRANCH  33  34
ENDBRANCH  28  33
ENDBRANCH  27  28
ENDBRANCH   5  27
TORSDOF 12
ENDMDL
MODEL 3
REMARK VINA RESULT:    -7.740      2.594      3.005
REMARK INTER + INTRA:         -14.288
REMARK INTER:                 -12.473
REMARK INTRA:                  -1.815
REMARK UNBOUND:                -1.571
REMARK  Name = 
REMARK  12 active torsions:
REMARK  status: ('A' for Active; 'I' for Inactive)
REMARK    1  A    between atoms: N_1  and  C_2
REMARK    2  A    between atoms: C_2  and  C_3
REMARK    3  A    between atoms: C_2  and  C_23
REMARK    4  A    between atoms: C_3  and  N_4
REMARK    5  A    between atoms: C_8  and  C_9
REMARK    6  A    between atoms: C_9  and  N_10
REMARK    7  A    between atoms: N_10  and  C_11
REMARK    8  A    between atoms: N_10  and  C_14
REMARK    9  A    between atoms: C_11  and  C_12
REMARK   10  A    between atoms: C_12  and  O_13
REMARK   11  A    between atoms: C_14  and  C_15
REMARK   12  A    between atoms: C_23  and  C_25
REMARK                            x       y       z     vdW  Elec       q    Type
REMARK                         _______ _______ _______ _____ _____    ______ ____
ROOT
ATOM      1  N   UNL     1      47.935   5.281  15.832  0.00  0.00    +0.000 N 
ATOM      2  C   UNL     1      47.278   5.393  14.576  0.00  0.00    +0.000 A 
ATOM      3  C   UNL     1      47.467   6.534  13.803  0.00  0.00    +0.000 A 
ATOM      4  C   UNL     1      46.890   6.603  12.530  0.00  0.00    +0.000 A 
ATOM      5  C   UNL     1      46.181   5.512  12.033  0.00  0.00    +0.000 A 
ATOM      6  C   UNL     1      45.982   4.448  12.899  0.00  0.00    +0.000 A 
ATOM      7  N   UNL     1      46.501   4.381  14.141  0.00  0.00    +0.000 NA
ATOM      8  H   UNL     1      48.929   5.381  15.650  0.00  0.00    +0.000 HD
ENDROOT
BRANCH   1   9
ATOM      9  C   UNL     1      47.595   3.987  16.464  0.00  0.00    +0.000 C 
BRANCH   9  10
ATOM     10  C   UNL     1      47.452   4.046  18.001  0.00  0.00    +0.000 C 
BRANCH  10  11
ATOM     11  N   UNL     1      46.516   5.106  18.468  0.00  0.00    +0.000 NA
ATOM     12  H   UNL     1      46.930   5.563  19.277  0.00  0.00    +0.000 HD
ATOM     13  H   UNL     1      45.662   4.654  18.806  0.00  0.00    +0.000 HD
ENDBRANCH  10  11
BRANCH  10  14
ATOM     14  C   UNL     1      48.866   4.340  18.568  0.00  0.00    +0.000 C 
ATOM     15  O   UNL     1      49.856   3.944  17.955  0.00  0.00    +0.000 OA
BRANCH  14  16
ATOM     16  C   UNL     1      49.065   5.240  19.719  0.00  0.00    +0.000 A 
ATOM     17  C   UNL     1      49.115   4.715  21.005  0.00  0.00    +0.000 A 
ATOM     18  S   UNL     1      49.495   5.871  22.199  0.00  0.00    +0.000 S 
ATOM     19  C   UNL     1      49.558   7.116  21.043  0.00  0.00    +0.000 A 
ATOM     20  N   UNL     1      49.894   8.388  21.392  0.00  0.00    +0.000 NA
ATOM     21  C   UNL     1      49.906   9.220  20.407  0.00  0.00    +0.000 A 
ATOM     22  N   UNL     1      49.573   8.910  19.112  0.00  0.00    +0.000 N 
ATOM     23  C   UNL     1      49.060   7.686  18.763  0.00  0.00    +0.000 A 
ATOM     24  O   UNL     1      48.454   7.518  17.710  0.00  0.00    +0.000 OA
ATOM     25  C   UNL     1      49.211   6.667  19.781  0.00  0.00    +0.000 A 
ATOM     26  H   UNL     1      49.496   9.636  18.414  0.00  0.00    +0.000 HD
ENDBRANCH  14  16
ENDBRANCH  10  14
ENDBRANCH   9  10
ENDBRANCH   1   9
BRANCH   5  27
ATOM     27  C   UNL     1      45.690   5.442  10.609  0.00  0.00    +0.000 C 
BRANCH  27  28
ATOM     28  N   UNL     1      44.389   4.724  10.451  0.00  0.00    +0.000 NA
BRANCH  28  29
ATOM     29  C   UNL     1      43.260   5.566  10.937  0.00  0.00    +0.000 C 
BRANCH  29  30
ATOM     30  C   UNL     1      42.501   5.046  12.178  0.00  0.00    +0.000 C 
BRANCH  30  31
ATOM     31  O   UNL     1      42.810   5.785  13.354  0.00  0.00    +0.000 OA
ATOM     32  H   UNL     1      41.973   5.913  13.834  0.00  0.00    +0.000 HD
ENDBRANCH  30  31
ENDBRANCH  29  30
ENDBRANCH  28  29
BRANCH  28  33
ATOM     33  C   UNL     1      44.196   4.408   9.014  0.00  0.00    +0.000 C 
BRANCH  33  34
ATOM     34  C   UNL     1      45.259   3.518   8.400  0.00  0.00    +0.000 A 
ATOM     35  C   UNL     1      45.374   2.182   8.779  0.00  0.00    +0.000 A 
ATOM     36  C   UNL     1      46.330   1.388   8.156  0.00  0.00    +0.000 A 
ATOM     37  C   UNL     1      47.145   1.944   7.178  0.00  0.00    +0.000 A 
ATOM     38  C   UNL     1      46.977   3.283   6.868  0.00  0.00    +0.000 A 
ATOM     39  N   UNL     1      46.058   4.080   7.455  0.00  0.00    +0.000 NA
ENDBRANCH  33  34
ENDBRANCH  28  33
ENDBRANCH  27  28
ENDBRANCH   5  27
TORSDOF 12
ENDMDL
MODEL 4
REMARK VINA RESULT:    -7.665      2.592      3.651
REMARK INTER + INTRA:         -14.166
REMARK INTER:                 -12.507
REMARK INTRA:                  -1.658
REMARK UNBOUND:                -1.571
REMARK  Name = 
REMARK  12 active torsions:
REMARK  status: ('A' for Active; 'I' for Inactive)
REMARK    1  A    between atoms: N_1  and  C_2
REMARK    2  A    between atoms: C_2  and  C_3
REMARK    3  A    between atoms: C_2  and  C_23
REMARK    4  A    between atoms: C_3  and  N_4
REMARK    5  A    between atoms: C_8  and  C_9
REMARK    6  A    between atoms: C_9  and  N_10
REMARK    7  A    between atoms: N_10  and  C_11
REMARK    8  A    between atoms: N_10  and  C_14
REMARK    9  A    between atoms: C_11  and  C_12
REMARK   10  A    between atoms: C_12  and  O_13
REMARK   11  A    between atoms: C_14  and  C_15
REMARK   12  A    between atoms: C_23  and  C_25
REMARK                            x       y       z     vdW  Elec       q    Type
REMARK                         _______ _______ _______ _____ _____    ______ ____
ROOT
ATOM      1  N   UNL     1      48.273   6.028  15.662  0.00  0.00    +0.000 N 
ATOM      2  C   UNL     1      47.558   5.876  14.443  0.00  0.00    +0.000 A 
ATOM      3  C   UNL     1      46.902   4.678  14.177  0.00  0.00    +0.000 A 
ATOM      4  C   UNL     1      46.128   4.563  13.018  0.00  0.00    +0.000 A 
ATOM      5  C   UNL     1      45.980   5.662  12.174  0.00  0.00    +0.000 A 
ATOM      6  C   UNL     1      46.726   6.789  12.478  0.00  0.00    +0.000 A 
ATOM      7  N   UNL     1      47.506   6.904  13.572  0.00  0.00    +0.000 NA
ATOM      8  H   UNL     1      47.610   5.855  16.412  0.00  0.00    +0.000 HD
ENDROOT
BRANCH   1   9
ATOM      9  C   UNL     1      48.874   7.378  15.728  0.00  0.00    +0.000 C 
BRANCH   9  10
ATOM     10  C   UNL     1      50.345   7.400  16.201  0.00  0.00    +0.000 C 
BRANCH  10  11
ATOM     11  N   UNL     1      51.327   7.268  15.089  0.00  0.00    +0.000 NA
ATOM     12  H   UNL     1      51.393   6.284  14.837  0.00  0.00    +0.000 HD
ATOM     13  H   UNL     1      52.249   7.532  15.442  0.00  0.00    +0.000 HD
ENDBRANCH  10  11
BRANCH  10  14
ATOM     14  C   UNL     1      50.519   6.199  17.168  0.00  0.00    +0.000 C 
ATOM     15  O   UNL     1      50.960   5.136  16.736  0.00  0.00    +0.000 OA
BRANCH  14  16
ATOM     16  C   UNL     1      50.350   6.349  18.625  0.00  0.00    +0.000 A 
ATOM     17  C   UNL     1      51.413   6.799  19.400  0.00  0.00    +0.000 A 
ATOM     18  S   UNL     1      51.005   7.054  21.036  0.00  0.00    +0.000 S 
ATOM     19  C   UNL     1      49.410   6.527  20.770  0.00  0.00    +0.000 A 
ATOM     20  N   UNL     1      48.485   6.542  21.769  0.00  0.00    +0.000 NA
ATOM     21  C   UNL     1      47.319   6.121  21.416  0.00  0.00    +0.000 A 
ATOM     22  N   UNL     1      47.000   5.646  20.168  0.00  0.00    +0.000 N 
ATOM     23  C   UNL     1      47.949   5.451  19.195  0.00  0.00    +0.000 A 
ATOM     24  O   UNL     1      47.741   4.726  18.229  0.00  0.00    +0.000 OA
ATOM     25  C   UNL     1      49.220   6.086  19.472  0.00  0.00    +0.000 A 
ATOM     26  H   UNL     1      46.098   5.227  19.994  0.00  0.00    +0.000 HD
ENDBRANCH  14  16
ENDBRANCH  10  14
ENDBRANCH   9  10
ENDBRANCH   1   9
BRANCH   5  27
ATOM     27  C   UNL     1      45.019   5.670  11.011  0.00  0.00    +0.000 C 
BRANCH  27  28
ATOM     28  N   UNL     1      44.460   4.324  10.680  0.00  0.00    +0.000 NA
BRANCH  28  29
ATOM     29  C   UNL     1      43.149   4.117  11.358  0.00  0.00    +0.000 C 
BRANCH  29  30
ATOM     30  C   UNL     1      42.481   5.374  11.958  0.00  0.00    +0.000 C 
BRANCH  30  31
ATOM     31  O   UNL     1      42.551   5.403  13.379  0.00  0.00    +0.000 OA
ATOM     32  H   UNL     1      43.362   4.928  13.629  0.00  0.00    +0.000 HD
ENDBRANCH  30  31
ENDBRANCH  29  30
ENDBRANCH  28  29
BRANCH  28  33
ATOM     33  C   UNL     1      44.283   4.237   9.209  0.00  0.00    +0.000 C 
BRANCH  33  34
ATOM     34  C   UNL     1      45.319   3.404   8.482  0.00  0.00    +0.000 A 
ATOM     35  C   UNL     1      45.481   2.052   8.778  0.00  0.00    +0.000 A 
ATOM     36  C   UNL     1      46.410   1.313   8.054  0.00  0.00    +0.000 A 
ATOM     37  C   UNL     1      47.151   1.938   7.059  0.00  0.00    +0.000 A 
ATOM     38  C   UNL     1      46.941   3.288   6.835  0.00  0.00    +0.000 A 
ATOM     39  N   UNL     1      46.047   4.033   7.522  0.00  0.00    +0.000 NA
ENDBRANCH  33  34
ENDBRANCH  28  33
ENDBRANCH  27  28
ENDBRANCH   5  27
TORSDOF 12
ENDMDL
MODEL 5
REMARK VINA RESULT:    -7.421      2.011      2.887
REMARK INTER + INTRA:         -13.765
REMARK INTER:                 -12.624
REMARK INTRA:                  -1.142
REMARK UNBOUND:                -1.571
REMARK  Name = 
REMARK  12 active torsions:
REMARK  status: ('A' for Active; 'I' for Inactive)
REMARK    1  A    between atoms: N_1  and  C_2
REMARK    2  A    between atoms: C_2  and  C_3
REMARK    3  A    between atoms: C_2  and  C_23
REMARK    4  A    between atoms: C_3  and  N_4
REMARK    5  A    between atoms: C_8  and  C_9
REMARK    6  A    between atoms: C_9  and  N_10
REMARK    7  A    between atoms: N_10  and  C_11
REMARK    8  A    between atoms: N_10  and  C_14
REMARK    9  A    between atoms: C_11  and  C_12
REMARK   10  A    between atoms: C_12  and  O_13
REMARK   11  A    between atoms: C_14  and  C_15
REMARK   12  A    between atoms: C_23  and  C_25
REMARK                            x       y       z     vdW  Elec       q    Type
REMARK                         _______ _______ _______ _____ _____    ______ ____
ROOT
ATOM      1  N   UNL     1      48.121   8.176  14.987  0.00  0.00    +0.000 N 
ATOM      2  C   UNL     1      47.424   7.569  13.907  0.00  0.00    +0.000 A 
ATOM      3  C   UNL     1      46.568   8.338  13.125  0.00  0.00    +0.000 A 
ATOM      4  C   UNL     1      45.951   7.759  12.011  0.00  0.00    +0.000 A 
ATOM      5  C   UNL     1      46.242   6.440  11.668  0.00  0.00    +0.000 A 
ATOM      6  C   UNL     1      47.048   5.729  12.542  0.00  0.00    +0.000 A 
ATOM      7  N   UNL     1      47.621   6.262  13.640  0.00  0.00    +0.000 NA
ATOM      8  H   UNL     1      48.655   8.945  14.593  0.00  0.00    +0.000 HD
ENDROOT
BRANCH   1   9
ATOM      9  C   UNL     1      48.975   7.173  15.662  0.00  0.00    +0.000 C 
BRANCH   9  10
ATOM     10  C   UNL     1      49.167   7.413  17.175  0.00  0.00    +0.000 C 
BRANCH  10  11
ATOM     11  N   UNL     1      50.595   7.412  17.599  0.00  0.00    +0.000 NA
ATOM     12  H   UNL     1      51.097   6.738  17.025  0.00  0.00    +0.000 HD
ATOM     13  H   UNL     1      50.645   7.059  18.557  0.00  0.00    +0.000 HD
ENDBRANCH  10  11
BRANCH  10  14
ATOM     14  C   UNL     1      48.426   6.263  17.906  0.00  0.00    +0.000 C 
ATOM     15  O   UNL     1      47.580   6.535  18.757  0.00  0.00    +0.000 OA
BRANCH  14  16
ATOM     16  C   UNL     1      48.567   4.858  17.479  0.00  0.00    +0.000 A 
ATOM     17  C   UNL     1      47.532   4.240  16.788  0.00  0.00    +0.000 A 
ATOM     18  S   UNL     1      47.916   2.670  16.245  0.00  0.00    +0.000 S 
ATOM     19  C   UNL     1      49.459   2.750  16.957  0.00  0.00    +0.000 A 
ATOM     20  N   UNL     1      50.352   1.731  16.823  0.00  0.00    +0.000 NA
ATOM     21  C   UNL     1      51.480   1.937  17.411  0.00  0.00    +0.000 A 
ATOM     22  N   UNL     1      51.786   3.049  18.156  0.00  0.00    +0.000 N 
ATOM     23  C   UNL     1      50.851   4.007  18.457  0.00  0.00    +0.000 A 
ATOM     24  O   UNL     1      51.014   4.799  19.378  0.00  0.00    +0.000 OA
ATOM     25  C   UNL     1      49.641   3.923  17.667  0.00  0.00    +0.000 A 
ATOM     26  H   UNL     1      52.648   3.093  18.681  0.00  0.00    +0.000 HD
ENDBRANCH  14  16
ENDBRANCH  10  14
ENDBRANCH   9  10
ENDBRANCH   1   9
BRANCH   5  27
ATOM     27  C   UNL     1      45.762   5.810  10.384  0.00  0.00    +0.000 C 
BRANCH  27  28
ATOM     28  N   UNL     1      44.617   4.866  10.565  0.00  0.00    +0.000 NA
BRANCH  28  29
ATOM     29  C   UNL     1      43.460   5.556  11.202  0.00  0.00    +0.000 C 
BRANCH  29  30
ATOM     30  C   UNL     1      42.805   4.832  12.399  0.00  0.00    +0.000 C 
BRANCH  30  31
ATOM     31  O   UNL     1      42.799   5.627  13.580  0.00  0.00    +0.000 OA
ATOM     32  H   UNL     1      41.908   6.012  13.654  0.00  0.00    +0.000 HD
ENDBRANCH  30  31
ENDBRANCH  29  30
ENDBRANCH  28  29
BRANCH  28  33
ATOM     33  C   UNL     1      44.220   4.348   9.232  0.00  0.00    +0.000 C 
BRANCH  33  34
ATOM     34  C   UNL     1      45.265   3.507   8.528  0.00  0.00    +0.000 A 
ATOM     35  C   UNL     1      45.380   2.144   8.793  0.00  0.00    +0.000 A 
ATOM     36  C   UNL     1      46.320   1.399   8.089  0.00  0.00    +0.000 A 
ATOM     37  C   UNL     1      47.120   2.031   7.145  0.00  0.00    +0.000 A 
ATOM     38  C   UNL     1      46.954   3.392   6.950  0.00  0.00    +0.000 A 
ATOM     39  N   UNL     1      46.050   4.141   7.618  0.00  0.00    +0.000 NA
ENDBRANCH  33  34
ENDBRANCH  28  33
ENDBRANCH  27  28
ENDBRANCH   5  27
TORSDOF 12
ENDMDL
MODEL 6
REMARK VINA RESULT:    -7.374      2.519      3.954
REMARK INTER + INTRA:         -13.687
REMARK INTER:                 -11.882
REMARK INTRA:                  -1.805
REMARK UNBOUND:                -1.571
REMARK  Name = 
REMARK  12 active torsions:
REMARK  status: ('A' for Active; 'I' for Inactive)
REMARK    1  A    between atoms: N_1  and  C_2
REMARK    2  A    between atoms: C_2  and  C_3
REMARK    3  A    between atoms: C_2  and  C_23
REMARK    4  A    between atoms: C_3  and  N_4
REMARK    5  A    between atoms: C_8  and  C_9
REMARK    6  A    between atoms: C_9  and  N_10
REMARK    7  A    between atoms: N_10  and  C_11
REMARK    8  A    between atoms: N_10  and  C_14
REMARK    9  A    between atoms: C_11  and  C_12
REMARK   10  A    between atoms: C_12  and  O_13
REMARK   11  A    between atoms: C_14  and  C_15
REMARK   12  A    between atoms: C_23  and  C_25
REMARK                            x       y       z     vdW  Elec       q    Type
REMARK                         _______ _______ _______ _____ _____    ______ ____
ROOT
ATOM      1  N   UNL     1      49.809   8.423  13.470  0.00  0.00    +0.000 N 
ATOM      2  C   UNL     1      48.589   7.969  12.899  0.00  0.00    +0.000 A 
ATOM      3  C   UNL     1      48.593   7.426  11.618  0.00  0.00    +0.000 A 
ATOM      4  C   UNL     1      47.407   6.900  11.093  0.00  0.00    +0.000 A 
ATOM      5  C   UNL     1      46.254   6.879  11.876  0.00  0.00    +0.000 A 
ATOM      6  C   UNL     1      46.325   7.507  13.109  0.00  0.00    +0.000 A 
ATOM      7  N   UNL     1      47.450   8.050  13.615  0.00  0.00    +0.000 NA
ATOM      8  H   UNL     1      50.446   7.632  13.462  0.00  0.00    +0.000 HD
ENDROOT
BRANCH   1   9
ATOM      9  C   UNL     1      49.563   8.947  14.832  0.00  0.00    +0.000 C 
BRANCH   9  10
ATOM     10  C   UNL     1      50.239   8.135  15.959  0.00  0.00    +0.000 C 
BRANCH  10  11
ATOM     11  N   UNL     1      50.854   6.864  15.487  0.00  0.00    +0.000 NA
ATOM     12  H   UNL     1      50.710   6.794  14.482  0.00  0.00    +0.000 HD
ATOM     13  H   UNL     1      50.338   6.084  15.901  0.00  0.00    +0.000 HD
ENDBRANCH  10  11
BRANCH  10  14
ATOM     14  C   UNL     1      49.131   7.802  16.994  0.00  0.00    +0.000 C 
ATOM     15  O   UNL     1      48.141   8.529  17.071  0.00  0.00    +0.000 OA
BRANCH  14  16
ATOM     16  C   UNL     1      49.138   6.539  17.754  0.00  0.00    +0.000 A 
ATOM     17  C   UNL     1      49.805   6.471  18.971  0.00  0.00    +0.000 A 
ATOM     18  S   UNL     1      49.591   4.987  19.783  0.00  0.00    +0.000 S 
ATOM     19  C   UNL     1      48.642   4.373  18.513  0.00  0.00    +0.000 A 
ATOM     20  N   UNL     1      48.076   3.137  18.587  0.00  0.00    +0.000 NA
ATOM     21  C   UNL     1      47.379   2.812  17.553  0.00  0.00    +0.000 A 
ATOM     22  N   UNL     1      47.228   3.590  16.432  0.00  0.00    +0.000 N 
ATOM     23  C   UNL     1      47.927   4.758  16.252  0.00  0.00    +0.000 A 
ATOM     24  O   UNL     1      48.060   5.265  15.144  0.00  0.00    +0.000 OA
ATOM     25  C   UNL     1      48.562   5.258  17.453  0.00  0.00    +0.000 A 
ATOM     26  H   UNL     1      46.761   3.225  15.614  0.00  0.00    +0.000 HD
ENDBRANCH  14  16
ENDBRANCH  10  14
ENDBRANCH   9  10
ENDBRANCH   1   9
BRANCH   5  27
ATOM     27  C   UNL     1      44.996   6.168  11.449  0.00  0.00    +0.000 C 
BRANCH  27  28
ATOM     28  N   UNL     1      45.196   4.721  11.130  0.00  0.00    +0.000 NA
BRANCH  28  29
ATOM     29  C   UNL     1      44.600   3.860  12.190  0.00  0.00    +0.000 C 
BRANCH  29  30
ATOM     30  C   UNL     1      43.217   3.247  11.878  0.00  0.00    +0.000 C 
BRANCH  30  31
ATOM     31  O   UNL     1      43.239   1.824  11.887  0.00  0.00    +0.000 OA
ATOM     32  H   UNL     1      43.963   1.558  12.479  0.00  0.00    +0.000 HD
ENDBRANCH  30  31
ENDBRANCH  29  30
ENDBRANCH  28  29
BRANCH  28  33
ATOM     33  C   UNL     1      44.550   4.431   9.826  0.00  0.00    +0.000 C 
BRANCH  33  34
ATOM     34  C   UNL     1      45.376   3.598   8.867  0.00  0.00    +0.000 A 
ATOM     35  C   UNL     1      45.465   2.216   9.020  0.00  0.00    +0.000 A 
ATOM     36  C   UNL     1      46.193   1.483   8.089  0.00  0.00    +0.000 A 
ATOM     37  C   UNL     1      46.814   2.144   7.037  0.00  0.00    +0.000 A 
ATOM     38  C   UNL     1      46.688   3.522   6.962  0.00  0.00    +0.000 A 
ATOM     39  N   UNL     1      45.989   4.260   7.851  0.00  0.00    +0.000 NA
ENDBRANCH  33  34
ENDBRANCH  28  33
ENDBRANCH  27  28
ENDBRANCH   5  27
TORSDOF 12
ENDMDL
MODEL 7
REMARK VINA RESULT:    -6.805      3.444      4.515
REMARK INTER + INTRA:         -12.752
REMARK INTER:                 -11.770
REMARK INTRA:                  -0.983
REMARK UNBOUND:                -1.571
REMARK  Name = 
REMARK  12 active torsions:
REMARK  status: ('A' for Active; 'I' for Inactive)
REMARK    1  A    between atoms: N_1  and  C_2
REMARK    2  A    between atoms: C_2  and  C_3
REMARK    3  A    between atoms: C_2  and  C_23
REMARK    4  A    between atoms: C_3  and  N_4
REMARK    5  A    between atoms: C_8  and  C_9
REMARK    6  A    between atoms: C_9  and  N_10
REMARK    7  A    between atoms: N_10  and  C_11
REMARK    8  A    between atoms: N_10  and  C_14
REMARK    9  A    between atoms: C_11  and  C_12
REMARK   10  A    between atoms: C_12  and  O_13
REMARK   11  A    between atoms: C_14  and  C_15
REMARK   12  A    between atoms: C_23  and  C_25
REMARK                            x       y       z     vdW  Elec       q    Type
REMARK                         _______ _______ _______ _____ _____    ______ ____
ROOT
ATOM      1  N   UNL     1      48.028   5.102  16.057  0.00  0.00    +0.000 N 
ATOM      2  C   UNL     1      47.414   5.121  14.775  0.00  0.00    +0.000 A 
ATOM      3  C   UNL     1      46.799   3.970  14.292  0.00  0.00    +0.000 A 
ATOM      4  C   UNL     1      46.120   4.016  13.070  0.00  0.00    +0.000 A 
ATOM      5  C   UNL     1      46.023   5.223  12.379  0.00  0.00    +0.000 A 
ATOM      6  C   UNL     1      46.726   6.298  12.897  0.00  0.00    +0.000 A 
ATOM      7  N   UNL     1      47.415   6.261  14.056  0.00  0.00    +0.000 NA
ATOM      8  H   UNL     1      47.311   4.822  16.719  0.00  0.00    +0.000 HD
ENDROOT
BRANCH   1   9
ATOM      9  C   UNL     1      48.602   6.431  16.360  0.00  0.00    +0.000 C 
BRANCH   9  10
ATOM     10  C   UNL     1      50.128   6.429  16.597  0.00  0.00    +0.000 C 
BRANCH  10  11
ATOM     11  N   UNL     1      50.667   5.093  16.974  0.00  0.00    +0.000 NA
ATOM     12  H   UNL     1      50.152   4.759  17.786  0.00  0.00    +0.000 HD
ATOM     13  H   UNL     1      51.635   5.212  17.283  0.00  0.00    +0.000 HD
ENDBRANCH  10  11
BRANCH  10  14
ATOM     14  C   UNL     1      50.399   7.424  17.757  0.00  0.00    +0.000 C 
ATOM     15  O   UNL     1      51.515   7.930  17.868  0.00  0.00    +0.000 OA
BRANCH  14  16
ATOM     16  C   UNL     1      49.311   7.926  18.615  0.00  0.00    +0.000 A 
ATOM     17  C   UNL     1      48.936   7.208  19.744  0.00  0.00    +0.000 A 
ATOM     18  S   UNL     1      47.766   8.000  20.699  0.00  0.00    +0.000 S 
ATOM     19  C   UNL     1      47.689   9.303  19.610  0.00  0.00    +0.000 A 
ATOM     20  N   UNL     1      46.899  10.384  19.856  0.00  0.00    +0.000 NA
ATOM     21  C   UNL     1      46.951  11.295  18.945  0.00  0.00    +0.000 A 
ATOM     22  N   UNL     1      47.685  11.208  17.789  0.00  0.00    +0.000 N 
ATOM     23  C   UNL     1      48.348  10.062  17.428  0.00  0.00    +0.000 A 
ATOM     24  O   UNL     1      48.707   9.861  16.273  0.00  0.00    +0.000 OA
ATOM     25  C   UNL     1      48.483   9.094  18.496  0.00  0.00    +0.000 A 
ATOM     26  H   UNL     1      47.591  11.908  17.067  0.00  0.00    +0.000 HD
ENDBRANCH  14  16
ENDBRANCH  10  14
ENDBRANCH   9  10
ENDBRANCH   1   9
BRANCH   5  27
ATOM     27  C   UNL     1      45.157   5.391  11.156  0.00  0.00    +0.000 C 
BRANCH  27  28
ATOM     28  N   UNL     1      44.447   4.143  10.741  0.00  0.00    +0.000 NA
BRANCH  28  29
ATOM     29  C   UNL     1      43.112   4.052  11.397  0.00  0.00    +0.000 C 
BRANCH  29  30
ATOM     30  C   UNL     1      42.532   5.371  11.955  0.00  0.00    +0.000 C 
BRANCH  30  31
ATOM     31  O   UNL     1      42.553   5.417  13.377  0.00  0.00    +0.000 OA
ATOM     32  H   UNL     1      42.218   4.559  13.690  0.00  0.00    +0.000 HD
ENDBRANCH  30  31
ENDBRANCH  29  30
ENDBRANCH  28  29
BRANCH  28  33
ATOM     33  C   UNL     1      44.282   4.163   9.267  0.00  0.00    +0.000 C 
BRANCH  33  34
ATOM     34  C   UNL     1      45.305   3.358   8.491  0.00  0.00    +0.000 A 
ATOM     35  C   UNL     1      45.511   2.009   8.771  0.00  0.00    +0.000 A 
ATOM     36  C   UNL     1      46.425   1.296   8.003  0.00  0.00    +0.000 A 
ATOM     37  C   UNL     1      47.108   1.943   6.982  0.00  0.00    +0.000 A 
ATOM     38  C   UNL     1      46.856   3.289   6.775  0.00  0.00    +0.000 A 
ATOM     39  N   UNL     1      45.976   4.009   7.504  0.00  0.00    +0.000 NA
ENDBRANCH  33  34
ENDBRANCH  28  33
ENDBRANCH  27  28
ENDBRANCH   5  27
TORSDOF 12
ENDMDL
MODEL 8
REMARK VINA RESULT:    -6.748      2.443      3.416
REMARK INTER + INTRA:         -12.659
REMARK INTER:                 -11.454
REMARK INTRA:                  -1.205
REMARK UNBOUND:                -1.571
REMARK  Name = 
REMARK  12 active torsions:
REMARK  status: ('A' for Active; 'I' for Inactive)
REMARK    1  A    between atoms: N_1  and  C_2
REMARK    2  A    between atoms: C_2  and  C_3
REMARK    3  A    between atoms: C_2  and  C_23
REMARK    4  A    between atoms: C_3  and  N_4
REMARK    5  A    between atoms: C_8  and  C_9
REMARK    6  A    between atoms: C_9  and  N_10
REMARK    7  A    between atoms: N_10  and  C_11
REMARK    8  A    between atoms: N_10  and  C_14
REMARK    9  A    between atoms: C_11  and  C_12
REMARK   10  A    between atoms: C_12  and  O_13
REMARK   11  A    between atoms: C_14  and  C_15
REMARK   12  A    between atoms: C_23  and  C_25
REMARK                            x       y       z     vdW  Elec       q    Type
REMARK                         _______ _______ _______ _____ _____    ______ ____
ROOT
ATOM      1  N   UNL     1      48.440   6.186  15.541  0.00  0.00    +0.000 N 
ATOM      2  C   UNL     1      47.683   5.996  14.353  0.00  0.00    +0.000 A 
ATOM      3  C   UNL     1      46.921   4.841  14.202  0.00  0.00    +0.000 A 
ATOM      4  C   UNL     1      46.109   4.698  13.072  0.00  0.00    +0.000 A 
ATOM      5  C   UNL     1      46.033   5.732  12.141  0.00  0.00    +0.000 A 
ATOM      6  C   UNL     1      46.880   6.812  12.334  0.00  0.00    +0.000 A 
ATOM      7  N   UNL     1      47.694   6.949  13.399  0.00  0.00    +0.000 NA
ATOM      8  H   UNL     1      47.784   6.134  16.315  0.00  0.00    +0.000 HD
ENDROOT
BRANCH   1   9
ATOM      9  C   UNL     1      49.155   7.480  15.481  0.00  0.00    +0.000 C 
BRANCH   9  10
ATOM     10  C   UNL     1      48.631   8.544  16.470  0.00  0.00    +0.000 C 
BRANCH  10  11
ATOM     11  N   UNL     1      49.365   9.838  16.392  0.00  0.00    +0.000 NA
ATOM     12  H   UNL     1      48.688  10.580  16.230  0.00  0.00    +0.000 HD
ATOM     13  H   UNL     1      49.964   9.817  15.563  0.00  0.00    +0.000 HD
ENDBRANCH  10  11
BRANCH  10  14
ATOM     14  C   UNL     1      48.807   7.953  17.894  0.00  0.00    +0.000 C 
ATOM     15  O   UNL     1      47.818   7.559  18.509  0.00  0.00    +0.000 OA
BRANCH  14  16
ATOM     16  C   UNL     1      50.142   7.677  18.456  0.00  0.00    +0.000 A 
ATOM     17  C   UNL     1      51.001   8.731  18.742  0.00  0.00    +0.000 A 
ATOM     18  S   UNL     1      52.440   8.246  19.519  0.00  0.00    +0.000 S 
ATOM     19  C   UNL     1      51.981   6.610  19.454  0.00  0.00    +0.000 A 
ATOM     20  N   UNL     1      52.756   5.636  20.004  0.00  0.00    +0.000 NA
ATOM     21  C   UNL     1      52.275   4.446  19.883  0.00  0.00    +0.000 A 
ATOM     22  N   UNL     1      51.112   4.132  19.226  0.00  0.00    +0.000 N 
ATOM     23  C   UNL     1      50.402   5.064  18.510  0.00  0.00    +0.000 A 
ATOM     24  O   UNL     1      49.581   4.736  17.661  0.00  0.00    +0.000 OA
ATOM     25  C   UNL     1      50.788   6.434  18.775  0.00  0.00    +0.000 A 
ATOM     26  H   UNL     1      50.853   3.169  19.072  0.00  0.00    +0.000 HD
ENDBRANCH  14  16
ENDBRANCH  10  14
ENDBRANCH   9  10
ENDBRANCH   1   9
BRANCH   5  27
ATOM     27  C   UNL     1      45.046   5.727  11.001  0.00  0.00    +0.000 C 
BRANCH  27  28
ATOM     28  N   UNL     1      44.508   4.372  10.672  0.00  0.00    +0.000 NA
BRANCH  28  29
ATOM     29  C   UNL     1      43.209   4.138  11.364  0.00  0.00    +0.000 C 
BRANCH  29  30
ATOM     30  C   UNL     1      42.488   5.391  11.910  0.00  0.00    +0.000 C 
BRANCH  30  31
ATOM     31  O   UNL     1      42.521   5.462  13.330  0.00  0.00    +0.000 OA
ATOM     32  H   UNL     1      43.454   5.382  13.594  0.00  0.00    +0.000 HD
ENDBRANCH  30  31
ENDBRANCH  29  30
ENDBRANCH  28  29
BRANCH  28  33
ATOM     33  C   UNL     1      44.317   4.284   9.203  0.00  0.00    +0.000 C 
BRANCH  33  34
ATOM     34  C   UNL     1      45.337   3.437   8.468  0.00  0.00    +0.000 A 
ATOM     35  C   UNL     1      45.488   2.085   8.768  0.00  0.00    +0.000 A 
ATOM     36  C   UNL     1      46.400   1.333   8.037  0.00  0.00    +0.000 A 
ATOM     37  C   UNL     1      47.138   1.946   7.032  0.00  0.00    +0.000 A 
ATOM     38  C   UNL     1      46.938   3.298   6.804  0.00  0.00    +0.000 A 
ATOM     39  N   UNL     1      46.061   4.054   7.498  0.00  0.00    +0.000 NA
ENDBRANCH  33  34
ENDBRANCH  28  33
ENDBRANCH  27  28
ENDBRANCH   5  27
TORSDOF 12
ENDMDL
MODEL 9
REMARK VINA RESULT:    -6.360      3.427      9.174
REMARK INTER + INTRA:         -12.021
REMARK INTER:                 -10.096
REMARK INTRA:                  -1.926
REMARK UNBOUND:                -1.571
REMARK  Name = 
REMARK  12 active torsions:
REMARK  status: ('A' for Active; 'I' for Inactive)
REMARK    1  A    between atoms: N_1  and  C_2
REMARK    2  A    between atoms: C_2  and  C_3
REMARK    3  A    between atoms: C_2  and  C_23
REMARK    4  A    between atoms: C_3  and  N_4
REMARK    5  A    between atoms: C_8  and  C_9
REMARK    6  A    between atoms: C_9  and  N_10
REMARK    7  A    between atoms: N_10  and  C_11
REMARK    8  A    between atoms: N_10  and  C_14
REMARK    9  A    between atoms: C_11  and  C_12
REMARK   10  A    between atoms: C_12  and  O_13
REMARK   11  A    between atoms: C_14  and  C_15
REMARK   12  A    between atoms: C_23  and  C_25
REMARK                            x       y       z     vdW  Elec       q    Type
REMARK                         _______ _______ _______ _____ _____    ______ ____
ROOT
ATOM      1  N   UNL     1      47.333   9.468  13.695  0.00  0.00    +0.000 N 
ATOM      2  C   UNL     1      48.356   9.037  14.582  0.00  0.00    +0.000 A 
ATOM      3  C   UNL     1      48.393   9.536  15.880  0.00  0.00    +0.000 A 
ATOM      4  C   UNL     1      49.346   9.044  16.778  0.00  0.00    +0.000 A 
ATOM      5  C   UNL     1      50.210   8.026  16.378  0.00  0.00    +0.000 A 
ATOM      6  C   UNL     1      50.151   7.641  15.049  0.00  0.00    +0.000 A 
ATOM      7  N   UNL     1      49.262   8.131  14.162  0.00  0.00    +0.000 NA
ATOM      8  H   UNL     1      46.448   9.253  14.144  0.00  0.00    +0.000 HD
ENDROOT
BRANCH   1   9
ATOM      9  C   UNL     1      47.489   8.799  12.384  0.00  0.00    +0.000 C 
BRANCH   9  10
ATOM     10  C   UNL     1      46.242   8.019  11.914  0.00  0.00    +0.000 C 
BRANCH  10  11
ATOM     11  N   UNL     1      45.108   8.077  12.878  0.00  0.00    +0.000 NA
ATOM     12  H   UNL     1      44.605   8.948  12.727  0.00  0.00    +0.000 HD
ATOM     13  H   UNL     1      45.494   8.134  13.824  0.00  0.00    +0.000 HD
ENDBRANCH  10  11
BRANCH  10  14
ATOM     14  C   UNL     1      46.680   6.540  11.743  0.00  0.00    +0.000 C 
ATOM     15  O   UNL     1      47.643   6.120  12.383  0.00  0.00    +0.000 OA
BRANCH  14  16
ATOM     16  C   UNL     1      45.865   5.575  10.983  0.00  0.00    +0.000 A 
ATOM     17  C   UNL     1      45.962   5.531   9.597  0.00  0.00    +0.000 A 
ATOM     18  S   UNL     1      45.065   4.265   8.891  0.00  0.00    +0.000 S 
ATOM     19  C   UNL     1      44.481   3.767  10.408  0.00  0.00    +0.000 A 
ATOM     20  N   UNL     1      43.679   2.674  10.533  0.00  0.00    +0.000 NA
ATOM     21  C   UNL     1      43.322   2.416  11.744  0.00  0.00    +0.000 A 
ATOM     22  N   UNL     1      43.656   3.173  12.839  0.00  0.00    +0.000 N 
ATOM     23  C   UNL     1      44.311   4.374  12.726  0.00  0.00    +0.000 A 
ATOM     24  O   UNL     1      44.308   5.198  13.634  0.00  0.00    +0.000 OA
ATOM     25  C   UNL     1      44.900   4.608  11.424  0.00  0.00    +0.000 A 
ATOM     26  H   UNL     1      43.250   2.976  13.743  0.00  0.00    +0.000 HD
ENDBRANCH  14  16
ENDBRANCH  10  14
ENDBRANCH   9  10
ENDBRANCH   1   9
BRANCH   5  27
ATOM     27  C   UNL     1      51.135   7.322  17.339  0.00  0.00    +0.000 C 
BRANCH  27  28
ATOM     28  N   UNL     1      51.569   5.968  16.879  0.00  0.00    +0.000 NA
BRANCH  28  29
ATOM     29  C   UNL     1      53.048   5.916  16.712  0.00  0.00    +0.000 C 
BRANCH  29  30
ATOM     30  C   UNL     1      53.870   6.909  17.565  0.00  0.00    +0.000 C 
BRANCH  30  31
ATOM     31  O   UNL     1      54.235   6.368  18.829  0.00  0.00    +0.000 OA
ATOM     32  H   UNL     1      53.615   6.735  19.482  0.00  0.00    +0.000 HD
ENDBRANCH  30  31
ENDBRANCH  29  30
ENDBRANCH  28  29
BRANCH  28  33
ATOM     33  C   UNL     1      51.143   4.968  17.891  0.00  0.00    +0.000 C 
BRANCH  33  34
ATOM     34  C   UNL     1      49.784   4.344  17.650  0.00  0.00    +0.000 A 
ATOM     35  C   UNL     1      48.620   4.997  18.049  0.00  0.00    +0.000 A 
ATOM     36  C   UNL     1      47.390   4.413  17.765  0.00  0.00    +0.000 A 
ATOM     37  C   UNL     1      47.353   3.196  17.097  0.00  0.00    +0.000 A 
ATOM     38  C   UNL     1      48.555   2.604  16.745  0.00  0.00    +0.000 A 
ATOM     39  N   UNL     1      49.764   3.146  17.007  0.00  0.00    +0.000 NA
ENDBRANCH  33  34
ENDBRANCH  28  33
ENDBRANCH  27  28
ENDBRANCH   5  27
TORSDOF 12
ENDMDL
