MODEL 1
REMARK VINA RESULT:    -8.107      0.000      0.000
REMARK INTER + INTRA:         -11.958
REMARK INTER:                 -10.950
REMARK INTRA:                  -1.008
REMARK UNBOUND:                -1.008
REMARK  Name = 
REMARK  7 active torsions:
REMARK  status: ('A' for Active; 'I' for Inactive)
REMARK    1  A    between atoms: C_1  and  C_2
REMARK    2  A    between atoms: C_6  and  C_7
REMARK    3  A    between atoms: N_9  and  C_10
REMARK    4  A    between atoms: C_10  and  C_11
REMARK    5  A    between atoms: C_14  and  C_15
REMARK    6  A    between atoms: C_15  and  N_16
REMARK    7  A    between atoms: C_17  and  C_19
REMARK                            x       y       z     vdW  Elec       q    Type
REMARK                         _______ _______ _______ _____ _____    ______ ____
ROOT
ATOM      1  C   UNL     1      45.059   6.322  11.241  0.00  0.00    +0.000 A 
ATOM      2  C   UNL     1      46.266   5.799  11.727  0.00  0.00    +0.000 A 
ATOM      3  C   UNL     1      47.078   6.542  12.598  0.00  0.00    +0.000 A 
ATOM      4  C   UNL     1      46.695   7.820  13.026  0.00  0.00    +0.000 A 
ATOM      5  C   UNL     1      45.501   8.354  12.521  0.00  0.00    +0.000 A 
ATOM      6  C   UNL     1      44.686   7.608  11.654  0.00  0.00    +0.000 A 
ENDROOT
BRANCH   1   7
ATOM      7  C   UNL     1      44.205   5.531  10.274  0.00  0.00    +0.000 C 
BRANCH   7  10
ATOM      8  C   UNL     1      44.806   3.356   9.250  0.00  0.00    +0.000 C 
ATOM      9  O   UNL     1      44.023   2.715   9.937  0.00  0.00    +0.000 OA
ATOM     10  N   UNL     1      44.971   4.729   9.349  0.00  0.00    +0.000 N 
ATOM     11  H   UNL     1      45.632   5.158   8.709  0.00  0.00    +0.000 HD
BRANCH   8  17
ATOM     12  C   UNL     1      46.912  -0.731   7.697  0.00  0.00    +0.000 C 
ATOM     13  C   UNL     1      46.674   0.731   7.476  0.00  0.00    +0.000 A 
ATOM     14  C   UNL     1      47.228   1.388   6.380  0.00  0.00    +0.000 A 
ATOM     15  C   UNL     1      46.985   2.750   6.217  0.00  0.00    +0.000 A 
ATOM     16  C   UNL     1      46.195   3.416   7.149  0.00  0.00    +0.000 A 
ATOM     17  C   UNL     1      45.675   2.691   8.213  0.00  0.00    +0.000 A 
ATOM     18  N   UNL     1      45.902   1.360   8.397  0.00  0.00    +0.000 NA
ENDBRANCH   8  17
ENDBRANCH   7  10
ENDBRANCH   1   7
BRANCH   4  19
ATOM     19  C   UNL     1      47.539   8.590  14.016  0.00  0.00    +0.000 C 
BRANCH  19  20
ATOM     20  N   UNL     1      47.878   7.809  15.181  0.00  0.00    +0.000 N 
ATOM     21  C   UNL     1      49.097   7.182  15.295  0.00  0.00    +0.000 C 
ATOM     22  O   UNL     1      49.977   7.301  14.447  0.00  0.00    +0.000 OA
ATOM     23  H   UNL     1      47.109   7.507  15.769  0.00  0.00    +0.000 HD
BRANCH  21  24
ATOM     24  C   UNL     1      49.317   6.401  16.520  0.00  0.00    +0.000 A 
ATOM     25  C   UNL     1      50.262   6.812  17.452  0.00  0.00    +0.000 A 
ATOM     26  S   UNL     1      50.358   5.797  18.821  0.00  0.00    +0.000 S 
ATOM     27  C   UNL     1      49.170   4.751  18.198  0.00  0.00    +0.000 A 
ATOM     28  N   UNL     1      48.789   3.636  18.879  0.00  0.00    +0.000 NA
ATOM     29  C   UNL     1      47.887   2.929  18.281  0.00  0.00    +0.000 A 
ATOM     30  N   UNL     1      47.331   3.236  17.069  0.00  0.00    +0.000 N 
ATOM     31  C   UNL     1      47.669   4.361  16.355  0.00  0.00    +0.000 A 
ATOM     32  O   UNL     1      47.118   4.629  15.293  0.00  0.00    +0.000 OA
ATOM     33  C   UNL     1      48.688   5.185  16.975  0.00  0.00    +0.000 A 
ATOM     34  H   UNL     1      46.615   2.654  16.661  0.00  0.00    +0.000 HD
ENDBRANCH  21  24
ENDBRANCH  19  20
ENDBRANCH   4  19
TORSDOF 6
ENDMDL
MODEL 2
REMARK VINA RESULT:    -7.809      3.570      6.519
REMARK INTER + INTRA:         -11.556
REMARK INTER:                 -10.670
REMARK INTRA:                  -0.885
REMARK UNBOUND:                -1.008
REMARK  Name = 
REMARK  7 active torsions:
REMARK  status: ('A' for Active; 'I' for Inactive)
REMARK    1  A    between atoms: C_1  and  C_2
REMARK    2  A    between atoms: C_6  and  C_7
REMARK    3  A    between atoms: N_9  and  C_10
REMARK    4  A    between atoms: C_10  and  C_11
REMARK    5  A    between atoms: C_14  and  C_15
REMARK    6  A    between atoms: C_15  and  N_16
REMARK    7  A    between atoms: C_17  and  C_19
REMARK                            x       y       z     vdW  Elec       q    Type
REMARK                         _______ _______ _______ _____ _____    ______ ____
ROOT
ATOM      1  C   UNL     1      46.897   2.065   6.788  0.00  0.00    +0.000 A 
ATOM      2  C   UNL     1      46.371   1.252   7.802  0.00  0.00    +0.000 A 
ATOM      3  C   UNL     1      45.578   1.795   8.827  0.00  0.00    +0.000 A 
ATOM      4  C   UNL     1      45.270   3.162   8.852  0.00  0.00    +0.000 A 
ATOM      5  C   UNL     1      45.817   3.979   7.853  0.00  0.00    +0.000 A 
ATOM      6  C   UNL     1      46.605   3.436   6.825  0.00  0.00    +0.000 A 
ENDROOT
BRANCH   1   7
ATOM      7  C   UNL     1      47.779   1.480   5.707  0.00  0.00    +0.000 C 
BRANCH   7  10
ATOM      8  C   UNL     1      47.046   0.024   3.842  0.00  0.00    +0.000 C 
ATOM      9  O   UNL     1      47.181   0.894   2.992  0.00  0.00    +0.000 OA
ATOM     10  N   UNL     1      47.302   0.220   5.190  0.00  0.00    +0.000 N 
ATOM     11  H   UNL     1      47.178  -0.582   5.800  0.00  0.00    +0.000 HD
BRANCH   8  17
ATOM     12  C   UNL     1      46.898  -4.676   5.043  0.00  0.00    +0.000 C 
ATOM     13  C   UNL     1      46.507  -3.606   4.069  0.00  0.00    +0.000 A 
ATOM     14  C   UNL     1      45.761  -3.912   2.933  0.00  0.00    +0.000 A 
ATOM     15  C   UNL     1      45.426  -2.888   2.051  0.00  0.00    +0.000 A 
ATOM     16  C   UNL     1      45.839  -1.589   2.329  0.00  0.00    +0.000 A 
ATOM     17  C   UNL     1      46.577  -1.363   3.485  0.00  0.00    +0.000 A 
ATOM     18  N   UNL     1      46.922  -2.349   4.359  0.00  0.00    +0.000 NA
ENDBRANCH   8  17
ENDBRANCH   7  10
ENDBRANCH   1   7
BRANCH   4  19
ATOM     19  C   UNL     1      44.362   3.730   9.918  0.00  0.00    +0.000 C 
BRANCH  19  20
ATOM     20  N   UNL     1      44.917   4.900  10.553  0.00  0.00    +0.000 N 
ATOM     21  C   UNL     1      44.111   5.880  11.085  0.00  0.00    +0.000 C 
ATOM     22  O   UNL     1      42.886   5.785  11.101  0.00  0.00    +0.000 OA
ATOM     23  H   UNL     1      45.887   5.114  10.350  0.00  0.00    +0.000 HD
BRANCH  21  24
ATOM     24  C   UNL     1      44.795   7.031  11.688  0.00  0.00    +0.000 A 
ATOM     25  C   UNL     1      44.411   8.326  11.359  0.00  0.00    +0.000 A 
ATOM     26  S   UNL     1      45.299   9.531  12.178  0.00  0.00    +0.000 S 
ATOM     27  C   UNL     1      46.255   8.369  12.970  0.00  0.00    +0.000 A 
ATOM     28  N   UNL     1      47.251   8.739  13.820  0.00  0.00    +0.000 NA
ATOM     29  C   UNL     1      47.903   7.751  14.339  0.00  0.00    +0.000 A 
ATOM     30  N   UNL     1      47.647   6.430  14.089  0.00  0.00    +0.000 N 
ATOM     31  C   UNL     1      46.640   6.008  13.255  0.00  0.00    +0.000 A 
ATOM     32  O   UNL     1      46.409   4.816  13.088  0.00  0.00    +0.000 OA
ATOM     33  C   UNL     1      45.884   7.078  12.634  0.00  0.00    +0.000 A 
ATOM     34  H   UNL     1      48.179   5.701  14.541  0.00  0.00    +0.000 HD
ENDBRANCH  21  24
ENDBRANCH  19  20
ENDBRANCH   4  19
TORSDOF 6
ENDMDL
MODEL 3
REMARK VINA RESULT:    -7.757      2.214      2.676
REMARK INTER + INTRA:         -11.486
REMARK INTER:                 -10.588
REMARK INTRA:                  -0.898
REMARK UNBOUND:                -1.008
REMARK  Name = 
REMARK  7 active torsions:
REMARK  status: ('A' for Active; 'I' for Inactive)
REMARK    1  A    between atoms: C_1  and  C_2
REMARK    2  A    between atoms: C_6  and  C_7
REMARK    3  A    between atoms: N_9  and  C_10
REMARK    4  A    between atoms: C_10  and  C_11
REMARK    5  A    between atoms: C_14  and  C_15
REMARK    6  A    between atoms: C_15  and  N_16
REMARK    7  A    between atoms: C_17  and  C_19
REMARK                            x       y       z     vdW  Elec       q    Type
REMARK                         _______ _______ _______ _____ _____    ______ ____
ROOT
ATOM      1  C   UNL     1      45.487   4.682  11.844  0.00  0.00    +0.000 A 
ATOM      2  C   UNL     1      45.985   4.075  13.006  0.00  0.00    +0.000 A 
ATOM      3  C   UNL     1      46.919   4.732  13.823  0.00  0.00    +0.000 A 
ATOM      4  C   UNL     1      47.365   6.024  13.513  0.00  0.00    +0.000 A 
ATOM      5  C   UNL     1      46.887   6.622  12.338  0.00  0.00    +0.000 A 
ATOM      6  C   UNL     1      45.948   5.967  11.524  0.00  0.00    +0.000 A 
ENDROOT
BRANCH   1   7
ATOM      7  C   UNL     1      44.508   3.955  10.950  0.00  0.00    +0.000 C 
BRANCH   7  10
ATOM      8  C   UNL     1      45.510   3.789   8.690  0.00  0.00    +0.000 C 
ATOM      9  O   UNL     1      45.321   4.968   8.422  0.00  0.00    +0.000 OA
ATOM     10  N   UNL     1      45.139   3.204   9.890  0.00  0.00    +0.000 N 
ATOM     11  H   UNL     1      45.369   2.222  10.011  0.00  0.00    +0.000 HD
BRANCH   8  17
ATOM     12  C   UNL     1      46.939  -0.741   7.693  0.00  0.00    +0.000 C 
ATOM     13  C   UNL     1      46.852   0.686   7.243  0.00  0.00    +0.000 A 
ATOM     14  C   UNL     1      47.357   1.077   6.006  0.00  0.00    +0.000 A 
ATOM     15  C   UNL     1      47.260   2.414   5.631  0.00  0.00    +0.000 A 
ATOM     16  C   UNL     1      46.660   3.322   6.497  0.00  0.00    +0.000 A 
ATOM     17  C   UNL     1      46.176   2.855   7.713  0.00  0.00    +0.000 A 
ATOM     18  N   UNL     1      46.264   1.552   8.105  0.00  0.00    +0.000 NA
ENDBRANCH   8  17
ENDBRANCH   7  10
ENDBRANCH   1   7
BRANCH   4  19
ATOM     19  C   UNL     1      48.319   6.754  14.430  0.00  0.00    +0.000 C 
BRANCH  19  20
ATOM     20  N   UNL     1      48.115   6.424  15.819  0.00  0.00    +0.000 N 
ATOM     21  C   UNL     1      49.162   6.052  16.630  0.00  0.00    +0.000 C 
ATOM     22  O   UNL     1      50.325   6.038  16.235  0.00  0.00    +0.000 OA
ATOM     23  H   UNL     1      47.167   6.203  16.102  0.00  0.00    +0.000 HD
BRANCH  21  24
ATOM     24  C   UNL     1      48.824   5.722  18.021  0.00  0.00    +0.000 A 
ATOM     25  C   UNL     1      48.968   4.421  18.488  0.00  0.00    +0.000 A 
ATOM     26  S   UNL     1      48.554   4.235  20.133  0.00  0.00    +0.000 S 
ATOM     27  C   UNL     1      48.129   5.877  20.270  0.00  0.00    +0.000 A 
ATOM     28  N   UNL     1      47.657   6.385  21.441  0.00  0.00    +0.000 NA
ATOM     29  C   UNL     1      47.363   7.643  21.394  0.00  0.00    +0.000 A 
ATOM     30  N   UNL     1      47.501   8.437  20.289  0.00  0.00    +0.000 N 
ATOM     31  C   UNL     1      47.992   7.973  19.092  0.00  0.00    +0.000 A 
ATOM     32  O   UNL     1      48.144   8.722  18.134  0.00  0.00    +0.000 OA
ATOM     33  C   UNL     1      48.326   6.562  19.083  0.00  0.00    +0.000 A 
ATOM     34  H   UNL     1      47.272   9.419  20.320  0.00  0.00    +0.000 HD
ENDBRANCH  21  24
ENDBRANCH  19  20
ENDBRANCH   4  19
TORSDOF 6
ENDMDL
MODEL 4
REMARK VINA RESULT:    -7.666      1.432      1.615
REMARK INTER + INTRA:         -11.364
REMARK INTER:                 -10.550
REMARK INTRA:                  -0.813
REMARK UNBOUND:                -1.008
REMARK  Name = 
REMARK  7 active torsions:
REMARK  status: ('A' for Active; 'I' for Inactive)
REMARK    1  A    between atoms: C_1  and  C_2
REMARK    2  A    between atoms: C_6  and  C_7
REMARK    3  A    between atoms: N_9  and  C_10
REMARK    4  A    between atoms: C_10  and  C_11
REMARK    5  A    between atoms: C_14  and  C_15
REMARK    6  A    between atoms: C_15  and  N_16
REMARK    7  A    between atoms: C_17  and  C_19
REMARK                            x       y       z     vdW  Elec       q    Type
REMARK                         _______ _______ _______ _____ _____    ______ ____
ROOT
ATOM      1  C   UNL     1      45.485   4.783  11.800  0.00  0.00    +0.000 A 
ATOM      2  C   UNL     1      46.207   4.431  12.949  0.00  0.00    +0.000 A 
ATOM      3  C   UNL     1      47.063   5.350  13.577  0.00  0.00    +0.000 A 
ATOM      4  C   UNL     1      47.203   6.655  13.086  0.00  0.00    +0.000 A 
ATOM      5  C   UNL     1      46.502   7.001  11.923  0.00  0.00    +0.000 A 
ATOM      6  C   UNL     1      45.641   6.083  11.298  0.00  0.00    +0.000 A 
ENDROOT
BRANCH   1   7
ATOM      7  C   UNL     1      44.592   3.778  11.108  0.00  0.00    +0.000 C 
BRANCH   7  10
ATOM      8  C   UNL     1      45.331   3.564   8.753  0.00  0.00    +0.000 C 
ATOM      9  O   UNL     1      44.849   4.635   8.410  0.00  0.00    +0.000 OA
ATOM     10  N   UNL     1      45.248   3.059  10.041  0.00  0.00    +0.000 N 
ATOM     11  H   UNL     1      45.707   2.171  10.215  0.00  0.00    +0.000 HD
BRANCH   8  17
ATOM     12  C   UNL     1      46.929  -0.888   7.663  0.00  0.00    +0.000 C 
ATOM     13  C   UNL     1      46.828   0.553   7.264  0.00  0.00    +0.000 A 
ATOM     14  C   UNL     1      47.387   1.004   6.071  0.00  0.00    +0.000 A 
ATOM     15  C   UNL     1      47.276   2.353   5.742  0.00  0.00    +0.000 A 
ATOM     16  C   UNL     1      46.607   3.211   6.609  0.00  0.00    +0.000 A 
ATOM     17  C   UNL     1      46.073   2.685   7.779  0.00  0.00    +0.000 A 
ATOM     18  N   UNL     1      46.174   1.370   8.124  0.00  0.00    +0.000 NA
ENDBRANCH   8  17
ENDBRANCH   7  10
ENDBRANCH   1   7
BRANCH   4  19
ATOM     19  C   UNL     1      48.074   7.662  13.803  0.00  0.00    +0.000 C 
BRANCH  19  20
ATOM     20  N   UNL     1      48.017   7.522  15.238  0.00  0.00    +0.000 N 
ATOM     21  C   UNL     1      49.077   7.014  15.952  0.00  0.00    +0.000 C 
ATOM     22  O   UNL     1      50.142   6.710  15.420  0.00  0.00    +0.000 OA
ATOM     23  H   UNL     1      47.097   7.540  15.663  0.00  0.00    +0.000 HD
BRANCH  21  24
ATOM     24  C   UNL     1      48.891   6.903  17.405  0.00  0.00    +0.000 A 
ATOM     25  C   UNL     1      48.832   8.047  18.193  0.00  0.00    +0.000 A 
ATOM     26  S   UNL     1      48.586   7.723  19.850  0.00  0.00    +0.000 S 
ATOM     27  C   UNL     1      48.590   6.044  19.581  0.00  0.00    +0.000 A 
ATOM     28  N   UNL     1      48.448   5.167  20.611  0.00  0.00    +0.000 NA
ATOM     29  C   UNL     1      48.483   3.923  20.261  0.00  0.00    +0.000 A 
ATOM     30  N   UNL     1      48.643   3.478  18.977  0.00  0.00    +0.000 N 
ATOM     31  C   UNL     1      48.770   4.326  17.902  0.00  0.00    +0.000 A 
ATOM     32  O   UNL     1      48.867   3.894  16.759  0.00  0.00    +0.000 OA
ATOM     33  C   UNL     1      48.751   5.736  18.241  0.00  0.00    +0.000 A 
ATOM     34  H   UNL     1      48.643   2.493  18.763  0.00  0.00    +0.000 HD
ENDBRANCH  21  24
ENDBRANCH  19  20
ENDBRANCH   4  19
TORSDOF 6
ENDMDL
MODEL 5
REMARK VINA RESULT:    -7.556      1.933      2.115
REMARK INTER + INTRA:         -11.214
REMARK INTER:                 -10.385
REMARK INTRA:                  -0.829
REMARK UNBOUND:                -1.008
REMARK  Name = 
REMARK  7 active torsions:
REMARK  status: ('A' for Active; 'I' for Inactive)
REMARK    1  A    between atoms: C_1  and  C_2
REMARK    2  A    between atoms: C_6  and  C_7
REMARK    3  A    between atoms: N_9  and  C_10
REMARK    4  A    between atoms: C_10  and  C_11
REMARK    5  A    between atoms: C_14  and  C_15
REMARK    6  A    between atoms: C_15  and  N_16
REMARK    7  A    between atoms: C_17  and  C_19
REMARK                            x       y       z     vdW  Elec       q    Type
REMARK                         _______ _______ _______ _____ _____    ______ ____
ROOT
ATOM      1  C   UNL     1      45.839   5.749  12.570  0.00  0.00    +0.000 A 
ATOM      2  C   UNL     1      46.736   5.008  13.353  0.00  0.00    +0.000 A 
ATOM      3  C   UNL     1      47.682   5.647  14.170  0.00  0.00    +0.000 A 
ATOM      4  C   UNL     1      47.743   7.044  14.246  0.00  0.00    +0.000 A 
ATOM      5  C   UNL     1      46.863   7.787  13.445  0.00  0.00    +0.000 A 
ATOM      6  C   UNL     1      45.913   7.148  12.632  0.00  0.00    +0.000 A 
ENDROOT
BRANCH   1   7
ATOM      7  C   UNL     1      44.846   5.056  11.665  0.00  0.00    +0.000 C 
BRANCH   7  10
ATOM      8  C   UNL     1      44.802   3.435   9.791  0.00  0.00    +0.000 C 
ATOM      9  O   UNL     1      43.684   3.019  10.059  0.00  0.00    +0.000 OA
ATOM     10  N   UNL     1      45.453   4.417  10.521  0.00  0.00    +0.000 N 
ATOM     11  H   UNL     1      46.370   4.701  10.190  0.00  0.00    +0.000 HD
BRANCH   8  17
ATOM     12  C   UNL     1      46.857  -0.410   7.659  0.00  0.00    +0.000 C 
ATOM     13  C   UNL     1      46.558   1.057   7.604  0.00  0.00    +0.000 A 
ATOM     14  C   UNL     1      46.983   1.833   6.527  0.00  0.00    +0.000 A 
ATOM     15  C   UNL     1      46.688   3.194   6.520  0.00  0.00    +0.000 A 
ATOM     16  C   UNL     1      45.976   3.741   7.582  0.00  0.00    +0.000 A 
ATOM     17  C   UNL     1      45.583   2.901   8.617  0.00  0.00    +0.000 A 
ATOM     18  N   UNL     1      45.864   1.568   8.649  0.00  0.00    +0.000 NA
ENDBRANCH   8  17
ENDBRANCH   7  10
ENDBRANCH   1   7
BRANCH   4  19
ATOM     19  C   UNL     1      48.718   7.728  15.178  0.00  0.00    +0.000 C 
BRANCH  19  20
ATOM     20  N   UNL     1      49.723   6.827  15.686  0.00  0.00    +0.000 N 
ATOM     21  C   UNL     1      49.626   6.279  16.944  0.00  0.00    +0.000 C 
ATOM     22  O   UNL     1      48.659   6.477  17.674  0.00  0.00    +0.000 OA
ATOM     23  H   UNL     1      50.621   6.832  15.216  0.00  0.00    +0.000 HD
BRANCH  21  24
ATOM     24  C   UNL     1      50.722   5.391  17.354  0.00  0.00    +0.000 A 
ATOM     25  C   UNL     1      51.914   5.924  17.831  0.00  0.00    +0.000 A 
ATOM     26  S   UNL     1      53.058   4.740  18.284  0.00  0.00    +0.000 S 
ATOM     27  C   UNL     1      52.019   3.476  17.821  0.00  0.00    +0.000 A 
ATOM     28  N   UNL     1      52.404   2.176  17.927  0.00  0.00    +0.000 NA
ATOM     29  C   UNL     1      51.518   1.324  17.526  0.00  0.00    +0.000 A 
ATOM     30  N   UNL     1      50.284   1.654  17.035  0.00  0.00    +0.000 N 
ATOM     31  C   UNL     1      49.844   2.951  16.929  0.00  0.00    +0.000 A 
ATOM     32  O   UNL     1      48.715   3.209  16.525  0.00  0.00    +0.000 OA
ATOM     33  C   UNL     1      50.806   3.951  17.352  0.00  0.00    +0.000 A 
ATOM     34  H   UNL     1      49.627   0.941  16.756  0.00  0.00    +0.000 HD
ENDBRANCH  21  24
ENDBRANCH  19  20
ENDBRANCH   4  19
TORSDOF 6
ENDMDL
MODEL 6
REMARK VINA RESULT:    -7.409      4.240      7.576
REMARK INTER + INTRA:         -11.016
REMARK INTER:                  -9.995
REMARK INTRA:                  -1.021
REMARK UNBOUND:                -1.008
REMARK  Name = 
REMARK  7 active torsions:
REMARK  status: ('A' for Active; 'I' for Inactive)
REMARK    1  A    between atoms: C_1  and  C_2
REMARK    2  A    between atoms: C_6  and  C_7
REMARK    3  A    between atoms: N_9  and  C_10
REMARK    4  A    between atoms: C_10  and  C_11
REMARK    5  A    between atoms: C_14  and  C_15
REMARK    6  A    between atoms: C_15  and  N_16
REMARK    7  A    between atoms: C_17  and  C_19
REMARK                            x       y       z     vdW  Elec       q    Type
REMARK                         _______ _______ _______ _____ _____    ______ ____
ROOT
ATOM      1  C   UNL     1      44.696   9.205  11.729  0.00  0.00    +0.000 A 
ATOM      2  C   UNL     1      44.161   8.020  11.205  0.00  0.00    +0.000 A 
ATOM      3  C   UNL     1      44.654   6.765  11.600  0.00  0.00    +0.000 A 
ATOM      4  C   UNL     1      45.680   6.661  12.548  0.00  0.00    +0.000 A 
ATOM      5  C   UNL     1      46.234   7.846  13.054  0.00  0.00    +0.000 A 
ATOM      6  C   UNL     1      45.737   9.100  12.663  0.00  0.00    +0.000 A 
ENDROOT
BRANCH   1   7
ATOM      7  C   UNL     1      44.185  10.553  11.273  0.00  0.00    +0.000 C 
BRANCH   7  10
ATOM      8  C   UNL     1      41.732  10.890  11.358  0.00  0.00    +0.000 C 
ATOM      9  O   UNL     1      41.545  10.474  10.223  0.00  0.00    +0.000 OA
ATOM     10  N   UNL     1      42.982  10.976  11.950  0.00  0.00    +0.000 N 
ATOM     11  H   UNL     1      43.013  11.315  12.907  0.00  0.00    +0.000 HD
BRANCH   8  17
ATOM     12  C   UNL     1      40.342  12.903  15.549  0.00  0.00    +0.000 C 
ATOM     13  C   UNL     1      39.936  12.323  14.229  0.00  0.00    +0.000 A 
ATOM     14  C   UNL     1      38.593  12.243  13.866  0.00  0.00    +0.000 A 
ATOM     15  C   UNL     1      38.261  11.691  12.632  0.00  0.00    +0.000 A 
ATOM     16  C   UNL     1      39.275  11.238  11.794  0.00  0.00    +0.000 A 
ATOM     17  C   UNL     1      40.591  11.356  12.225  0.00  0.00    +0.000 A 
ATOM     18  N   UNL     1      40.940  11.888  13.430  0.00  0.00    +0.000 NA
ENDBRANCH   8  17
ENDBRANCH   7  10
ENDBRANCH   1   7
BRANCH   4  19
ATOM     19  C   UNL     1      46.162   5.308  13.021  0.00  0.00    +0.000 C 
BRANCH  19  20
ATOM     20  N   UNL     1      46.757   5.359  14.334  0.00  0.00    +0.000 N 
ATOM     21  C   UNL     1      47.273   4.234  14.933  0.00  0.00    +0.000 C 
ATOM     22  O   UNL     1      47.309   3.146  14.364  0.00  0.00    +0.000 OA
ATOM     23  H   UNL     1      46.534   6.167  14.906  0.00  0.00    +0.000 HD
BRANCH  21  24
ATOM     24  C   UNL     1      47.835   4.411  16.279  0.00  0.00    +0.000 A 
ATOM     25  C   UNL     1      47.424   3.590  17.322  0.00  0.00    +0.000 A 
ATOM     26  S   UNL     1      48.205   3.926  18.803  0.00  0.00    +0.000 S 
ATOM     27  C   UNL     1      49.087   5.205  18.112  0.00  0.00    +0.000 A 
ATOM     28  N   UNL     1      49.947   5.949  18.860  0.00  0.00    +0.000 NA
ATOM     29  C   UNL     1      50.539   6.895  18.207  0.00  0.00    +0.000 A 
ATOM     30  N   UNL     1      50.353   7.161  16.878  0.00  0.00    +0.000 N 
ATOM     31  C   UNL     1      49.512   6.424  16.079  0.00  0.00    +0.000 A 
ATOM     32  O   UNL     1      49.402   6.662  14.881  0.00  0.00    +0.000 OA
ATOM     33  C   UNL     1      48.810   5.356  16.765  0.00  0.00    +0.000 A 
ATOM     34  H   UNL     1      50.860   7.902  16.418  0.00  0.00    +0.000 HD
ENDBRANCH  21  24
ENDBRANCH  19  20
ENDBRANCH   4  19
TORSDOF 6
ENDMDL
MODEL 7
REMARK VINA RESULT:    -7.358      3.712      5.040
REMARK INTER + INTRA:         -10.947
REMARK INTER:                  -9.921
REMARK INTRA:                  -1.026
REMARK UNBOUND:                -1.008
REMARK  Name = 
REMARK  7 active torsions:
REMARK  status: ('A' for Active; 'I' for Inactive)
REMARK    1  A    between atoms: C_1  and  C_2
REMARK    2  A    between atoms: C_6  and  C_7
REMARK    3  A    between atoms: N_9  and  C_10
REMARK    4  A    between atoms: C_10  and  C_11
REMARK    5  A    between atoms: C_14  and  C_15
REMARK    6  A    between atoms: C_15  and  N_16
REMARK    7  A    between atoms: C_17  and  C_19
REMARK                            x       y       z     vdW  Elec       q    Type
REMARK                         _______ _______ _______ _____ _____    ______ ____
ROOT
ATOM      1  C   UNL     1      45.001   4.862  12.125  0.00  0.00    +0.000 A 
ATOM      2  C   UNL     1      46.118   4.953  12.967  0.00  0.00    +0.000 A 
ATOM      3  C   UNL     1      46.632   6.200  13.358  0.00  0.00    +0.000 A 
ATOM      4  C   UNL     1      46.028   7.392  12.935  0.00  0.00    +0.000 A 
ATOM      5  C   UNL     1      44.927   7.303  12.072  0.00  0.00    +0.000 A 
ATOM      6  C   UNL     1      44.409   6.055  11.686  0.00  0.00    +0.000 A 
ENDROOT
BRANCH   1   7
ATOM      7  C   UNL     1      44.474   3.516  11.679  0.00  0.00    +0.000 C 
BRANCH   7  10
ATOM      8  C   UNL     1      44.979   3.325   9.261  0.00  0.00    +0.000 C 
ATOM      9  O   UNL     1      44.139   4.150   8.929  0.00  0.00    +0.000 OA
ATOM     10  N   UNL     1      45.207   2.945  10.574  0.00  0.00    +0.000 N 
ATOM     11  H   UNL     1      45.948   2.268  10.733  0.00  0.00    +0.000 HD
BRANCH   8  17
ATOM     12  C   UNL     1      46.934  -0.832   7.697  0.00  0.00    +0.000 C 
ATOM     13  C   UNL     1      46.782   0.645   7.502  0.00  0.00    +0.000 A 
ATOM     14  C   UNL     1      47.415   1.296   6.446  0.00  0.00    +0.000 A 
ATOM     15  C   UNL     1      47.250   2.672   6.307  0.00  0.00    +0.000 A 
ATOM     16  C   UNL     1      46.457   3.358   7.221  0.00  0.00    +0.000 A 
ATOM     17  C   UNL     1      45.855   2.638   8.246  0.00  0.00    +0.000 A 
ATOM     18  N   UNL     1      46.006   1.293   8.405  0.00  0.00    +0.000 NA
ENDBRANCH   8  17
ENDBRANCH   7  10
ENDBRANCH   1   7
BRANCH   4  19
ATOM     19  C   UNL     1      46.543   8.731  13.411  0.00  0.00    +0.000 C 
BRANCH  19  20
ATOM     20  N   UNL     1      47.856   9.035  12.897  0.00  0.00    +0.000 N 
ATOM     21  C   UNL     1      48.035   9.935  11.872  0.00  0.00    +0.000 C 
ATOM     22  O   UNL     1      47.102  10.567  11.384  0.00  0.00    +0.000 OA
ATOM     23  H   UNL     1      48.595   8.375  13.110  0.00  0.00    +0.000 HD
BRANCH  21  24
ATOM     24  C   UNL     1      49.418  10.146  11.424  0.00  0.00    +0.000 A 
ATOM     25  C   UNL     1      49.869  11.426  11.124  0.00  0.00    +0.000 A 
ATOM     26  S   UNL     1      51.507  11.478  10.647  0.00  0.00    +0.000 S 
ATOM     27  C   UNL     1      51.660   9.790  10.783  0.00  0.00    +0.000 A 
ATOM     28  N   UNL     1      52.831   9.164  10.488  0.00  0.00    +0.000 NA
ATOM     29  C   UNL     1      52.798   7.879  10.624  0.00  0.00    +0.000 A 
ATOM     30  N   UNL     1      51.704   7.166  11.032  0.00  0.00    +0.000 N 
ATOM     31  C   UNL     1      50.507   7.755  11.361  0.00  0.00    +0.000 A 
ATOM     32  O   UNL     1      49.560   7.090  11.766  0.00  0.00    +0.000 OA
ATOM     33  C   UNL     1      50.484   9.198  11.213  0.00  0.00    +0.000 A 
ATOM     34  H   UNL     1      51.745   6.163  11.139  0.00  0.00    +0.000 HD
ENDBRANCH  21  24
ENDBRANCH  19  20
ENDBRANCH   4  19
TORSDOF 6
ENDMDL
MODEL 8
REMARK VINA RESULT:    -7.307      1.823      2.449
REMARK INTER + INTRA:         -10.877
REMARK INTER:                 -10.705
REMARK INTRA:                  -0.173
REMARK UNBOUND:                -1.008
REMARK  Name = 
REMARK  7 active torsions:
REMARK  status: ('A' for Active; 'I' for Inactive)
REMARK    1  A    between atoms: C_1  and  C_2
REMARK    2  A    between atoms: C_6  and  C_7
REMARK    3  A    between atoms: N_9  and  C_10
REMARK    4  A    between atoms: C_10  and  C_11
REMARK    5  A    between atoms: C_14  and  C_15
REMARK    6  A    between atoms: C_15  and  N_16
REMARK    7  A    between atoms: C_17  and  C_19
REMARK                            x       y       z     vdW  Elec       q    Type
REMARK                         _______ _______ _______ _____ _____    ______ ____
ROOT
ATOM      1  C   UNL     1      44.813   5.063  11.178  0.00  0.00    +0.000 A 
ATOM      2  C   UNL     1      45.546   4.386  12.164  0.00  0.00    +0.000 A 
ATOM      3  C   UNL     1      46.411   5.080  13.026  0.00  0.00    +0.000 A 
ATOM      4  C   UNL     1      46.550   6.471  12.941  0.00  0.00    +0.000 A 
ATOM      5  C   UNL     1      45.838   7.145  11.939  0.00  0.00    +0.000 A 
ATOM      6  C   UNL     1      44.968   6.453  11.080  0.00  0.00    +0.000 A 
ENDROOT
BRANCH   1   7
ATOM      7  C   UNL     1      43.910   4.306  10.229  0.00  0.00    +0.000 C 
BRANCH   7  10
ATOM      8  C   UNL     1      45.581   4.025   8.421  0.00  0.00    +0.000 C 
ATOM      9  O   UNL     1      45.882   5.210   8.393  0.00  0.00    +0.000 OA
ATOM     10  N   UNL     1      44.626   3.494   9.273  0.00  0.00    +0.000 N 
ATOM     11  H   UNL     1      44.476   2.490   9.225  0.00  0.00    +0.000 HD
BRANCH   8  17
ATOM     12  C   UNL     1      46.894  -0.590   7.694  0.00  0.00    +0.000 C 
ATOM     13  C   UNL     1      46.859   0.812   7.168  0.00  0.00    +0.000 A 
ATOM     14  C   UNL     1      47.400   1.123   5.923  0.00  0.00    +0.000 A 
ATOM     15  C   UNL     1      47.351   2.441   5.477  0.00  0.00    +0.000 A 
ATOM     16  C   UNL     1      46.761   3.410   6.282  0.00  0.00    +0.000 A 
ATOM     17  C   UNL     1      46.239   3.021   7.509  0.00  0.00    +0.000 A 
ATOM     18  N   UNL     1      46.280   1.739   7.970  0.00  0.00    +0.000 NA
ENDBRANCH   8  17
ENDBRANCH   7  10
ENDBRANCH   1   7
BRANCH   4  19
ATOM     19  C   UNL     1      47.430   7.221  13.914  0.00  0.00    +0.000 C 
BRANCH  19  20
ATOM     20  N   UNL     1      47.955   6.373  14.955  0.00  0.00    +0.000 N 
ATOM     21  C   UNL     1      48.901   6.827  15.844  0.00  0.00    +0.000 C 
ATOM     22  O   UNL     1      49.304   7.987  15.837  0.00  0.00    +0.000 OA
ATOM     23  H   UNL     1      47.822   5.374  14.841  0.00  0.00    +0.000 HD
BRANCH  21  24
ATOM     24  C   UNL     1      49.371   5.862  16.848  0.00  0.00    +0.000 A 
ATOM     25  C   UNL     1      48.457   5.136  17.602  0.00  0.00    +0.000 A 
ATOM     26  S   UNL     1      49.186   4.047  18.695  0.00  0.00    +0.000 S 
ATOM     27  C   UNL     1      50.747   4.536  18.230  0.00  0.00    +0.000 A 
ATOM     28  N   UNL     1      51.854   4.001  18.812  0.00  0.00    +0.000 NA
ATOM     29  C   UNL     1      52.972   4.476  18.369  0.00  0.00    +0.000 A 
ATOM     30  N   UNL     1      53.082   5.432  17.396  0.00  0.00    +0.000 N 
ATOM     31  C   UNL     1      51.995   5.986  16.766  0.00  0.00    +0.000 A 
ATOM     32  O   UNL     1      52.131   6.809  15.867  0.00  0.00    +0.000 OA
ATOM     33  C   UNL     1      50.712   5.498  17.235  0.00  0.00    +0.000 A 
ATOM     34  H   UNL     1      53.985   5.749  17.078  0.00  0.00    +0.000 HD
ENDBRANCH  21  24
ENDBRANCH  19  20
ENDBRANCH   4  19
TORSDOF 6
ENDMDL
MODEL 9
REMARK VINA RESULT:    -6.656      2.750      4.097
REMARK INTER + INTRA:          -9.998
REMARK INTER:                  -9.016
REMARK INTRA:                  -0.982
REMARK UNBOUND:                -1.008
REMARK  Name = 
REMARK  7 active torsions:
REMARK  status: ('A' for Active; 'I' for Inactive)
REMARK    1  A    between atoms: C_1  and  C_2
REMARK    2  A    between atoms: C_6  and  C_7
REMARK    3  A    between atoms: N_9  and  C_10
REMARK    4  A    between atoms: C_10  and  C_11
REMARK    5  A    between atoms: C_14  and  C_15
REMARK    6  A    between atoms: C_15  and  N_16
REMARK    7  A    between atoms: C_17  and  C_19
REMARK                            x       y       z     vdW  Elec       q    Type
REMARK                         _______ _______ _______ _____ _____    ______ ____
ROOT
ATOM      1  C   UNL     1      47.764   7.783  13.405  0.00  0.00    +0.000 A 
ATOM      2  C   UNL     1      48.047   8.920  14.175  0.00  0.00    +0.000 A 
ATOM      3  C   UNL     1      48.528   8.804  15.489  0.00  0.00    +0.000 A 
ATOM      4  C   UNL     1      48.761   7.547  16.062  0.00  0.00    +0.000 A 
ATOM      5  C   UNL     1      48.454   6.409  15.303  0.00  0.00    +0.000 A 
ATOM      6  C   UNL     1      47.979   6.525  13.987  0.00  0.00    +0.000 A 
ENDROOT
BRANCH   1   7
ATOM      7  C   UNL     1      47.213   7.914  12.003  0.00  0.00    +0.000 C 
BRANCH   7  10
ATOM      8  C   UNL     1      45.413   6.459  11.119  0.00  0.00    +0.000 C 
ATOM      9  O   UNL     1      44.534   7.293  11.288  0.00  0.00    +0.000 OA
ATOM     10  N   UNL     1      46.744   6.667  11.446  0.00  0.00    +0.000 N 
ATOM     11  H   UNL     1      47.390   5.912  11.239  0.00  0.00    +0.000 HD
BRANCH   8  17
ATOM     12  C   UNL     1      45.854   3.468   7.323  0.00  0.00    +0.000 C 
ATOM     13  C   UNL     1      45.333   3.681   8.711  0.00  0.00    +0.000 A 
ATOM     14  C   UNL     1      44.635   2.675   9.374  0.00  0.00    +0.000 A 
ATOM     15  C   UNL     1      44.163   2.918  10.662  0.00  0.00    +0.000 A 
ATOM     16  C   UNL     1      44.405   4.154  11.253  0.00  0.00    +0.000 A 
ATOM     17  C   UNL     1      45.114   5.105  10.529  0.00  0.00    +0.000 A 
ATOM     18  N   UNL     1      45.580   4.893   9.266  0.00  0.00    +0.000 NA
ENDBRANCH   8  17
ENDBRANCH   7  10
ENDBRANCH   1   7
BRANCH   4  19
ATOM     19  C   UNL     1      49.341   7.427  17.453  0.00  0.00    +0.000 C 
BRANCH  19  20
ATOM     20  N   UNL     1      50.271   6.331  17.573  0.00  0.00    +0.000 N 
ATOM     21  C   UNL     1      50.780   5.951  18.793  0.00  0.00    +0.000 C 
ATOM     22  O   UNL     1      50.428   6.480  19.844  0.00  0.00    +0.000 OA
ATOM     23  H   UNL     1      50.747   6.041  16.726  0.00  0.00    +0.000 HD
BRANCH  21  24
ATOM     24  C   UNL     1      51.733   4.833  18.782  0.00  0.00    +0.000 A 
ATOM     25  C   UNL     1      52.973   4.963  19.397  0.00  0.00    +0.000 A 
ATOM     26  S   UNL     1      53.932   3.554  19.306  0.00  0.00    +0.000 S 
ATOM     27  C   UNL     1      52.743   2.734  18.407  0.00  0.00    +0.000 A 
ATOM     28  N   UNL     1      52.944   1.460  17.974  0.00  0.00    +0.000 NA
ATOM     29  C   UNL     1      51.961   0.968  17.293  0.00  0.00    +0.000 A 
ATOM     30  N   UNL     1      50.798   1.631  17.011  0.00  0.00    +0.000 N 
ATOM     31  C   UNL     1      50.542   2.910  17.444  0.00  0.00    +0.000 A 
ATOM     32  O   UNL     1      49.471   3.458  17.211  0.00  0.00    +0.000 OA
ATOM     33  C   UNL     1      51.619   3.516  18.203  0.00  0.00    +0.000 A 
ATOM     34  H   UNL     1      50.058   1.186  16.490  0.00  0.00    +0.000 HD
ENDBRANCH  21  24
ENDBRANCH  19  20
ENDBRANCH   4  19
TORSDOF 6
ENDMDL
