MODEL 1
REMARK VINA RESULT:    -7.930      0.000      0.000
REMARK INTER + INTRA:         -13.483
REMARK INTER:                 -12.335
REMARK INTRA:                  -1.148
REMARK UNBOUND:                -1.148
REMARK  Name = 
REMARK  10 active torsions:
REMARK  status: ('A' for Active; 'I' for Inactive)
REMARK    1  A    between atoms: N_1  and  C_2
REMARK    2  A    between atoms: C_2  and  C_3
REMARK    3  A    between atoms: C_3  and  C_4
REMARK    4  A    between atoms: C_3  and  N_11
REMARK    5  A    between atoms: C_4  and  C_5
REMARK    6  A    between atoms: N_11  and  C_12
REMARK    7  A    between atoms: C_12  and  C_13
REMARK    8  A    between atoms: C_16  and  C_17
REMARK    9  A    between atoms: C_17  and  N_18
REMARK   10  A    between atoms: C_19  and  C_21
REMARK                            x       y       z     vdW  Elec       q    Type
REMARK                         _______ _______ _______ _____ _____    ______ ____
ROOT
ATOM      1  C   UNL     1      46.700   4.582  13.737  0.00  0.00    +0.000 A 
ATOM      2  C   UNL     1      47.292   5.789  13.344  0.00  0.00    +0.000 A 
ATOM      3  C   UNL     1      48.145   6.478  14.210  0.00  0.00    +0.000 A 
ATOM      4  C   UNL     1      48.416   5.973  15.487  0.00  0.00    +0.000 A 
ATOM      5  C   UNL     1      47.790   4.789  15.895  0.00  0.00    +0.000 A 
ATOM      6  C   UNL     1      46.952   4.092  15.024  0.00  0.00    +0.000 A 
ENDROOT
BRANCH   1   7
ATOM      7  C   UNL     1      45.795   3.827  12.791  0.00  0.00    +0.000 C 
BRANCH   7   8
ATOM      8  N   UNL     1      44.466   4.430  12.741  0.00  0.00    +0.000 NA
ATOM      9  H   UNL     1      43.794   3.807  13.185  0.00  0.00    +0.000 HD
BRANCH   8  10
ATOM     10  C   UNL     1      43.986   4.756  11.384  0.00  0.00    +0.000 C 
BRANCH  10  11
ATOM     11  C   UNL     1      42.679   5.603  11.381  0.00  0.00    +0.000 C 
BRANCH  11  12
ATOM     12  N   UNL     1      42.838   7.039  11.144  0.00  0.00    +0.000 NA
ATOM     13  H   UNL     1      43.831   7.262  11.229  0.00  0.00    +0.000 HD
ATOM     14  H   UNL     1      42.388   7.550  11.902  0.00  0.00    +0.000 HD
ENDBRANCH  11  12
ENDBRANCH  10  11
BRANCH  10  15
ATOM     15  C   UNL     1      43.899   3.445  10.545  0.00  0.00    +0.000 C 
BRANCH  15  16
ATOM     16  C   UNL     1      44.775   3.212   9.325  0.00  0.00    +0.000 A 
ATOM     17  C   UNL     1      45.246   4.223   8.481  0.00  0.00    +0.000 A 
ATOM     18  C   UNL     1      46.253   3.960   7.548  0.00  0.00    +0.000 A 
ATOM     19  C   UNL     1      46.735   2.666   7.377  0.00  0.00    +0.000 A 
ATOM     20  C   UNL     1      46.170   1.623   8.104  0.00  0.00    +0.000 A 
ATOM     21  C   UNL     1      45.204   1.896   9.074  0.00  0.00    +0.000 A 
ENDBRANCH  15  16
ENDBRANCH  10  15
ENDBRANCH   8  10
ENDBRANCH   7   8
ENDBRANCH   1   7
BRANCH   4  22
ATOM     22  C   UNL     1      49.343   6.692  16.433  0.00  0.00    +0.000 C 
BRANCH  22  23
ATOM     23  N   UNL     1      50.404   5.825  16.878  0.00  0.00    +0.000 N 
ATOM     24  C   UNL     1      50.513   5.453  18.190  0.00  0.00    +0.000 C 
ATOM     25  O   UNL     1      49.715   5.807  19.047  0.00  0.00    +0.000 OA
ATOM     26  H   UNL     1      51.217   5.757  16.272  0.00  0.00    +0.000 HD
BRANCH  24  27
ATOM     27  C   UNL     1      51.618   4.533  18.501  0.00  0.00    +0.000 A 
ATOM     28  C   UNL     1      52.691   4.973  19.262  0.00  0.00    +0.000 A 
ATOM     29  S   UNL     1      53.856   3.763  19.561  0.00  0.00    +0.000 S 
ATOM     30  C   UNL     1      52.986   2.620  18.645  0.00  0.00    +0.000 A 
ATOM     31  N   UNL     1      53.459   1.362  18.466  0.00  0.00    +0.000 NA
ATOM     32  C   UNL     1      52.716   0.609  17.723  0.00  0.00    +0.000 A 
ATOM     33  N   UNL     1      51.532   1.009  17.152  0.00  0.00    +0.000 N 
ATOM     34  C   UNL     1      51.000   2.258  17.332  0.00  0.00    +0.000 A 
ATOM     35  O   UNL     1      49.913   2.563  16.850  0.00  0.00    +0.000 OA
ATOM     36  C   UNL     1      51.812   3.151  18.142  0.00  0.00    +0.000 A 
ATOM     37  H   UNL     1      50.986   0.367  16.593  0.00  0.00    +0.000 HD
ENDBRANCH  24  27
ENDBRANCH  22  23
ENDBRANCH   4  22
TORSDOF 10
ENDMDL
MODEL 2
REMARK VINA RESULT:    -7.924      2.754      3.703
REMARK INTER + INTRA:         -13.473
REMARK INTER:                 -12.881
REMARK INTRA:                  -0.591
REMARK UNBOUND:                -1.148
REMARK  Name = 
REMARK  10 active torsions:
REMARK  status: ('A' for Active; 'I' for Inactive)
REMARK    1  A    between atoms: N_1  and  C_2
REMARK    2  A    between atoms: C_2  and  C_3
REMARK    3  A    between atoms: C_3  and  C_4
REMARK    4  A    between atoms: C_3  and  N_11
REMARK    5  A    between atoms: C_4  and  C_5
REMARK    6  A    between atoms: N_11  and  C_12
REMARK    7  A    between atoms: C_12  and  C_13
REMARK    8  A    between atoms: C_16  and  C_17
REMARK    9  A    between atoms: C_17  and  N_18
REMARK   10  A    between atoms: C_19  and  C_21
REMARK                            x       y       z     vdW  Elec       q    Type
REMARK                         _______ _______ _______ _____ _____    ______ ____
ROOT
ATOM      1  C   UNL     1      44.193   6.228  11.902  0.00  0.00    +0.000 A 
ATOM      2  C   UNL     1      44.385   7.552  11.489  0.00  0.00    +0.000 A 
ATOM      3  C   UNL     1      45.443   8.310  11.997  0.00  0.00    +0.000 A 
ATOM      4  C   UNL     1      46.324   7.757  12.934  0.00  0.00    +0.000 A 
ATOM      5  C   UNL     1      46.105   6.447  13.379  0.00  0.00    +0.000 A 
ATOM      6  C   UNL     1      45.059   5.685  12.858  0.00  0.00    +0.000 A 
ENDROOT
BRANCH   1   7
ATOM      7  C   UNL     1      43.061   5.403  11.334  0.00  0.00    +0.000 C 
BRANCH   7   8
ATOM      8  N   UNL     1      43.294   5.087   9.929  0.00  0.00    +0.000 NA
ATOM      9  H   UNL     1      42.401   5.036   9.440  0.00  0.00    +0.000 HD
BRANCH   8  10
ATOM     10  C   UNL     1      44.036   3.833   9.692  0.00  0.00    +0.000 C 
BRANCH  10  11
ATOM     11  C   UNL     1      44.265   3.000  10.988  0.00  0.00    +0.000 C 
BRANCH  11  12
ATOM     12  N   UNL     1      43.190   2.080  11.365  0.00  0.00    +0.000 NA
ATOM     13  H   UNL     1      42.758   1.735  10.507  0.00  0.00    +0.000 HD
ATOM     14  H   UNL     1      42.455   2.607  11.835  0.00  0.00    +0.000 HD
ENDBRANCH  11  12
ENDBRANCH  10  11
BRANCH  10  15
ATOM     15  C   UNL     1      45.340   4.154   8.900  0.00  0.00    +0.000 C 
BRANCH  15  16
ATOM     16  C   UNL     1      45.988   3.138   7.974  0.00  0.00    +0.000 A 
ATOM     17  C   UNL     1      46.673   3.460   6.798  0.00  0.00    +0.000 A 
ATOM     18  C   UNL     1      47.462   2.505   6.148  0.00  0.00    +0.000 A 
ATOM     19  C   UNL     1      47.500   1.193   6.608  0.00  0.00    +0.000 A 
ATOM     20  C   UNL     1      46.706   0.821   7.689  0.00  0.00    +0.000 A 
ATOM     21  C   UNL     1      45.963   1.788   8.369  0.00  0.00    +0.000 A 
ENDBRANCH  15  16
ENDBRANCH  10  15
ENDBRANCH   8  10
ENDBRANCH   7   8
ENDBRANCH   1   7
BRANCH   4  22
ATOM     22  C   UNL     1      47.480   8.550  13.486  0.00  0.00    +0.000 C 
BRANCH  22  23
ATOM     23  N   UNL     1      47.846   8.088  14.800  0.00  0.00    +0.000 N 
ATOM     24  C   UNL     1      48.901   7.236  14.985  0.00  0.00    +0.000 C 
ATOM     25  O   UNL     1      49.603   6.842  14.063  0.00  0.00    +0.000 OA
ATOM     26  H   UNL     1      47.132   8.159  15.520  0.00  0.00    +0.000 HD
BRANCH  24  27
ATOM     27  C   UNL     1      49.191   6.875  16.381  0.00  0.00    +0.000 A 
ATOM     28  C   UNL     1      49.870   7.767  17.198  0.00  0.00    +0.000 A 
ATOM     29  S   UNL     1      50.079   7.204  18.795  0.00  0.00    +0.000 S 
ATOM     30  C   UNL     1      49.308   5.729  18.435  0.00  0.00    +0.000 A 
ATOM     31  N   UNL     1      49.180   4.760  19.375  0.00  0.00    +0.000 NA
ATOM     32  C   UNL     1      48.604   3.680  18.959  0.00  0.00    +0.000 A 
ATOM     33  N   UNL     1      48.136   3.493  17.681  0.00  0.00    +0.000 N 
ATOM     34  C   UNL     1      48.213   4.455  16.710  0.00  0.00    +0.000 A 
ATOM     35  O   UNL     1      47.735   4.273  15.593  0.00  0.00    +0.000 OA
ATOM     36  C   UNL     1      48.875   5.681  17.122  0.00  0.00    +0.000 A 
ATOM     37  H   UNL     1      47.678   2.630  17.420  0.00  0.00    +0.000 HD
ENDBRANCH  24  27
ENDBRANCH  22  23
ENDBRANCH   4  22
TORSDOF 10
ENDMDL
MODEL 3
REMARK VINA RESULT:    -7.794      1.605      2.195
REMARK INTER + INTRA:         -13.270
REMARK INTER:                 -12.206
REMARK INTRA:                  -1.064
REMARK UNBOUND:                -1.148
REMARK  Name = 
REMARK  10 active torsions:
REMARK  status: ('A' for Active; 'I' for Inactive)
REMARK    1  A    between atoms: N_1  and  C_2
REMARK    2  A    between atoms: C_2  and  C_3
REMARK    3  A    between atoms: C_3  and  C_4
REMARK    4  A    between atoms: C_3  and  N_11
REMARK    5  A    between atoms: C_4  and  C_5
REMARK    6  A    between atoms: N_11  and  C_12
REMARK    7  A    between atoms: C_12  and  C_13
REMARK    8  A    between atoms: C_16  and  C_17
REMARK    9  A    between atoms: C_17  and  N_18
REMARK   10  A    between atoms: C_19  and  C_21
REMARK                            x       y       z     vdW  Elec       q    Type
REMARK                         _______ _______ _______ _____ _____    ______ ____
ROOT
ATOM      1  C   UNL     1      46.428   6.241  11.977  0.00  0.00    +0.000 A 
ATOM      2  C   UNL     1      46.844   5.411  13.024  0.00  0.00    +0.000 A 
ATOM      3  C   UNL     1      47.590   5.926  14.088  0.00  0.00    +0.000 A 
ATOM      4  C   UNL     1      47.938   7.282  14.117  0.00  0.00    +0.000 A 
ATOM      5  C   UNL     1      47.558   8.102  13.047  0.00  0.00    +0.000 A 
ATOM      6  C   UNL     1      46.798   7.592  11.994  0.00  0.00    +0.000 A 
ENDROOT
BRANCH   1   7
ATOM      7  C   UNL     1      45.603   5.687  10.838  0.00  0.00    +0.000 C 
BRANCH   7   8
ATOM      8  N   UNL     1      45.578   4.228  10.869  0.00  0.00    +0.000 NA
ATOM      9  H   UNL     1      46.363   3.864  10.330  0.00  0.00    +0.000 HD
BRANCH   8  10
ATOM     10  C   UNL     1      44.333   3.620  10.359  0.00  0.00    +0.000 C 
BRANCH  10  11
ATOM     11  C   UNL     1      43.263   3.390  11.468  0.00  0.00    +0.000 C 
BRANCH  11  12
ATOM     12  N   UNL     1      42.969   1.996  11.806  0.00  0.00    +0.000 NA
ATOM     13  H   UNL     1      43.784   1.611  12.285  0.00  0.00    +0.000 HD
ATOM     14  H   UNL     1      42.893   1.457  10.944  0.00  0.00    +0.000 HD
ENDBRANCH  11  12
ENDBRANCH  10  11
BRANCH  10  15
ATOM     15  C   UNL     1      44.687   2.342   9.540  0.00  0.00    +0.000 C 
BRANCH  15  16
ATOM     16  C   UNL     1      45.599   2.394   8.325  0.00  0.00    +0.000 A 
ATOM     17  C   UNL     1      45.749   3.508   7.492  0.00  0.00    +0.000 A 
ATOM     18  C   UNL     1      46.794   3.568   6.564  0.00  0.00    +0.000 A 
ATOM     19  C   UNL     1      47.643   2.480   6.388  0.00  0.00    +0.000 A 
ATOM     20  C   UNL     1      47.414   1.309   7.104  0.00  0.00    +0.000 A 
ATOM     21  C   UNL     1      46.406   1.270   8.068  0.00  0.00    +0.000 A 
ENDBRANCH  15  16
ENDBRANCH  10  15
ENDBRANCH   8  10
ENDBRANCH   7   8
ENDBRANCH   1   7
BRANCH   4  22
ATOM     22  C   UNL     1      48.730   7.862  15.260  0.00  0.00    +0.000 C 
BRANCH  22  23
ATOM     23  N   UNL     1      49.730   6.935  15.722  0.00  0.00    +0.000 N 
ATOM     24  C   UNL     1      49.641   6.351  16.956  0.00  0.00    +0.000 C 
ATOM     25  O   UNL     1      48.708   6.558  17.720  0.00  0.00    +0.000 OA
ATOM     26  H   UNL     1      50.630   6.969  15.251  0.00  0.00    +0.000 HD
BRANCH  24  27
ATOM     27  C   UNL     1      50.708   5.393  17.286  0.00  0.00    +0.000 A 
ATOM     28  C   UNL     1      51.959   5.856  17.665  0.00  0.00    +0.000 A 
ATOM     29  S   UNL     1      53.058   4.609  18.053  0.00  0.00    +0.000 S 
ATOM     30  C   UNL     1      51.909   3.406  17.683  0.00  0.00    +0.000 A 
ATOM     31  N   UNL     1      52.223   2.090  17.773  0.00  0.00    +0.000 NA
ATOM     32  C   UNL     1      51.269   1.286  17.433  0.00  0.00    +0.000 A 
ATOM     33  N   UNL     1      50.023   1.691  17.019  0.00  0.00    +0.000 N 
ATOM     34  C   UNL     1      49.652   3.007  16.945  0.00  0.00    +0.000 A 
ATOM     35  O   UNL     1      48.512   3.330  16.623  0.00  0.00    +0.000 OA
ATOM     36  C   UNL     1      50.699   3.953  17.296  0.00  0.00    +0.000 A 
ATOM     37  H   UNL     1      49.312   1.012  16.782  0.00  0.00    +0.000 HD
ENDBRANCH  24  27
ENDBRANCH  22  23
ENDBRANCH   4  22
TORSDOF 10
ENDMDL
MODEL 4
REMARK VINA RESULT:    -7.771      2.887      3.770
REMARK INTER + INTRA:         -13.234
REMARK INTER:                 -12.496
REMARK INTRA:                  -0.739
REMARK UNBOUND:                -1.148
REMARK  Name = 
REMARK  10 active torsions:
REMARK  status: ('A' for Active; 'I' for Inactive)
REMARK    1  A    between atoms: N_1  and  C_2
REMARK    2  A    between atoms: C_2  and  C_3
REMARK    3  A    between atoms: C_3  and  C_4
REMARK    4  A    between atoms: C_3  and  N_11
REMARK    5  A    between atoms: C_4  and  C_5
REMARK    6  A    between atoms: N_11  and  C_12
REMARK    7  A    between atoms: C_12  and  C_13
REMARK    8  A    between atoms: C_16  and  C_17
REMARK    9  A    between atoms: C_17  and  N_18
REMARK   10  A    between atoms: C_19  and  C_21
REMARK                            x       y       z     vdW  Elec       q    Type
REMARK                         _______ _______ _______ _____ _____    ______ ____
ROOT
ATOM      1  C   UNL     1      45.027   6.370  11.692  0.00  0.00    +0.000 A 
ATOM      2  C   UNL     1      44.936   7.700  12.120  0.00  0.00    +0.000 A 
ATOM      3  C   UNL     1      45.994   8.301  12.806  0.00  0.00    +0.000 A 
ATOM      4  C   UNL     1      47.160   7.577  13.082  0.00  0.00    +0.000 A 
ATOM      5  C   UNL     1      47.233   6.234  12.693  0.00  0.00    +0.000 A 
ATOM      6  C   UNL     1      46.184   5.639  11.991  0.00  0.00    +0.000 A 
ENDROOT
BRANCH   1   7
ATOM      7  C   UNL     1      43.890   5.728  10.930  0.00  0.00    +0.000 C 
BRANCH   7   8
ATOM      8  N   UNL     1      44.391   4.867   9.864  0.00  0.00    +0.000 NA
ATOM      9  H   UNL     1      44.006   5.172   8.971  0.00  0.00    +0.000 HD
BRANCH   8  10
ATOM     10  C   UNL     1      44.097   3.431  10.040  0.00  0.00    +0.000 C 
BRANCH  10  11
ATOM     11  C   UNL     1      43.451   3.100  11.418  0.00  0.00    +0.000 C 
BRANCH  11  12
ATOM     12  N   UNL     1      42.959   1.732  11.591  0.00  0.00    +0.000 NA
ATOM     13  H   UNL     1      43.653   1.097  11.193  0.00  0.00    +0.000 HD
ATOM     14  H   UNL     1      42.127   1.605  11.016  0.00  0.00    +0.000 HD
ENDBRANCH  11  12
ENDBRANCH  10  11
BRANCH  10  15
ATOM     15  C   UNL     1      45.380   2.604   9.721  0.00  0.00    +0.000 C 
BRANCH  15  16
ATOM     16  C   UNL     1      45.885   2.421   8.300  0.00  0.00    +0.000 A 
ATOM     17  C   UNL     1      45.840   3.407   7.308  0.00  0.00    +0.000 A 
ATOM     18  C   UNL     1      46.559   3.254   6.118  0.00  0.00    +0.000 A 
ATOM     19  C   UNL     1      47.253   2.076   5.861  0.00  0.00    +0.000 A 
ATOM     20  C   UNL     1      47.184   1.027   6.773  0.00  0.00    +0.000 A 
ATOM     21  C   UNL     1      46.513   1.202   7.984  0.00  0.00    +0.000 A 
ENDBRANCH  15  16
ENDBRANCH  10  15
ENDBRANCH   8  10
ENDBRANCH   7   8
ENDBRANCH   1   7
BRANCH   4  22
ATOM     22  C   UNL     1      48.320   8.207  13.809  0.00  0.00    +0.000 C 
BRANCH  22  23
ATOM     23  N   UNL     1      48.193   8.039  15.234  0.00  0.00    +0.000 N 
ATOM     24  C   UNL     1      49.033   7.212  15.929  0.00  0.00    +0.000 C 
ATOM     25  O   UNL     1      49.945   6.595  15.396  0.00  0.00    +0.000 OA
ATOM     26  H   UNL     1      47.298   8.296  15.642  0.00  0.00    +0.000 HD
BRANCH  24  27
ATOM     27  C   UNL     1      48.819   7.163  17.384  0.00  0.00    +0.000 A 
ATOM     28  C   UNL     1      48.564   8.333  18.084  0.00  0.00    +0.000 A 
ATOM     29  S   UNL     1      48.296   8.085  19.750  0.00  0.00    +0.000 S 
ATOM     30  C   UNL     1      48.557   6.409  19.600  0.00  0.00    +0.000 A 
ATOM     31  N   UNL     1      48.508   5.594  20.682  0.00  0.00    +0.000 NA
ATOM     32  C   UNL     1      48.757   4.350  20.431  0.00  0.00    +0.000 A 
ATOM     33  N   UNL     1      49.041   3.853  19.183  0.00  0.00    +0.000 N 
ATOM     34  C   UNL     1      49.068   4.632  18.057  0.00  0.00    +0.000 A 
ATOM     35  O   UNL     1      49.272   4.144  16.949  0.00  0.00    +0.000 OA
ATOM     36  C   UNL     1      48.818   6.044  18.291  0.00  0.00    +0.000 A 
ATOM     37  H   UNL     1      49.210   2.865  19.047  0.00  0.00    +0.000 HD
ENDBRANCH  24  27
ENDBRANCH  22  23
ENDBRANCH   4  22
TORSDOF 10
ENDMDL
MODEL 5
REMARK VINA RESULT:    -7.755      3.033      4.380
REMARK INTER + INTRA:         -13.211
REMARK INTER:                 -12.284
REMARK INTRA:                  -0.927
REMARK UNBOUND:                -1.148
REMARK  Name = 
REMARK  10 active torsions:
REMARK  status: ('A' for Active; 'I' for Inactive)
REMARK    1  A    between atoms: N_1  and  C_2
REMARK    2  A    between atoms: C_2  and  C_3
REMARK    3  A    between atoms: C_3  and  C_4
REMARK    4  A    between atoms: C_3  and  N_11
REMARK    5  A    between atoms: C_4  and  C_5
REMARK    6  A    between atoms: N_11  and  C_12
REMARK    7  A    between atoms: C_12  and  C_13
REMARK    8  A    between atoms: C_16  and  C_17
REMARK    9  A    between atoms: C_17  and  N_18
REMARK   10  A    between atoms: C_19  and  C_21
REMARK                            x       y       z     vdW  Elec       q    Type
REMARK                         _______ _______ _______ _____ _____    ______ ____
ROOT
ATOM      1  C   UNL     1      45.581   6.149  12.024  0.00  0.00    +0.000 A 
ATOM      2  C   UNL     1      46.180   5.125  12.768  0.00  0.00    +0.000 A 
ATOM      3  C   UNL     1      47.254   5.398  13.619  0.00  0.00    +0.000 A 
ATOM      4  C   UNL     1      47.751   6.702  13.735  0.00  0.00    +0.000 A 
ATOM      5  C   UNL     1      47.180   7.717  12.957  0.00  0.00    +0.000 A 
ATOM      6  C   UNL     1      46.096   7.448  12.121  0.00  0.00    +0.000 A 
ENDROOT
BRANCH   1   7
ATOM      7  C   UNL     1      44.406   5.856  11.120  0.00  0.00    +0.000 C 
BRANCH   7   8
ATOM      8  N   UNL     1      44.785   4.949  10.041  0.00  0.00    +0.000 NA
ATOM      9  H   UNL     1      44.630   5.405   9.143  0.00  0.00    +0.000 HD
BRANCH   8  10
ATOM     10  C   UNL     1      44.075   3.654  10.044  0.00  0.00    +0.000 C 
BRANCH  10  11
ATOM     11  C   UNL     1      43.265   3.401  11.349  0.00  0.00    +0.000 C 
BRANCH  11  12
ATOM     12  N   UNL     1      42.968   2.002  11.666  0.00  0.00    +0.000 NA
ATOM     13  H   UNL     1      43.704   1.425  11.257  0.00  0.00    +0.000 HD
ATOM     14  H   UNL     1      42.117   1.727  11.177  0.00  0.00    +0.000 HD
ENDBRANCH  11  12
ENDBRANCH  10  11
BRANCH  10  15
ATOM     15  C   UNL     1      45.082   2.519   9.687  0.00  0.00    +0.000 C 
BRANCH  15  16
ATOM     16  C   UNL     1      45.747   2.435   8.323  0.00  0.00    +0.000 A 
ATOM     17  C   UNL     1      45.744   3.462   7.373  0.00  0.00    +0.000 A 
ATOM     18  C   UNL     1      46.594   3.410   6.264  0.00  0.00    +0.000 A 
ATOM     19  C   UNL     1      47.387   2.289   6.036  0.00  0.00    +0.000 A 
ATOM     20  C   UNL     1      47.290   1.196   6.891  0.00  0.00    +0.000 A 
ATOM     21  C   UNL     1      46.482   1.272   8.028  0.00  0.00    +0.000 A 
ENDBRANCH  15  16
ENDBRANCH  10  15
ENDBRANCH   8  10
ENDBRANCH   7   8
ENDBRANCH   1   7
BRANCH   4  22
ATOM     22  C   UNL     1      48.899   7.023  14.656  0.00  0.00    +0.000 C 
BRANCH  22  23
ATOM     23  N   UNL     1      48.556   6.749  16.028  0.00  0.00    +0.000 N 
ATOM     24  C   UNL     1      49.432   6.112  16.866  0.00  0.00    +0.000 C 
ATOM     25  O   UNL     1      50.551   5.766  16.513  0.00  0.00    +0.000 OA
ATOM     26  H   UNL     1      47.566   6.759  16.257  0.00  0.00    +0.000 HD
BRANCH  24  27
ATOM     27  C   UNL     1      48.970   5.932  18.250  0.00  0.00    +0.000 A 
ATOM     28  C   UNL     1      49.056   4.684  18.850  0.00  0.00    +0.000 A 
ATOM     29  S   UNL     1      48.519   4.668  20.470  0.00  0.00    +0.000 S 
ATOM     30  C   UNL     1      48.111   6.321  20.409  0.00  0.00    +0.000 A 
ATOM     31  N   UNL     1      47.556   6.944  21.478  0.00  0.00    +0.000 NA
ATOM     32  C   UNL     1      47.266   8.188  21.285  0.00  0.00    +0.000 A 
ATOM     33  N   UNL     1      47.495   8.865  20.111  0.00  0.00    +0.000 N 
ATOM     34  C   UNL     1      48.083   8.287  19.018  0.00  0.00    +0.000 A 
ATOM     35  O   UNL     1      48.321   8.937  18.004  0.00  0.00    +0.000 OA
ATOM     36  C   UNL     1      48.406   6.879  19.178  0.00  0.00    +0.000 A 
ATOM     37  H   UNL     1      47.262   9.846  20.027  0.00  0.00    +0.000 HD
ENDBRANCH  24  27
ENDBRANCH  22  23
ENDBRANCH   4  22
TORSDOF 10
ENDMDL
MODEL 6
REMARK VINA RESULT:    -7.476      3.381      5.320
REMARK INTER + INTRA:         -12.777
REMARK INTER:                 -11.532
REMARK INTRA:                  -1.245
REMARK UNBOUND:                -1.148
REMARK  Name = 
REMARK  10 active torsions:
REMARK  status: ('A' for Active; 'I' for Inactive)
REMARK    1  A    between atoms: N_1  and  C_2
REMARK    2  A    between atoms: C_2  and  C_3
REMARK    3  A    between atoms: C_3  and  C_4
REMARK    4  A    between atoms: C_3  and  N_11
REMARK    5  A    between atoms: C_4  and  C_5
REMARK    6  A    between atoms: N_11  and  C_12
REMARK    7  A    between atoms: C_12  and  C_13
REMARK    8  A    between atoms: C_16  and  C_17
REMARK    9  A    between atoms: C_17  and  N_18
REMARK   10  A    between atoms: C_19  and  C_21
REMARK                            x       y       z     vdW  Elec       q    Type
REMARK                         _______ _______ _______ _____ _____    ______ ____
ROOT
ATOM      1  C   UNL     1      46.958   5.509  13.550  0.00  0.00    +0.000 A 
ATOM      2  C   UNL     1      46.718   4.449  14.433  0.00  0.00    +0.000 A 
ATOM      3  C   UNL     1      47.356   4.398  15.675  0.00  0.00    +0.000 A 
ATOM      4  C   UNL     1      48.252   5.405  16.052  0.00  0.00    +0.000 A 
ATOM      5  C   UNL     1      48.525   6.442  15.151  0.00  0.00    +0.000 A 
ATOM      6  C   UNL     1      47.874   6.503  13.919  0.00  0.00    +0.000 A 
ENDROOT
BRANCH   1   7
ATOM      7  C   UNL     1      46.250   5.575  12.217  0.00  0.00    +0.000 C 
BRANCH   7   8
ATOM      8  N   UNL     1      45.220   4.546  12.117  0.00  0.00    +0.000 NA
ATOM      9  H   UNL     1      45.652   3.654  11.879  0.00  0.00    +0.000 HD
BRANCH   8  10
ATOM     10  C   UNL     1      44.153   4.831  11.137  0.00  0.00    +0.000 C 
BRANCH  10  11
ATOM     11  C   UNL     1      42.860   5.407  11.786  0.00  0.00    +0.000 C 
BRANCH  11  12
ATOM     12  N   UNL     1      42.843   5.473  13.249  0.00  0.00    +0.000 NA
ATOM     13  H   UNL     1      42.284   4.690  13.592  0.00  0.00    +0.000 HD
ATOM     14  H   UNL     1      42.331   6.306  13.535  0.00  0.00    +0.000 HD
ENDBRANCH  11  12
ENDBRANCH  10  11
BRANCH  10  15
ATOM     15  C   UNL     1      43.918   3.567  10.257  0.00  0.00    +0.000 C 
BRANCH  15  16
ATOM     16  C   UNL     1      44.849   3.200   9.113  0.00  0.00    +0.000 A 
ATOM     17  C   UNL     1      45.431   4.121   8.235  0.00  0.00    +0.000 A 
ATOM     18  C   UNL     1      46.474   3.737   7.387  0.00  0.00    +0.000 A 
ATOM     19  C   UNL     1      46.885   2.409   7.334  0.00  0.00    +0.000 A 
ATOM     20  C   UNL     1      46.216   1.453   8.091  0.00  0.00    +0.000 A 
ATOM     21  C   UNL     1      45.212   1.847   8.978  0.00  0.00    +0.000 A 
ENDBRANCH  15  16
ENDBRANCH  10  15
ENDBRANCH   8  10
ENDBRANCH   7   8
ENDBRANCH   1   7
BRANCH   4  22
ATOM     22  C   UNL     1      48.942   5.378  17.391  0.00  0.00    +0.000 C 
BRANCH  22  23
ATOM     23  N   UNL     1      48.744   6.615  18.102  0.00  0.00    +0.000 N 
ATOM     24  C   UNL     1      47.658   6.803  18.913  0.00  0.00    +0.000 C 
ATOM     25  O   UNL     1      46.816   5.936  19.102  0.00  0.00    +0.000 OA
ATOM     26  H   UNL     1      49.248   7.425  17.750  0.00  0.00    +0.000 HD
BRANCH  24  27
ATOM     27  C   UNL     1      47.600   8.097  19.611  0.00  0.00    +0.000 A 
ATOM     28  C   UNL     1      47.486   8.132  20.992  0.00  0.00    +0.000 A 
ATOM     29  S   UNL     1      47.478   9.713  21.635  0.00  0.00    +0.000 S 
ATOM     30  C   UNL     1      47.583  10.405  20.082  0.00  0.00    +0.000 A 
ATOM     31  N   UNL     1      47.585  11.750  19.915  0.00  0.00    +0.000 NA
ATOM     32  C   UNL     1      47.636  12.139  18.683  0.00  0.00    +0.000 A 
ATOM     33  N   UNL     1      47.694  11.292  17.604  0.00  0.00    +0.000 N 
ATOM     34  C   UNL     1      47.728   9.928  17.726  0.00  0.00    +0.000 A 
ATOM     35  O   UNL     1      47.835   9.203  16.741  0.00  0.00    +0.000 OA
ATOM     36  C   UNL     1      47.649   9.440  19.092  0.00  0.00    +0.000 A 
ATOM     37  H   UNL     1      47.750  11.657  16.662  0.00  0.00    +0.000 HD
ENDBRANCH  24  27
ENDBRANCH  22  23
ENDBRANCH   4  22
TORSDOF 10
ENDMDL
MODEL 7
REMARK VINA RESULT:    -7.442      2.209      3.261
REMARK INTER + INTRA:         -12.723
REMARK INTER:                 -10.714
REMARK INTRA:                  -2.009
REMARK UNBOUND:                -1.148
REMARK  Name = 
REMARK  10 active torsions:
REMARK  status: ('A' for Active; 'I' for Inactive)
REMARK    1  A    between atoms: N_1  and  C_2
REMARK    2  A    between atoms: C_2  and  C_3
REMARK    3  A    between atoms: C_3  and  C_4
REMARK    4  A    between atoms: C_3  and  N_11
REMARK    5  A    between atoms: C_4  and  C_5
REMARK    6  A    between atoms: N_11  and  C_12
REMARK    7  A    between atoms: C_12  and  C_13
REMARK    8  A    between atoms: C_16  and  C_17
REMARK    9  A    between atoms: C_17  and  N_18
REMARK   10  A    between atoms: C_19  and  C_21
REMARK                            x       y       z     vdW  Elec       q    Type
REMARK                         _______ _______ _______ _____ _____    ______ ____
ROOT
ATOM      1  C   UNL     1      45.710   7.355  11.895  0.00  0.00    +0.000 A 
ATOM      2  C   UNL     1      46.821   6.672  11.385  0.00  0.00    +0.000 A 
ATOM      3  C   UNL     1      48.112   6.993  11.812  0.00  0.00    +0.000 A 
ATOM      4  C   UNL     1      48.313   8.011  12.753  0.00  0.00    +0.000 A 
ATOM      5  C   UNL     1      47.205   8.722  13.229  0.00  0.00    +0.000 A 
ATOM      6  C   UNL     1      45.915   8.389  12.816  0.00  0.00    +0.000 A 
ENDROOT
BRANCH   1   7
ATOM      7  C   UNL     1      44.313   6.991  11.448  0.00  0.00    +0.000 C 
BRANCH   7   8
ATOM      8  N   UNL     1      43.690   6.056  12.380  0.00  0.00    +0.000 NA
ATOM      9  H   UNL     1      44.128   6.148  13.296  0.00  0.00    +0.000 HD
BRANCH   8  10
ATOM     10  C   UNL     1      43.748   4.640  11.967  0.00  0.00    +0.000 C 
BRANCH  10  11
ATOM     11  C   UNL     1      44.967   3.876  12.563  0.00  0.00    +0.000 C 
BRANCH  11  12
ATOM     12  N   UNL     1      45.489   4.379  13.835  0.00  0.00    +0.000 NA
ATOM     13  H   UNL     1      46.218   3.737  14.151  0.00  0.00    +0.000 HD
ATOM     14  H   UNL     1      44.757   4.313  14.541  0.00  0.00    +0.000 HD
ENDBRANCH  11  12
ENDBRANCH  10  11
BRANCH  10  15
ATOM     15  C   UNL     1      43.639   4.556  10.415  0.00  0.00    +0.000 C 
BRANCH  15  16
ATOM     16  C   UNL     1      44.657   3.800   9.577  0.00  0.00    +0.000 A 
ATOM     17  C   UNL     1      44.793   2.407   9.560  0.00  0.00    +0.000 A 
ATOM     18  C   UNL     1      45.561   1.778   8.575  0.00  0.00    +0.000 A 
ATOM     19  C   UNL     1      46.281   2.534   7.655  0.00  0.00    +0.000 A 
ATOM     20  C   UNL     1      46.275   3.922   7.753  0.00  0.00    +0.000 A 
ATOM     21  C   UNL     1      45.464   4.548   8.701  0.00  0.00    +0.000 A 
ENDBRANCH  15  16
ENDBRANCH  10  15
ENDBRANCH   8  10
ENDBRANCH   7   8
ENDBRANCH   1   7
BRANCH   4  22
ATOM     22  C   UNL     1      49.695   8.366  13.238  0.00  0.00    +0.000 C 
BRANCH  22  23
ATOM     23  N   UNL     1      50.109   7.496  14.308  0.00  0.00    +0.000 N 
ATOM     24  C   UNL     1      49.964   7.862  15.619  0.00  0.00    +0.000 C 
ATOM     25  O   UNL     1      49.458   8.924  15.957  0.00  0.00    +0.000 OA
ATOM     26  H   UNL     1      50.774   6.766  14.066  0.00  0.00    +0.000 HD
BRANCH  24  27
ATOM     27  C   UNL     1      50.390   6.863  16.610  0.00  0.00    +0.000 A 
ATOM     28  C   UNL     1      51.501   7.107  17.403  0.00  0.00    +0.000 A 
ATOM     29  S   UNL     1      51.823   5.863  18.526  0.00  0.00    +0.000 S 
ATOM     30  C   UNL     1      50.512   4.935  17.958  0.00  0.00    +0.000 A 
ATOM     31  N   UNL     1      50.243   3.713  18.481  0.00  0.00    +0.000 NA
ATOM     32  C   UNL     1      49.241   3.104  17.936  0.00  0.00    +0.000 A 
ATOM     33  N   UNL     1      48.480   3.622  16.916  0.00  0.00    +0.000 N 
ATOM     34  C   UNL     1      48.694   4.864  16.381  0.00  0.00    +0.000 A 
ATOM     35  O   UNL     1      47.959   5.317  15.508  0.00  0.00    +0.000 OA
ATOM     36  C   UNL     1      49.826   5.580  16.945  0.00  0.00    +0.000 A 
ATOM     37  H   UNL     1      47.696   3.104  16.543  0.00  0.00    +0.000 HD
ENDBRANCH  24  27
ENDBRANCH  22  23
ENDBRANCH   4  22
TORSDOF 10
ENDMDL
MODEL 8
REMARK VINA RESULT:    -7.245      4.169      9.403
REMARK INTER + INTRA:         -12.417
REMARK INTER:                  -9.262
REMARK INTRA:                  -3.155
REMARK UNBOUND:                -1.148
REMARK  Name = 
REMARK  10 active torsions:
REMARK  status: ('A' for Active; 'I' for Inactive)
REMARK    1  A    between atoms: N_1  and  C_2
REMARK    2  A    between atoms: C_2  and  C_3
REMARK    3  A    between atoms: C_3  and  C_4
REMARK    4  A    between atoms: C_3  and  N_11
REMARK    5  A    between atoms: C_4  and  C_5
REMARK    6  A    between atoms: N_11  and  C_12
REMARK    7  A    between atoms: C_12  and  C_13
REMARK    8  A    between atoms: C_16  and  C_17
REMARK    9  A    between atoms: C_17  and  N_18
REMARK   10  A    between atoms: C_19  and  C_21
REMARK                            x       y       z     vdW  Elec       q    Type
REMARK                         _______ _______ _______ _____ _____    ______ ____
ROOT
ATOM      1  C   UNL     1      48.530   5.504  20.088  0.00  0.00    +0.000 A 
ATOM      2  C   UNL     1      49.253   4.412  19.592  0.00  0.00    +0.000 A 
ATOM      3  C   UNL     1      48.849   3.763  18.423  0.00  0.00    +0.000 A 
ATOM      4  C   UNL     1      47.708   4.192  17.733  0.00  0.00    +0.000 A 
ATOM      5  C   UNL     1      46.961   5.255  18.254  0.00  0.00    +0.000 A 
ATOM      6  C   UNL     1      47.374   5.915  19.411  0.00  0.00    +0.000 A 
ENDROOT
BRANCH   1   7
ATOM      7  C   UNL     1      48.980   6.219  21.341  0.00  0.00    +0.000 C 
BRANCH   7   8
ATOM      8  N   UNL     1      50.213   6.964  21.106  0.00  0.00    +0.000 NA
ATOM      9  H   UNL     1      50.872   6.777  21.860  0.00  0.00    +0.000 HD
BRANCH   8  10
ATOM     10  C   UNL     1      50.038   8.425  20.984  0.00  0.00    +0.000 C 
BRANCH  10  11
ATOM     11  C   UNL     1      48.562   8.885  21.174  0.00  0.00    +0.000 C 
BRANCH  11  12
ATOM     12  N   UNL     1      48.235  10.229  20.693  0.00  0.00    +0.000 NA
ATOM     13  H   UNL     1      47.576  10.133  19.919  0.00  0.00    +0.000 HD
ATOM     14  H   UNL     1      49.068  10.642  20.277  0.00  0.00    +0.000 HD
ENDBRANCH  11  12
ENDBRANCH  10  11
BRANCH  10  15
ATOM     15  C   UNL     1      50.690   8.907  19.653  0.00  0.00    +0.000 C 
BRANCH  15  16
ATOM     16  C   UNL     1      50.439   8.199  18.332  0.00  0.00    +0.000 A 
ATOM     17  C   UNL     1      51.224   7.156  17.829  0.00  0.00    +0.000 A 
ATOM     18  C   UNL     1      50.780   6.385  16.750  0.00  0.00    +0.000 A 
ATOM     19  C   UNL     1      49.593   6.705  16.098  0.00  0.00    +0.000 A 
ATOM     20  C   UNL     1      48.876   7.831  16.492  0.00  0.00    +0.000 A 
ATOM     21  C   UNL     1      49.293   8.566  17.604  0.00  0.00    +0.000 A 
ENDBRANCH  15  16
ENDBRANCH  10  15
ENDBRANCH   8  10
ENDBRANCH   7   8
ENDBRANCH   1   7
BRANCH   4  22
ATOM     22  C   UNL     1      47.261   3.515  16.463  0.00  0.00    +0.000 C 
BRANCH  22  23
ATOM     23  N   UNL     1      46.661   4.460  15.556  0.00  0.00    +0.000 N 
ATOM     24  C   UNL     1      46.840   4.358  14.203  0.00  0.00    +0.000 C 
ATOM     25  O   UNL     1      47.490   3.459  13.688  0.00  0.00    +0.000 OA
ATOM     26  H   UNL     1      46.373   5.349  15.955  0.00  0.00    +0.000 HD
BRANCH  24  27
ATOM     27  C   UNL     1      46.138   5.363  13.391  0.00  0.00    +0.000 A 
ATOM     28  C   UNL     1      46.739   6.587  13.134  0.00  0.00    +0.000 A 
ATOM     29  S   UNL     1      45.803   7.610  12.140  0.00  0.00    +0.000 S 
ATOM     30  C   UNL     1      44.541   6.469  12.057  0.00  0.00    +0.000 A 
ATOM     31  N   UNL     1      43.401   6.737  11.375  0.00  0.00    +0.000 NA
ATOM     32  C   UNL     1      42.514   5.797  11.421  0.00  0.00    +0.000 A 
ATOM     33  N   UNL     1      42.678   4.606  12.085  0.00  0.00    +0.000 N 
ATOM     34  C   UNL     1      43.826   4.279  12.758  0.00  0.00    +0.000 A 
ATOM     35  O   UNL     1      43.958   3.183  13.296  0.00  0.00    +0.000 OA
ATOM     36  C   UNL     1      44.845   5.314  12.757  0.00  0.00    +0.000 A 
ATOM     37  H   UNL     1      41.953   3.902  12.070  0.00  0.00    +0.000 HD
ENDBRANCH  24  27
ENDBRANCH  22  23
ENDBRANCH   4  22
TORSDOF 10
ENDMDL
MODEL 9
REMARK VINA RESULT:    -7.178      5.195      8.265
REMARK INTER + INTRA:         -12.312
REMARK INTER:                 -11.168
REMARK INTRA:                  -1.145
REMARK UNBOUND:                -1.148
REMARK  Name = 
REMARK  10 active torsions:
REMARK  status: ('A' for Active; 'I' for Inactive)
REMARK    1  A    between atoms: N_1  and  C_2
REMARK    2  A    between atoms: C_2  and  C_3
REMARK    3  A    between atoms: C_3  and  C_4
REMARK    4  A    between atoms: C_3  and  N_11
REMARK    5  A    between atoms: C_4  and  C_5
REMARK    6  A    between atoms: N_11  and  C_12
REMARK    7  A    between atoms: C_12  and  C_13
REMARK    8  A    between atoms: C_16  and  C_17
REMARK    9  A    between atoms: C_17  and  N_18
REMARK   10  A    between atoms: C_19  and  C_21
REMARK                            x       y       z     vdW  Elec       q    Type
REMARK                         _______ _______ _______ _____ _____    ______ ____
ROOT
ATOM      1  C   UNL     1      46.758   1.752   6.812  0.00  0.00    +0.000 A 
ATOM      2  C   UNL     1      46.675   3.100   6.444  0.00  0.00    +0.000 A 
ATOM      3  C   UNL     1      46.067   4.032   7.288  0.00  0.00    +0.000 A 
ATOM      4  C   UNL     1      45.525   3.629   8.515  0.00  0.00    +0.000 A 
ATOM      5  C   UNL     1      45.570   2.273   8.862  0.00  0.00    +0.000 A 
ATOM      6  C   UNL     1      46.193   1.345   8.027  0.00  0.00    +0.000 A 
ENDROOT
BRANCH   1   7
ATOM      7  C   UNL     1      47.436   0.749   5.908  0.00  0.00    +0.000 C 
BRANCH   7   8
ATOM      8  N   UNL     1      47.504   1.241   4.535  0.00  0.00    +0.000 NA
ATOM      9  H   UNL     1      47.020   2.135   4.471  0.00  0.00    +0.000 HD
BRANCH   8  10
ATOM     10  C   UNL     1      46.944   0.325   3.522  0.00  0.00    +0.000 C 
BRANCH  10  11
ATOM     11  C   UNL     1      45.756   0.943   2.726  0.00  0.00    +0.000 C 
BRANCH  11  12
ATOM     12  N   UNL     1      44.823  -0.005   2.114  0.00  0.00    +0.000 NA
ATOM     13  H   UNL     1      44.835  -0.861   2.672  0.00  0.00    +0.000 HD
ATOM     14  H   UNL     1      45.185  -0.282   1.202  0.00  0.00    +0.000 HD
ENDBRANCH  11  12
ENDBRANCH  10  11
BRANCH  10  15
ATOM     15  C   UNL     1      46.619  -1.043   4.194  0.00  0.00    +0.000 C 
BRANCH  15  16
ATOM     16  C   UNL     1      47.028  -2.365   3.565  0.00  0.00    +0.000 A 
ATOM     17  C   UNL     1      47.791  -2.487   2.399  0.00  0.00    +0.000 A 
ATOM     18  C   UNL     1      48.346  -3.717   2.036  0.00  0.00    +0.000 A 
ATOM     19  C   UNL     1      48.069  -4.861   2.777  0.00  0.00    +0.000 A 
ATOM     20  C   UNL     1      47.190  -4.784   3.854  0.00  0.00    +0.000 A 
ATOM     21  C   UNL     1      46.681  -3.545   4.248  0.00  0.00    +0.000 A 
ENDBRANCH  15  16
ENDBRANCH  10  15
ENDBRANCH   8  10
ENDBRANCH   7   8
ENDBRANCH   1   7
BRANCH   4  22
ATOM     22  C   UNL     1      44.876   4.618   9.448  0.00  0.00    +0.000 C 
BRANCH  22  23
ATOM     23  N   UNL     1      45.784   5.021  10.490  0.00  0.00    +0.000 N 
ATOM     24  C   UNL     1      45.509   6.091  11.299  0.00  0.00    +0.000 C 
ATOM     25  O   UNL     1      44.479   6.744  11.203  0.00  0.00    +0.000 OA
ATOM     26  H   UNL     1      46.743   4.695  10.406  0.00  0.00    +0.000 HD
BRANCH  24  27
ATOM     27  C   UNL     1      46.501   6.367  12.348  0.00  0.00    +0.000 A 
ATOM     28  C   UNL     1      47.300   7.497  12.263  0.00  0.00    +0.000 A 
ATOM     29  S   UNL     1      48.361   7.684  13.586  0.00  0.00    +0.000 S 
ATOM     30  C   UNL     1      47.817   6.234  14.297  0.00  0.00    +0.000 A 
ATOM     31  N   UNL     1      48.352   5.782  15.458  0.00  0.00    +0.000 NA
ATOM     32  C   UNL     1      47.871   4.655  15.868  0.00  0.00    +0.000 A 
ATOM     33  N   UNL     1      46.891   3.946  15.217  0.00  0.00    +0.000 N 
ATOM     34  C   UNL     1      46.299   4.381  14.061  0.00  0.00    +0.000 A 
ATOM     35  O   UNL     1      45.388   3.747  13.535  0.00  0.00    +0.000 OA
ATOM     36  C   UNL     1      46.823   5.634  13.546  0.00  0.00    +0.000 A 
ATOM     37  H   UNL     1      46.543   3.077  15.598  0.00  0.00    +0.000 HD
ENDBRANCH  24  27
ENDBRANCH  22  23
ENDBRANCH   4  22
TORSDOF 10
ENDMDL
