MODEL 1
REMARK VINA RESULT:    -7.939      0.000      0.000
REMARK INTER + INTRA:         -11.853
REMARK INTER:                 -10.724
REMARK INTRA:                  -1.129
REMARK UNBOUND:                -1.129
REMARK  Name = 
REMARK  7 active torsions:
REMARK  status: ('A' for Active; 'I' for Inactive)
REMARK    1  A    between atoms: C_1  and  C_2
REMARK    2  A    between atoms: C_6  and  C_7
REMARK    3  A    between atoms: N_9  and  C_10
REMARK    4  A    between atoms: C_10  and  C_11
REMARK    5  A    between atoms: C_14  and  C_15
REMARK    6  A    between atoms: C_15  and  N_16
REMARK    7  A    between atoms: C_17  and  C_19
REMARK                            x       y       z     vdW  Elec       q    Type
REMARK                         _______ _______ _______ _____ _____    ______ ____
ROOT
ATOM      1  C   UNL     1      44.931   4.484  11.555  0.00  0.00    +0.000 A 
ATOM      2  C   UNL     1      45.332   5.730  12.041  0.00  0.00    +0.000 A 
ATOM      3  C   UNL     1      46.083   5.810  13.212  0.00  0.00    +0.000 A 
ATOM      4  C   UNL     1      46.396   4.639  13.895  0.00  0.00    +0.000 A 
ATOM      5  N   UNL     1      46.017   3.415  13.444  0.00  0.00    +0.000 NA
ATOM      6  C   UNL     1      45.303   3.367  12.294  0.00  0.00    +0.000 A 
ENDROOT
BRANCH   1   7
ATOM      7  C   UNL     1      44.134   4.352  10.292  0.00  0.00    +0.000 C 
BRANCH   7  10
ATOM      8  C   UNL     1      45.709   4.061   8.426  0.00  0.00    +0.000 C 
ATOM      9  O   UNL     1      46.036   5.243   8.415  0.00  0.00    +0.000 OA
ATOM     10  N   UNL     1      44.788   3.532   9.305  0.00  0.00    +0.000 N 
ATOM     11  H   UNL     1      44.592   2.537   9.225  0.00  0.00    +0.000 HD
BRANCH   8  17
ATOM     12  C   UNL     1      46.966  -0.541   7.487  0.00  0.00    +0.000 C 
ATOM     13  C   UNL     1      46.900   0.881   7.018  0.00  0.00    +0.000 A 
ATOM     14  C   UNL     1      47.380   1.237   5.758  0.00  0.00    +0.000 A 
ATOM     15  C   UNL     1      47.305   2.570   5.357  0.00  0.00    +0.000 A 
ATOM     16  C   UNL     1      46.758   3.510   6.221  0.00  0.00    +0.000 A 
ATOM     17  C   UNL     1      46.302   3.077   7.460  0.00  0.00    +0.000 A 
ATOM     18  N   UNL     1      46.361   1.779   7.878  0.00  0.00    +0.000 NA
ENDBRANCH   8  17
ENDBRANCH   7  10
ENDBRANCH   1   7
BRANCH   4  19
ATOM     19  C   UNL     1      47.186   4.693  15.180  0.00  0.00    +0.000 C 
BRANCH  19  20
ATOM     20  N   UNL     1      47.854   5.962  15.370  0.00  0.00    +0.000 N 
ATOM     21  C   UNL     1      49.018   6.087  16.078  0.00  0.00    +0.000 C 
ATOM     22  O   UNL     1      49.562   5.123  16.612  0.00  0.00    +0.000 OA
ATOM     23  H   UNL     1      47.313   6.786  15.125  0.00  0.00    +0.000 HD
BRANCH  21  24
ATOM     24  C   UNL     1      49.630   7.423  16.108  0.00  0.00    +0.000 A 
ATOM     25  C   UNL     1      49.926   8.013  17.332  0.00  0.00    +0.000 A 
ATOM     26  S   UNL     1      50.665   9.543  17.195  0.00  0.00    +0.000 S 
ATOM     27  C   UNL     1      50.580   9.493  15.497  0.00  0.00    +0.000 A 
ATOM     28  N   UNL     1      51.030  10.533  14.745  0.00  0.00    +0.000 NA
ATOM     29  C   UNL     1      50.873  10.377  13.472  0.00  0.00    +0.000 A 
ATOM     30  N   UNL     1      50.315   9.271  12.885  0.00  0.00    +0.000 N 
ATOM     31  C   UNL     1      49.901   8.175  13.598  0.00  0.00    +0.000 A 
ATOM     32  O   UNL     1      49.493   7.166  13.037  0.00  0.00    +0.000 OA
ATOM     33  C   UNL     1      50.018   8.314  15.040  0.00  0.00    +0.000 A 
ATOM     34  H   UNL     1      50.241   9.200  11.881  0.00  0.00    +0.000 HD
ENDBRANCH  21  24
ENDBRANCH  19  20
ENDBRANCH   4  19
TORSDOF 6
ENDMDL
MODEL 2
REMARK VINA RESULT:    -7.851      2.108      3.641
REMARK INTER + INTRA:         -11.733
REMARK INTER:                 -10.675
REMARK INTRA:                  -1.058
REMARK UNBOUND:                -1.129
REMARK  Name = 
REMARK  7 active torsions:
REMARK  status: ('A' for Active; 'I' for Inactive)
REMARK    1  A    between atoms: C_1  and  C_2
REMARK    2  A    between atoms: C_6  and  C_7
REMARK    3  A    between atoms: N_9  and  C_10
REMARK    4  A    between atoms: C_10  and  C_11
REMARK    5  A    between atoms: C_14  and  C_15
REMARK    6  A    between atoms: C_15  and  N_16
REMARK    7  A    between atoms: C_17  and  C_19
REMARK                            x       y       z     vdW  Elec       q    Type
REMARK                         _______ _______ _______ _____ _____    ______ ____
ROOT
ATOM      1  C   UNL     1      45.022   6.296  11.381  0.00  0.00    +0.000 A 
ATOM      2  C   UNL     1      44.696   7.618  11.693  0.00  0.00    +0.000 A 
ATOM      3  C   UNL     1      45.532   8.363  12.521  0.00  0.00    +0.000 A 
ATOM      4  C   UNL     1      46.670   7.762  13.050  0.00  0.00    +0.000 A 
ATOM      5  N   UNL     1      47.009   6.478  12.762  0.00  0.00    +0.000 NA
ATOM      6  C   UNL     1      46.186   5.784  11.941  0.00  0.00    +0.000 A 
ENDROOT
BRANCH   1   7
ATOM      7  C   UNL     1      44.157   5.464  10.483  0.00  0.00    +0.000 C 
BRANCH   7  10
ATOM      8  C   UNL     1      44.749   3.356   9.364  0.00  0.00    +0.000 C 
ATOM      9  O   UNL     1      43.958   2.692  10.025  0.00  0.00    +0.000 OA
ATOM     10  N   UNL     1      44.918   4.716   9.516  0.00  0.00    +0.000 N 
ATOM     11  H   UNL     1      45.604   5.166   8.915  0.00  0.00    +0.000 HD
BRANCH   8  17
ATOM     12  C   UNL     1      46.920  -0.661   7.691  0.00  0.00    +0.000 C 
ATOM     13  C   UNL     1      46.649   0.804   7.523  0.00  0.00    +0.000 A 
ATOM     14  C   UNL     1      47.194   1.508   6.450  0.00  0.00    +0.000 A 
ATOM     15  C   UNL     1      46.923   2.870   6.327  0.00  0.00    +0.000 A 
ATOM     16  C   UNL     1      46.121   3.492   7.274  0.00  0.00    +0.000 A 
ATOM     17  C   UNL     1      45.616   2.722   8.315  0.00  0.00    +0.000 A 
ATOM     18  N   UNL     1      45.862   1.387   8.459  0.00  0.00    +0.000 NA
ENDBRANCH   8  17
ENDBRANCH   7  10
ENDBRANCH   1   7
BRANCH   4  19
ATOM     19  C   UNL     1      47.583   8.534  13.970  0.00  0.00    +0.000 C 
BRANCH  19  20
ATOM     20  N   UNL     1      47.973   7.771  15.136  0.00  0.00    +0.000 N 
ATOM     21  C   UNL     1      49.251   7.327  15.337  0.00  0.00    +0.000 C 
ATOM     22  O   UNL     1      50.149   7.538  14.524  0.00  0.00    +0.000 OA
ATOM     23  H   UNL     1      47.210   7.408  15.701  0.00  0.00    +0.000 HD
BRANCH  21  24
ATOM     24  C   UNL     1      49.519   6.646  16.611  0.00  0.00    +0.000 A 
ATOM     25  C   UNL     1      50.392   7.223  17.526  0.00  0.00    +0.000 A 
ATOM     26  S   UNL     1      50.566   6.330  18.968  0.00  0.00    +0.000 S 
ATOM     27  C   UNL     1      49.512   5.118  18.407  0.00  0.00    +0.000 A 
ATOM     28  N   UNL     1      49.242   4.022  19.167  0.00  0.00    +0.000 NA
ATOM     29  C   UNL     1      48.454   3.165  18.605  0.00  0.00    +0.000 A 
ATOM     30  N   UNL     1      47.906   3.311  17.358  0.00  0.00    +0.000 N 
ATOM     31  C   UNL     1      48.104   4.424  16.580  0.00  0.00    +0.000 A 
ATOM     32  O   UNL     1      47.526   4.565  15.510  0.00  0.00    +0.000 OA
ATOM     33  C   UNL     1      49.016   5.402  17.147  0.00  0.00    +0.000 A 
ATOM     34  H   UNL     1      47.279   2.615  16.983  0.00  0.00    +0.000 HD
ENDBRANCH  21  24
ENDBRANCH  19  20
ENDBRANCH   4  19
TORSDOF 6
ENDMDL
MODEL 3
REMARK VINA RESULT:    -7.681      2.578      3.707
REMARK INTER + INTRA:         -11.505
REMARK INTER:                 -10.598
REMARK INTRA:                  -0.907
REMARK UNBOUND:                -1.129
REMARK  Name = 
REMARK  7 active torsions:
REMARK  status: ('A' for Active; 'I' for Inactive)
REMARK    1  A    between atoms: C_1  and  C_2
REMARK    2  A    between atoms: C_6  and  C_7
REMARK    3  A    between atoms: N_9  and  C_10
REMARK    4  A    between atoms: C_10  and  C_11
REMARK    5  A    between atoms: C_14  and  C_15
REMARK    6  A    between atoms: C_15  and  N_16
REMARK    7  A    between atoms: C_17  and  C_19
REMARK                            x       y       z     vdW  Elec       q    Type
REMARK                         _______ _______ _______ _____ _____    ______ ____
ROOT
ATOM      1  C   UNL     1      45.423   4.705  11.818  0.00  0.00    +0.000 A 
ATOM      2  C   UNL     1      46.018   4.003  12.870  0.00  0.00    +0.000 A 
ATOM      3  C   UNL     1      46.923   4.648  13.710  0.00  0.00    +0.000 A 
ATOM      4  C   UNL     1      47.243   5.979  13.465  0.00  0.00    +0.000 A 
ATOM      5  N   UNL     1      46.679   6.683  12.449  0.00  0.00    +0.000 NA
ATOM      6  C   UNL     1      45.789   6.036  11.660  0.00  0.00    +0.000 A 
ENDROOT
BRANCH   1   7
ATOM      7  C   UNL     1      44.434   4.053  10.899  0.00  0.00    +0.000 C 
BRANCH   7  10
ATOM      8  C   UNL     1      45.543   3.870   8.712  0.00  0.00    +0.000 C 
ATOM      9  O   UNL     1      45.469   5.073   8.487  0.00  0.00    +0.000 OA
ATOM     10  N   UNL     1      45.065   3.278   9.862  0.00  0.00    +0.000 N 
ATOM     11  H   UNL     1      45.178   2.271   9.945  0.00  0.00    +0.000 HD
BRANCH   8  17
ATOM     12  C   UNL     1      46.899  -0.679   7.656  0.00  0.00    +0.000 C 
ATOM     13  C   UNL     1      46.819   0.757   7.232  0.00  0.00    +0.000 A 
ATOM     14  C   UNL     1      47.320   1.161   5.995  0.00  0.00    +0.000 A 
ATOM     15  C   UNL     1      47.232   2.504   5.635  0.00  0.00    +0.000 A 
ATOM     16  C   UNL     1      46.649   3.407   6.515  0.00  0.00    +0.000 A 
ATOM     17  C   UNL     1      46.174   2.927   7.729  0.00  0.00    +0.000 A 
ATOM     18  N   UNL     1      46.245   1.618   8.107  0.00  0.00    +0.000 NA
ENDBRANCH   8  17
ENDBRANCH   7  10
ENDBRANCH   1   7
BRANCH   4  19
ATOM     19  C   UNL     1      48.239   6.699  14.341  0.00  0.00    +0.000 C 
BRANCH  19  20
ATOM     20  N   UNL     1      48.077   6.383  15.744  0.00  0.00    +0.000 N 
ATOM     21  C   UNL     1      49.128   6.042  16.551  0.00  0.00    +0.000 C 
ATOM     22  O   UNL     1      50.279   5.968  16.126  0.00  0.00    +0.000 OA
ATOM     23  H   UNL     1      47.122   6.229  16.054  0.00  0.00    +0.000 HD
BRANCH  21  24
ATOM     24  C   UNL     1      48.825   5.839  17.974  0.00  0.00    +0.000 A 
ATOM     25  C   UNL     1      49.049   4.594  18.551  0.00  0.00    +0.000 A 
ATOM     26  S   UNL     1      48.684   4.532  20.216  0.00  0.00    +0.000 S 
ATOM     27  C   UNL     1      48.173   6.154  20.219  0.00  0.00    +0.000 A 
ATOM     28  N   UNL     1      47.699   6.734  21.354  0.00  0.00    +0.000 NA
ATOM     29  C   UNL     1      47.314   7.959  21.207  0.00  0.00    +0.000 A 
ATOM     30  N   UNL     1      47.368   8.656  20.028  0.00  0.00    +0.000 N 
ATOM     31  C   UNL     1      47.890   8.132  18.873  0.00  0.00    +0.000 A 
ATOM     32  O   UNL     1      48.009   8.811  17.861  0.00  0.00    +0.000 OA
ATOM     33  C   UNL     1      48.302   6.742  18.973  0.00  0.00    +0.000 A 
ATOM     34  H   UNL     1      47.071   9.620  19.983  0.00  0.00    +0.000 HD
ENDBRANCH  21  24
ENDBRANCH  19  20
ENDBRANCH   4  19
TORSDOF 6
ENDMDL
MODEL 4
REMARK VINA RESULT:    -7.596      1.814      2.150
REMARK INTER + INTRA:         -11.390
REMARK INTER:                 -10.596
REMARK INTRA:                  -0.793
REMARK UNBOUND:                -1.129
REMARK  Name = 
REMARK  7 active torsions:
REMARK  status: ('A' for Active; 'I' for Inactive)
REMARK    1  A    between atoms: C_1  and  C_2
REMARK    2  A    between atoms: C_6  and  C_7
REMARK    3  A    between atoms: N_9  and  C_10
REMARK    4  A    between atoms: C_10  and  C_11
REMARK    5  A    between atoms: C_14  and  C_15
REMARK    6  A    between atoms: C_15  and  N_16
REMARK    7  A    between atoms: C_17  and  C_19
REMARK                            x       y       z     vdW  Elec       q    Type
REMARK                         _______ _______ _______ _____ _____    ______ ____
ROOT
ATOM      1  C   UNL     1      44.879   4.562  11.491  0.00  0.00    +0.000 A 
ATOM      2  C   UNL     1      45.223   5.759  12.124  0.00  0.00    +0.000 A 
ATOM      3  C   UNL     1      45.906   5.731  13.337  0.00  0.00    +0.000 A 
ATOM      4  C   UNL     1      46.209   4.502  13.914  0.00  0.00    +0.000 A 
ATOM      5  N   UNL     1      45.885   3.325  13.319  0.00  0.00    +0.000 NA
ATOM      6  C   UNL     1      45.237   3.383  12.132  0.00  0.00    +0.000 A 
ENDROOT
BRANCH   1   7
ATOM      7  C   UNL     1      44.155   4.547  10.178  0.00  0.00    +0.000 C 
BRANCH   7  10
ATOM      8  C   UNL     1      45.784   4.118   8.386  0.00  0.00    +0.000 C 
ATOM      9  O   UNL     1      46.224   5.262   8.406  0.00  0.00    +0.000 OA
ATOM     10  N   UNL     1      44.774   3.675   9.213  0.00  0.00    +0.000 N 
ATOM     11  H   UNL     1      44.485   2.705   9.111  0.00  0.00    +0.000 HD
BRANCH   8  17
ATOM     12  C   UNL     1      46.952  -0.533   7.583  0.00  0.00    +0.000 C 
ATOM     13  C   UNL     1      46.881   0.870   7.060  0.00  0.00    +0.000 A 
ATOM     14  C   UNL     1      47.309   1.169   5.767  0.00  0.00    +0.000 A 
ATOM     15  C   UNL     1      47.230   2.485   5.315  0.00  0.00    +0.000 A 
ATOM     16  C   UNL     1      46.731   3.466   6.162  0.00  0.00    +0.000 A 
ATOM     17  C   UNL     1      46.324   3.089   7.436  0.00  0.00    +0.000 A 
ATOM     18  N   UNL     1      46.388   1.809   7.904  0.00  0.00    +0.000 NA
ENDBRANCH   8  17
ENDBRANCH   7  10
ENDBRANCH   1   7
BRANCH   4  19
ATOM     19  C   UNL     1      46.927   4.438  15.240  0.00  0.00    +0.000 C 
BRANCH  19  20
ATOM     20  N   UNL     1      47.873   5.518  15.415  0.00  0.00    +0.000 N 
ATOM     21  C   UNL     1      48.446   5.812  16.622  0.00  0.00    +0.000 C 
ATOM     22  O   UNL     1      48.176   5.181  17.642  0.00  0.00    +0.000 OA
ATOM     23  H   UNL     1      47.940   6.174  14.642  0.00  0.00    +0.000 HD
BRANCH  21  24
ATOM     24  C   UNL     1      49.459   6.876  16.627  0.00  0.00    +0.000 A 
ATOM     25  C   UNL     1      49.065   8.197  16.450  0.00  0.00    +0.000 A 
ATOM     26  S   UNL     1      50.352   9.313  16.519  0.00  0.00    +0.000 S 
ATOM     27  C   UNL     1      51.490   8.070  16.748  0.00  0.00    +0.000 A 
ATOM     28  N   UNL     1      52.816   8.349  16.859  0.00  0.00    +0.000 NA
ATOM     29  C   UNL     1      53.570   7.308  16.994  0.00  0.00    +0.000 A 
ATOM     30  N   UNL     1      53.116   6.016  17.038  0.00  0.00    +0.000 N 
ATOM     31  C   UNL     1      51.784   5.691  16.989  0.00  0.00    +0.000 A 
ATOM     32  O   UNL     1      51.404   4.534  17.123  0.00  0.00    +0.000 OA
ATOM     33  C   UNL     1      50.893   6.822  16.796  0.00  0.00    +0.000 A 
ATOM     34  H   UNL     1      53.755   5.247  17.168  0.00  0.00    +0.000 HD
ENDBRANCH  21  24
ENDBRANCH  19  20
ENDBRANCH   4  19
TORSDOF 6
ENDMDL
MODEL 5
REMARK VINA RESULT:    -7.416      2.672      4.032
REMARK INTER + INTRA:         -11.146
REMARK INTER:                 -10.385
REMARK INTRA:                  -0.762
REMARK UNBOUND:                -1.129
REMARK  Name = 
REMARK  7 active torsions:
REMARK  status: ('A' for Active; 'I' for Inactive)
REMARK    1  A    between atoms: C_1  and  C_2
REMARK    2  A    between atoms: C_6  and  C_7
REMARK    3  A    between atoms: N_9  and  C_10
REMARK    4  A    between atoms: C_10  and  C_11
REMARK    5  A    between atoms: C_14  and  C_15
REMARK    6  A    between atoms: C_15  and  N_16
REMARK    7  A    between atoms: C_17  and  C_19
REMARK                            x       y       z     vdW  Elec       q    Type
REMARK                         _______ _______ _______ _____ _____    ______ ____
ROOT
ATOM      1  C   UNL     1      45.354   6.507  11.733  0.00  0.00    +0.000 A 
ATOM      2  C   UNL     1      46.611   6.043  12.131  0.00  0.00    +0.000 A 
ATOM      3  C   UNL     1      47.428   6.844  12.925  0.00  0.00    +0.000 A 
ATOM      4  C   UNL     1      46.985   8.112  13.286  0.00  0.00    +0.000 A 
ATOM      5  N   UNL     1      45.769   8.587  12.912  0.00  0.00    +0.000 NA
ATOM      6  C   UNL     1      44.989   7.780  12.155  0.00  0.00    +0.000 A 
ENDROOT
BRANCH   1   7
ATOM      7  C   UNL     1      44.438   5.672  10.890  0.00  0.00    +0.000 C 
BRANCH   7  10
ATOM      8  C   UNL     1      44.778   3.656   9.523  0.00  0.00    +0.000 C 
ATOM      9  O   UNL     1      43.855   3.047  10.053  0.00  0.00    +0.000 OA
ATOM     10  N   UNL     1      45.138   4.943   9.864  0.00  0.00    +0.000 N 
ATOM     11  H   UNL     1      45.920   5.353   9.359  0.00  0.00    +0.000 HD
BRANCH   8  17
ATOM     12  C   UNL     1      46.826  -0.357   7.694  0.00  0.00    +0.000 C 
ATOM     13  C   UNL     1      46.579   1.117   7.569  0.00  0.00    +0.000 A 
ATOM     14  C   UNL     1      47.108   1.837   6.499  0.00  0.00    +0.000 A 
ATOM     15  C   UNL     1      46.860   3.207   6.417  0.00  0.00    +0.000 A 
ATOM     16  C   UNL     1      46.095   3.819   7.400  0.00  0.00    +0.000 A 
ATOM     17  C   UNL     1      45.603   3.033   8.436  0.00  0.00    +0.000 A 
ATOM     18  N   UNL     1      45.829   1.691   8.540  0.00  0.00    +0.000 NA
ENDBRANCH   8  17
ENDBRANCH   7  10
ENDBRANCH   1   7
BRANCH   4  19
ATOM     19  C   UNL     1      47.857   9.015  14.125  0.00  0.00    +0.000 C 
BRANCH  19  20
ATOM     20  N   UNL     1      47.602   8.874  15.542  0.00  0.00    +0.000 N 
ATOM     21  C   UNL     1      48.605   8.804  16.471  0.00  0.00    +0.000 C 
ATOM     22  O   UNL     1      49.791   8.841  16.152  0.00  0.00    +0.000 OA
ATOM     23  H   UNL     1      46.650   8.628  15.797  0.00  0.00    +0.000 HD
BRANCH  21  24
ATOM     24  C   UNL     1      48.193   8.757  17.880  0.00  0.00    +0.000 A 
ATOM     25  C   UNL     1      48.007   9.943  18.580  0.00  0.00    +0.000 A 
ATOM     26  S   UNL     1      47.494   9.718  20.190  0.00  0.00    +0.000 S 
ATOM     27  C   UNL     1      47.541   8.026  20.026  0.00  0.00    +0.000 A 
ATOM     28  N   UNL     1      47.232   7.215  21.073  0.00  0.00    +0.000 NA
ATOM     29  C   UNL     1      47.342   5.952  20.819  0.00  0.00    +0.000 A 
ATOM     30  N   UNL     1      47.724   5.430  19.611  0.00  0.00    +0.000 N 
ATOM     31  C   UNL     1      47.989   6.207  18.511  0.00  0.00    +0.000 A 
ATOM     32  O   UNL     1      48.237   5.707  17.422  0.00  0.00    +0.000 OA
ATOM     33  C   UNL     1      47.919   7.638  18.753  0.00  0.00    +0.000 A 
ATOM     34  H   UNL     1      47.770   4.432  19.470  0.00  0.00    +0.000 HD
ENDBRANCH  21  24
ENDBRANCH  19  20
ENDBRANCH   4  19
TORSDOF 6
ENDMDL
MODEL 6
REMARK VINA RESULT:    -7.143      2.542      3.138
REMARK INTER + INTRA:         -10.778
REMARK INTER:                  -9.785
REMARK INTRA:                  -0.993
REMARK UNBOUND:                -1.129
REMARK  Name = 
REMARK  7 active torsions:
REMARK  status: ('A' for Active; 'I' for Inactive)
REMARK    1  A    between atoms: C_1  and  C_2
REMARK    2  A    between atoms: C_6  and  C_7
REMARK    3  A    between atoms: N_9  and  C_10
REMARK    4  A    between atoms: C_10  and  C_11
REMARK    5  A    between atoms: C_14  and  C_15
REMARK    6  A    between atoms: C_15  and  N_16
REMARK    7  A    between atoms: C_17  and  C_19
REMARK                            x       y       z     vdW  Elec       q    Type
REMARK                         _______ _______ _______ _____ _____    ______ ____
ROOT
ATOM      1  C   UNL     1      45.907   5.536  12.267  0.00  0.00    +0.000 A 
ATOM      2  C   UNL     1      45.682   4.398  13.045  0.00  0.00    +0.000 A 
ATOM      3  C   UNL     1      46.372   4.227  14.243  0.00  0.00    +0.000 A 
ATOM      4  C   UNL     1      47.302   5.187  14.630  0.00  0.00    +0.000 A 
ATOM      5  N   UNL     1      47.540   6.302  13.892  0.00  0.00    +0.000 NA
ATOM      6  C   UNL     1      46.841   6.450  12.741  0.00  0.00    +0.000 A 
ENDROOT
BRANCH   1   7
ATOM      7  C   UNL     1      45.175   5.766  10.979  0.00  0.00    +0.000 C 
BRANCH   7  10
ATOM      8  C   UNL     1      45.108   3.832   9.461  0.00  0.00    +0.000 C 
ATOM      9  O   UNL     1      44.087   3.375   9.963  0.00  0.00    +0.000 OA
ATOM     10  N   UNL     1      45.715   4.994   9.889  0.00  0.00    +0.000 N 
ATOM     11  H   UNL     1      46.559   5.281   9.401  0.00  0.00    +0.000 HD
BRANCH   8  17
ATOM     12  C   UNL     1      46.851  -0.303   7.589  0.00  0.00    +0.000 C 
ATOM     13  C   UNL     1      46.622   1.170   7.428  0.00  0.00    +0.000 A 
ATOM     14  C   UNL     1      47.040   1.833   6.275  0.00  0.00    +0.000 A 
ATOM     15  C   UNL     1      46.813   3.203   6.162  0.00  0.00    +0.000 A 
ATOM     16  C   UNL     1      46.178   3.875   7.198  0.00  0.00    +0.000 A 
ATOM     17  C   UNL     1      45.791   3.145   8.316  0.00  0.00    +0.000 A 
ATOM     18  N   UNL     1      45.999   1.802   8.452  0.00  0.00    +0.000 NA
ENDBRANCH   8  17
ENDBRANCH   7  10
ENDBRANCH   1   7
BRANCH   4  19
ATOM     19  C   UNL     1      48.084   5.019  15.909  0.00  0.00    +0.000 C 
BRANCH  19  20
ATOM     20  N   UNL     1      47.758   6.025  16.897  0.00  0.00    +0.000 N 
ATOM     21  C   UNL     1      48.531   6.253  18.003  0.00  0.00    +0.000 C 
ATOM     22  O   UNL     1      49.548   5.602  18.232  0.00  0.00    +0.000 OA
ATOM     23  H   UNL     1      46.822   6.415  16.837  0.00  0.00    +0.000 HD
BRANCH  21  24
ATOM     24  C   UNL     1      48.126   7.369  18.869  0.00  0.00    +0.000 A 
ATOM     25  C   UNL     1      47.896   7.138  20.220  0.00  0.00    +0.000 A 
ATOM     26  S   UNL     1      47.471   8.539  21.095  0.00  0.00    +0.000 S 
ATOM     27  C   UNL     1      47.538   9.499  19.693  0.00  0.00    +0.000 A 
ATOM     28  N   UNL     1      47.248  10.827  19.742  0.00  0.00    +0.000 NA
ATOM     29  C   UNL     1      47.304  11.428  18.599  0.00  0.00    +0.000 A 
ATOM     30  N   UNL     1      47.634  10.822  17.415  0.00  0.00    +0.000 N 
ATOM     31  C   UNL     1      47.990   9.499  17.326  0.00  0.00    +0.000 A 
ATOM     32  O   UNL     1      48.367   9.010  16.269  0.00  0.00    +0.000 OA
ATOM     33  C   UNL     1      47.904   8.766  18.577  0.00  0.00    +0.000 A 
ATOM     34  H   UNL     1      47.682  11.352  16.558  0.00  0.00    +0.000 HD
ENDBRANCH  21  24
ENDBRANCH  19  20
ENDBRANCH   4  19
TORSDOF 6
ENDMDL
MODEL 7
REMARK VINA RESULT:    -6.871      2.640      4.422
REMARK INTER + INTRA:         -10.411
REMARK INTER:                  -9.519
REMARK INTRA:                  -0.891
REMARK UNBOUND:                -1.129
REMARK  Name = 
REMARK  7 active torsions:
REMARK  status: ('A' for Active; 'I' for Inactive)
REMARK    1  A    between atoms: C_1  and  C_2
REMARK    2  A    between atoms: C_6  and  C_7
REMARK    3  A    between atoms: N_9  and  C_10
REMARK    4  A    between atoms: C_10  and  C_11
REMARK    5  A    between atoms: C_14  and  C_15
REMARK    6  A    between atoms: C_15  and  N_16
REMARK    7  A    between atoms: C_17  and  C_19
REMARK                            x       y       z     vdW  Elec       q    Type
REMARK                         _______ _______ _______ _____ _____    ______ ____
ROOT
ATOM      1  C   UNL     1      45.873   7.381  12.348  0.00  0.00    +0.000 A 
ATOM      2  C   UNL     1      46.786   6.477  12.897  0.00  0.00    +0.000 A 
ATOM      3  C   UNL     1      47.727   6.917  13.825  0.00  0.00    +0.000 A 
ATOM      4  C   UNL     1      47.759   8.264  14.167  0.00  0.00    +0.000 A 
ATOM      5  N   UNL     1      46.884   9.164  13.648  0.00  0.00    +0.000 NA
ATOM      6  C   UNL     1      45.969   8.704  12.762  0.00  0.00    +0.000 A 
ENDROOT
BRANCH   1   7
ATOM      7  C   UNL     1      44.835   6.947  11.357  0.00  0.00    +0.000 C 
BRANCH   7  10
ATOM      8  C   UNL     1      44.394   4.904  10.063  0.00  0.00    +0.000 C 
ATOM      9  O   UNL     1      43.192   4.918  10.303  0.00  0.00    +0.000 OA
ATOM     10  N   UNL     1      45.278   5.852  10.533  0.00  0.00    +0.000 N 
ATOM     11  H   UNL     1      46.254   5.743  10.273  0.00  0.00    +0.000 HD
BRANCH   8  17
ATOM     12  C   UNL     1      46.983   3.744   6.113  0.00  0.00    +0.000 C 
ATOM     13  C   UNL     1      46.244   3.280   7.332  0.00  0.00    +0.000 A 
ATOM     14  C   UNL     1      46.144   1.921   7.628  0.00  0.00    +0.000 A 
ATOM     15  C   UNL     1      45.447   1.527   8.769  0.00  0.00    +0.000 A 
ATOM     16  C   UNL     1      44.867   2.493   9.580  0.00  0.00    +0.000 A 
ATOM     17  C   UNL     1      45.010   3.827   9.217  0.00  0.00    +0.000 A 
ATOM     18  N   UNL     1      45.688   4.242   8.108  0.00  0.00    +0.000 NA
ENDBRANCH   8  17
ENDBRANCH   7  10
ENDBRANCH   1   7
BRANCH   4  19
ATOM     19  C   UNL     1      48.783   8.778  15.151  0.00  0.00    +0.000 C 
BRANCH  19  20
ATOM     20  N   UNL     1      49.664   7.736  15.632  0.00  0.00    +0.000 N 
ATOM     21  C   UNL     1      49.534   7.171  16.871  0.00  0.00    +0.000 C 
ATOM     22  O   UNL     1      48.663   7.528  17.661  0.00  0.00    +0.000 OA
ATOM     23  H   UNL     1      50.507   7.585  15.086  0.00  0.00    +0.000 HD
BRANCH  21  24
ATOM     24  C   UNL     1      50.443   6.060  17.186  0.00  0.00    +0.000 A 
ATOM     25  C   UNL     1      51.761   6.332  17.535  0.00  0.00    +0.000 A 
ATOM     26  S   UNL     1      52.674   4.941  17.907  0.00  0.00    +0.000 S 
ATOM     27  C   UNL     1      51.354   3.920  17.576  0.00  0.00    +0.000 A 
ATOM     28  N   UNL     1      51.474   2.569  17.677  0.00  0.00    +0.000 NA
ATOM     29  C   UNL     1      50.406   1.914  17.363  0.00  0.00    +0.000 A 
ATOM     30  N   UNL     1      49.227   2.489  16.967  0.00  0.00    +0.000 N 
ATOM     31  C   UNL     1      49.041   3.847  16.906  0.00  0.00    +0.000 A 
ATOM     32  O   UNL     1      47.949   4.330  16.637  0.00  0.00    +0.000 OA
ATOM     33  C   UNL     1      50.226   4.632  17.210  0.00  0.00    +0.000 A 
ATOM     34  H   UNL     1      48.419   1.922  16.756  0.00  0.00    +0.000 HD
ENDBRANCH  21  24
ENDBRANCH  19  20
ENDBRANCH   4  19
TORSDOF 6
ENDMDL
MODEL 8
REMARK VINA RESULT:    -6.794      3.291      4.725
REMARK INTER + INTRA:         -10.307
REMARK INTER:                  -9.409
REMARK INTRA:                  -0.898
REMARK UNBOUND:                -1.129
REMARK  Name = 
REMARK  7 active torsions:
REMARK  status: ('A' for Active; 'I' for Inactive)
REMARK    1  A    between atoms: C_1  and  C_2
REMARK    2  A    between atoms: C_6  and  C_7
REMARK    3  A    between atoms: N_9  and  C_10
REMARK    4  A    between atoms: C_10  and  C_11
REMARK    5  A    between atoms: C_14  and  C_15
REMARK    6  A    between atoms: C_15  and  N_16
REMARK    7  A    between atoms: C_17  and  C_19
REMARK                            x       y       z     vdW  Elec       q    Type
REMARK                         _______ _______ _______ _____ _____    ______ ____
ROOT
ATOM      1  C   UNL     1      46.831   7.301  12.865  0.00  0.00    +0.000 A 
ATOM      2  C   UNL     1      47.138   8.445  13.607  0.00  0.00    +0.000 A 
ATOM      3  C   UNL     1      48.123   8.392  14.590  0.00  0.00    +0.000 A 
ATOM      4  C   UNL     1      48.766   7.183  14.838  0.00  0.00    +0.000 A 
ATOM      5  N   UNL     1      48.486   6.057  14.132  0.00  0.00    +0.000 NA
ATOM      6  C   UNL     1      47.536   6.143  13.170  0.00  0.00    +0.000 A 
ENDROOT
BRANCH   1   7
ATOM      7  C   UNL     1      45.788   7.318  11.789  0.00  0.00    +0.000 C 
BRANCH   7  10
ATOM      8  C   UNL     1      44.715   5.443  10.614  0.00  0.00    +0.000 C 
ATOM      9  O   UNL     1      43.593   5.732  11.015  0.00  0.00    +0.000 OA
ATOM     10  N   UNL     1      45.849   6.158  10.938  0.00  0.00    +0.000 N 
ATOM     11  H   UNL     1      46.729   5.829  10.549  0.00  0.00    +0.000 HD
BRANCH   8  17
ATOM     12  C   UNL     1      46.654   3.704   6.508  0.00  0.00    +0.000 C 
ATOM     13  C   UNL     1      45.870   3.438   7.758  0.00  0.00    +0.000 A 
ATOM     14  C   UNL     1      45.388   2.159   8.036  0.00  0.00    +0.000 A 
ATOM     15  C   UNL     1      44.661   1.950   9.207  0.00  0.00    +0.000 A 
ATOM     16  C   UNL     1      44.432   3.017  10.065  0.00  0.00    +0.000 A 
ATOM     17  C   UNL     1      44.944   4.261   9.718  0.00  0.00    +0.000 A 
ATOM     18  N   UNL     1      45.661   4.495   8.580  0.00  0.00    +0.000 NA
ENDBRANCH   8  17
ENDBRANCH   7  10
ENDBRANCH   1   7
BRANCH   4  19
ATOM     19  C   UNL     1      49.820   7.086  15.913  0.00  0.00    +0.000 C 
BRANCH  19  20
ATOM     20  N   UNL     1      49.276   7.256  17.243  0.00  0.00    +0.000 N 
ATOM     21  C   UNL     1      48.636   6.251  17.915  0.00  0.00    +0.000 C 
ATOM     22  O   UNL     1      48.470   5.139  17.419  0.00  0.00    +0.000 OA
ATOM     23  H   UNL     1      49.214   8.215  17.575  0.00  0.00    +0.000 HD
BRANCH  21  24
ATOM     24  C   UNL     1      48.219   6.542  19.294  0.00  0.00    +0.000 A 
ATOM     25  C   UNL     1      48.334   5.557  20.267  0.00  0.00    +0.000 A 
ATOM     26  S   UNL     1      47.846   6.064  21.820  0.00  0.00    +0.000 S 
ATOM     27  C   UNL     1      47.424   7.606  21.242  0.00  0.00    +0.000 A 
ATOM     28  N   UNL     1      46.900   8.545  22.076  0.00  0.00    +0.000 NA
ATOM     29  C   UNL     1      46.593   9.659  21.499  0.00  0.00    +0.000 A 
ATOM     30  N   UNL     1      46.770   9.921  20.166  0.00  0.00    +0.000 N 
ATOM     31  C   UNL     1      47.346   9.028  19.298  0.00  0.00    +0.000 A 
ATOM     32  O   UNL     1      47.575   9.327  18.133  0.00  0.00    +0.000 OA
ATOM     33  C   UNL     1      47.675   7.741  19.888  0.00  0.00    +0.000 A 
ATOM     34  H   UNL     1      46.529  10.822  19.779  0.00  0.00    +0.000 HD
ENDBRANCH  21  24
ENDBRANCH  19  20
ENDBRANCH   4  19
TORSDOF 6
ENDMDL
MODEL 9
REMARK VINA RESULT:    -6.623      2.498      3.216
REMARK INTER + INTRA:         -10.075
REMARK INTER:                  -8.904
REMARK INTRA:                  -1.171
REMARK UNBOUND:                -1.129
REMARK  Name = 
REMARK  7 active torsions:
REMARK  status: ('A' for Active; 'I' for Inactive)
REMARK    1  A    between atoms: C_1  and  C_2
REMARK    2  A    between atoms: C_6  and  C_7
REMARK    3  A    between atoms: N_9  and  C_10
REMARK    4  A    between atoms: C_10  and  C_11
REMARK    5  A    between atoms: C_14  and  C_15
REMARK    6  A    between atoms: C_15  and  N_16
REMARK    7  A    between atoms: C_17  and  C_19
REMARK                            x       y       z     vdW  Elec       q    Type
REMARK                         _______ _______ _______ _____ _____    ______ ____
ROOT
ATOM      1  C   UNL     1      45.607   6.573  11.956  0.00  0.00    +0.000 A 
ATOM      2  C   UNL     1      46.694   5.883  12.497  0.00  0.00    +0.000 A 
ATOM      3  C   UNL     1      47.561   6.529  13.374  0.00  0.00    +0.000 A 
ATOM      4  C   UNL     1      47.343   7.870  13.674  0.00  0.00    +0.000 A 
ATOM      5  N   UNL     1      46.294   8.565  13.161  0.00  0.00    +0.000 NA
ATOM      6  C   UNL     1      45.458   7.905  12.325  0.00  0.00    +0.000 A 
ENDROOT
BRANCH   1   7
ATOM      7  C   UNL     1      44.642   5.911  11.019  0.00  0.00    +0.000 C 
BRANCH   7  10
ATOM      8  C   UNL     1      44.889   3.904   9.620  0.00  0.00    +0.000 C 
ATOM      9  O   UNL     1      43.952   3.322  10.154  0.00  0.00    +0.000 OA
ATOM     10  N   UNL     1      45.301   5.172   9.974  0.00  0.00    +0.000 N 
ATOM     11  H   UNL     1      46.091   5.560   9.464  0.00  0.00    +0.000 HD
BRANCH   8  17
ATOM     12  C   UNL     1      46.748  -0.158   7.700  0.00  0.00    +0.000 C 
ATOM     13  C   UNL     1      46.562   1.326   7.603  0.00  0.00    +0.000 A 
ATOM     14  C   UNL     1      47.111   2.043   6.541  0.00  0.00    +0.000 A 
ATOM     15  C   UNL     1      46.921   3.423   6.485  0.00  0.00    +0.000 A 
ATOM     16  C   UNL     1      46.192   4.050   7.487  0.00  0.00    +0.000 A 
ATOM     17  C   UNL     1      45.677   3.267   8.513  0.00  0.00    +0.000 A 
ATOM     18  N   UNL     1      45.846   1.914   8.592  0.00  0.00    +0.000 NA
ENDBRANCH   8  17
ENDBRANCH   7  10
ENDBRANCH   1   7
BRANCH   4  19
ATOM     19  C   UNL     1      48.279   8.607  14.601  0.00  0.00    +0.000 C 
BRANCH  19  20
ATOM     20  N   UNL     1      49.572   8.860  14.003  0.00  0.00    +0.000 N 
ATOM     21  C   UNL     1      50.711   8.216  14.403  0.00  0.00    +0.000 C 
ATOM     22  O   UNL     1      50.706   7.390  15.313  0.00  0.00    +0.000 OA
ATOM     23  H   UNL     1      49.629   9.683  13.410  0.00  0.00    +0.000 HD
BRANCH  21  24
ATOM     24  C   UNL     1      51.933   8.508  13.641  0.00  0.00    +0.000 A 
ATOM     25  C   UNL     1      53.054   8.993  14.305  0.00  0.00    +0.000 A 
ATOM     26  S   UNL     1      54.399   9.244  13.287  0.00  0.00    +0.000 S 
ATOM     27  C   UNL     1      53.522   8.753  11.916  0.00  0.00    +0.000 A 
ATOM     28  N   UNL     1      54.094   8.759  10.682  0.00  0.00    +0.000 NA
ATOM     29  C   UNL     1      53.304   8.396   9.726  0.00  0.00    +0.000 A 
ATOM     30  N   UNL     1      51.997   8.020   9.895  0.00  0.00    +0.000 N 
ATOM     31  C   UNL     1      51.395   7.943  11.125  0.00  0.00    +0.000 A 
ATOM     32  O   UNL     1      50.255   7.514  11.251  0.00  0.00    +0.000 OA
ATOM     33  C   UNL     1      52.227   8.379  12.233  0.00  0.00    +0.000 A 
ATOM     34  H   UNL     1      51.438   7.725   9.108  0.00  0.00    +0.000 HD
ENDBRANCH  21  24
ENDBRANCH  19  20
ENDBRANCH   4  19
TORSDOF 6
ENDMDL
