MODEL 1
REMARK VINA RESULT:    -7.965      0.000      0.000
REMARK INTER + INTRA:         -12.216
REMARK INTER:                 -11.224
REMARK INTRA:                  -0.992
REMARK UNBOUND:                -0.992
REMARK  Name = 
REMARK  8 active torsions:
REMARK  status: ('A' for Active; 'I' for Inactive)
REMARK    1  A    between atoms: C_1  and  N_2
REMARK    2  A    between atoms: C_4  and  C_5
REMARK    3  A    between atoms: N_7  and  C_8
REMARK    4  A    between atoms: C_8  and  C_9
REMARK    5  A    between atoms: C_12  and  C_13
REMARK    6  A    between atoms: C_13  and  O_14
REMARK    7  A    between atoms: O_14  and  C_15
REMARK    8  A    between atoms: C_15  and  C_16
REMARK                            x       y       z     vdW  Elec       q    Type
REMARK                         _______ _______ _______ _____ _____    ______ ____
ROOT
ATOM      1  C   UNL     1      46.698   7.779  13.136  0.00  0.00    +0.000 C 
ENDROOT
BRANCH   1   2
ATOM      2  C   UNL     1      45.995   6.601  12.520  0.00  0.00    +0.000 A 
ATOM      3  C   UNL     1      45.981   6.391  11.139  0.00  0.00    +0.000 A 
ATOM      4  C   UNL     1      45.246   5.330  10.604  0.00  0.00    +0.000 A 
ATOM      5  C   UNL     1      44.539   4.489  11.460  0.00  0.00    +0.000 A 
ATOM      6  N   UNL     1      44.564   4.655  12.807  0.00  0.00    +0.000 NA
ATOM      7  C   UNL     1      45.293   5.689  13.299  0.00  0.00    +0.000 A 
BRANCH   5   8
ATOM      8  C   UNL     1      43.667   3.384  10.897  0.00  0.00    +0.000 C 
BRANCH   8   9
ATOM      9  O   UNL     1      43.952   3.188   9.513  0.00  0.00    +0.000 OA
BRANCH   9  10
ATOM     10  C   UNL     1      44.596   1.939   9.263  0.00  0.00    +0.000 C 
BRANCH  10  11
ATOM     11  C   UNL     1      45.669   2.132   8.216  0.00  0.00    +0.000 A 
ATOM     12  C   UNL     1      45.791   3.348   7.527  0.00  0.00    +0.000 A 
ATOM     13  C   UNL     1      46.768   3.519   6.546  0.00  0.00    +0.000 A 
ATOM     14  C   UNL     1      47.652   2.483   6.256  0.00  0.00    +0.000 A 
ATOM     15  C   UNL     1      47.568   1.282   6.958  0.00  0.00    +0.000 A 
ATOM     16  C   UNL     1      46.587   1.108   7.938  0.00  0.00    +0.000 A 
ENDBRANCH  10  11
ENDBRANCH   9  10
ENDBRANCH   8   9
ENDBRANCH   5   8
ENDBRANCH   1   2
BRANCH   1  19
ATOM     17  C   UNL     1      48.597   6.865  14.427  0.00  0.00    +0.000 C 
ATOM     18  O   UNL     1      49.236   6.556  13.423  0.00  0.00    +0.000 OA
ATOM     19  N   UNL     1      47.355   7.473  14.378  0.00  0.00    +0.000 N 
ATOM     20  H   UNL     1      46.900   7.631  15.275  0.00  0.00    +0.000 HD
BRANCH  17  24
ATOM     21  C   UNL     1      51.104   7.581  18.497  0.00  0.00    +0.000 C 
ATOM     22  N   UNL     1      50.176   6.937  17.596  0.00  0.00    +0.000 N 
ATOM     23  N   UNL     1      49.958   7.470  16.380  0.00  0.00    +0.000 NA
ATOM     24  C   UNL     1      49.075   6.625  15.803  0.00  0.00    +0.000 A 
ATOM     25  C   UNL     1      48.724   5.560  16.693  0.00  0.00    +0.000 A 
ATOM     26  C   UNL     1      47.884   4.437  16.662  0.00  0.00    +0.000 A 
ATOM     27  C   UNL     1      47.857   3.653  17.809  0.00  0.00    +0.000 A 
ATOM     28  N   UNL     1      48.579   3.894  18.926  0.00  0.00    +0.000 NA
ATOM     29  C   UNL     1      49.392   4.971  18.962  0.00  0.00    +0.000 A 
ATOM     30  C   UNL     1      49.462   5.801  17.849  0.00  0.00    +0.000 A 
ENDBRANCH  17  24
ENDBRANCH   1  19
TORSDOF 7
ENDMDL
MODEL 2
REMARK VINA RESULT:    -7.724      1.751      2.175
REMARK INTER + INTRA:         -11.877
REMARK INTER:                 -10.912
REMARK INTRA:                  -0.964
REMARK UNBOUND:                -0.992
REMARK  Name = 
REMARK  8 active torsions:
REMARK  status: ('A' for Active; 'I' for Inactive)
REMARK    1  A    between atoms: C_1  and  N_2
REMARK    2  A    between atoms: C_4  and  C_5
REMARK    3  A    between atoms: N_7  and  C_8
REMARK    4  A    between atoms: C_8  and  C_9
REMARK    5  A    between atoms: C_12  and  C_13
REMARK    6  A    between atoms: C_13  and  O_14
REMARK    7  A    between atoms: O_14  and  C_15
REMARK    8  A    between atoms: C_15  and  C_16
REMARK                            x       y       z     vdW  Elec       q    Type
REMARK                         _______ _______ _______ _____ _____    ______ ____
ROOT
ATOM      1  C   UNL     1      48.323   6.267  13.883  0.00  0.00    +0.000 C 
ENDROOT
BRANCH   1   2
ATOM      2  C   UNL     1      47.184   5.553  13.212  0.00  0.00    +0.000 A 
ATOM      3  C   UNL     1      46.550   6.073  12.081  0.00  0.00    +0.000 A 
ATOM      4  C   UNL     1      45.442   5.418  11.540  0.00  0.00    +0.000 A 
ATOM      5  C   UNL     1      44.985   4.244  12.135  0.00  0.00    +0.000 A 
ATOM      6  N   UNL     1      45.603   3.703  13.215  0.00  0.00    +0.000 NA
ATOM      7  C   UNL     1      46.683   4.357  13.715  0.00  0.00    +0.000 A 
BRANCH   5   8
ATOM      8  C   UNL     1      43.734   3.562  11.617  0.00  0.00    +0.000 C 
BRANCH   8   9
ATOM      9  O   UNL     1      43.776   3.471  10.195  0.00  0.00    +0.000 OA
BRANCH   9  10
ATOM     10  C   UNL     1      44.264   2.207   9.745  0.00  0.00    +0.000 C 
BRANCH  10  11
ATOM     11  C   UNL     1      45.350   2.428   8.717  0.00  0.00    +0.000 A 
ATOM     12  C   UNL     1      46.134   1.359   8.258  0.00  0.00    +0.000 A 
ATOM     13  C   UNL     1      47.148   1.565   7.324  0.00  0.00    +0.000 A 
ATOM     14  C   UNL     1      47.379   2.842   6.818  0.00  0.00    +0.000 A 
ATOM     15  C   UNL     1      46.585   3.908   7.236  0.00  0.00    +0.000 A 
ATOM     16  C   UNL     1      45.570   3.703   8.175  0.00  0.00    +0.000 A 
ENDBRANCH  10  11
ENDBRANCH   9  10
ENDBRANCH   8   9
ENDBRANCH   5   8
ENDBRANCH   1   2
BRANCH   1  19
ATOM     17  C   UNL     1      49.085   6.550  16.218  0.00  0.00    +0.000 C 
ATOM     18  O   UNL     1      50.258   6.292  15.952  0.00  0.00    +0.000 OA
ATOM     19  N   UNL     1      48.079   6.568  15.268  0.00  0.00    +0.000 N 
ATOM     20  H   UNL     1      47.139   6.741  15.619  0.00  0.00    +0.000 HD
BRANCH  17  24
ATOM     21  C   UNL     1      47.260   9.191  19.831  0.00  0.00    +0.000 C 
ATOM     22  N   UNL     1      47.805   8.028  19.171  0.00  0.00    +0.000 N 
ATOM     23  N   UNL     1      48.114   8.093  17.864  0.00  0.00    +0.000 NA
ATOM     24  C   UNL     1      48.609   6.868  17.578  0.00  0.00    +0.000 A 
ATOM     25  C   UNL     1      48.584   6.022  18.733  0.00  0.00    +0.000 A 
ATOM     26  C   UNL     1      48.940   4.700  19.039  0.00  0.00    +0.000 A 
ATOM     27  C   UNL     1      48.724   4.289  20.349  0.00  0.00    +0.000 A 
ATOM     28  N   UNL     1      48.209   5.066  21.327  0.00  0.00    +0.000 NA
ATOM     29  C   UNL     1      47.867   6.341  21.041  0.00  0.00    +0.000 A 
ATOM     30  C   UNL     1      48.053   6.814  19.747  0.00  0.00    +0.000 A 
ENDBRANCH  17  24
ENDBRANCH   1  19
TORSDOF 7
ENDMDL
MODEL 3
REMARK VINA RESULT:    -7.661      2.081      2.689
REMARK INTER + INTRA:         -11.788
REMARK INTER:                 -10.812
REMARK INTRA:                  -0.977
REMARK UNBOUND:                -0.992
REMARK  Name = 
REMARK  8 active torsions:
REMARK  status: ('A' for Active; 'I' for Inactive)
REMARK    1  A    between atoms: C_1  and  N_2
REMARK    2  A    between atoms: C_4  and  C_5
REMARK    3  A    between atoms: N_7  and  C_8
REMARK    4  A    between atoms: C_8  and  C_9
REMARK    5  A    between atoms: C_12  and  C_13
REMARK    6  A    between atoms: C_13  and  O_14
REMARK    7  A    between atoms: O_14  and  C_15
REMARK    8  A    between atoms: C_15  and  C_16
REMARK                            x       y       z     vdW  Elec       q    Type
REMARK                         _______ _______ _______ _____ _____    ______ ____
ROOT
ATOM      1  C   UNL     1      48.251   6.755  13.540  0.00  0.00    +0.000 C 
ENDROOT
BRANCH   1   2
ATOM      2  C   UNL     1      47.067   6.146  12.842  0.00  0.00    +0.000 A 
ATOM      3  C   UNL     1      46.620   6.612  11.604  0.00  0.00    +0.000 A 
ATOM      4  C   UNL     1      45.466   6.072  11.030  0.00  0.00    +0.000 A 
ATOM      5  C   UNL     1      44.777   5.066  11.703  0.00  0.00    +0.000 A 
ATOM      6  N   UNL     1      45.210   4.574  12.892  0.00  0.00    +0.000 NA
ATOM      7  C   UNL     1      46.339   5.112  13.421  0.00  0.00    +0.000 A 
BRANCH   5   8
ATOM      8  C   UNL     1      43.477   4.524  11.142  0.00  0.00    +0.000 C 
BRANCH   8   9
ATOM      9  O   UNL     1      43.691   3.981   9.841  0.00  0.00    +0.000 OA
BRANCH   9  10
ATOM     10  C   UNL     1      44.346   2.713   9.882  0.00  0.00    +0.000 C 
BRANCH  10  11
ATOM     11  C   UNL     1      45.369   2.643   8.772  0.00  0.00    +0.000 A 
ATOM     12  C   UNL     1      45.762   3.800   8.083  0.00  0.00    +0.000 A 
ATOM     13  C   UNL     1      46.691   3.733   7.044  0.00  0.00    +0.000 A 
ATOM     14  C   UNL     1      47.257   2.509   6.695  0.00  0.00    +0.000 A 
ATOM     15  C   UNL     1      46.905   1.357   7.394  0.00  0.00    +0.000 A 
ATOM     16  C   UNL     1      45.971   1.422   8.432  0.00  0.00    +0.000 A 
ENDBRANCH  10  11
ENDBRANCH   9  10
ENDBRANCH   8   9
ENDBRANCH   5   8
ENDBRANCH   1   2
BRANCH   1  19
ATOM     17  C   UNL     1      49.084   6.817  15.866  0.00  0.00    +0.000 C 
ATOM     18  O   UNL     1      50.241   6.552  15.545  0.00  0.00    +0.000 OA
ATOM     19  N   UNL     1      48.053   6.943  14.952  0.00  0.00    +0.000 N 
ATOM     20  H   UNL     1      47.128   7.110  15.344  0.00  0.00    +0.000 HD
BRANCH  17  24
ATOM     21  C   UNL     1      48.005   5.719  20.448  0.00  0.00    +0.000 C 
ATOM     22  N   UNL     1      48.179   6.551  19.280  0.00  0.00    +0.000 N 
ATOM     23  N   UNL     1      48.631   6.002  18.139  0.00  0.00    +0.000 NA
ATOM     24  C   UNL     1      48.654   7.031  17.262  0.00  0.00    +0.000 A 
ATOM     25  C   UNL     1      48.227   8.247  17.886  0.00  0.00    +0.000 A 
ATOM     26  C   UNL     1      48.061   9.586  17.505  0.00  0.00    +0.000 A 
ATOM     27  C   UNL     1      47.609  10.457  18.489  0.00  0.00    +0.000 A 
ATOM     28  N   UNL     1      47.319  10.102  19.761  0.00  0.00    +0.000 NA
ATOM     29  C   UNL     1      47.474   8.814  20.134  0.00  0.00    +0.000 A 
ATOM     30  C   UNL     1      47.929   7.892  19.199  0.00  0.00    +0.000 A 
ENDBRANCH  17  24
ENDBRANCH   1  19
TORSDOF 7
ENDMDL
MODEL 4
REMARK VINA RESULT:    -7.238      2.565      4.728
REMARK INTER + INTRA:         -11.191
REMARK INTER:                 -10.206
REMARK INTRA:                  -0.986
REMARK UNBOUND:                -0.992
REMARK  Name = 
REMARK  8 active torsions:
REMARK  status: ('A' for Active; 'I' for Inactive)
REMARK    1  A    between atoms: C_1  and  N_2
REMARK    2  A    between atoms: C_4  and  C_5
REMARK    3  A    between atoms: N_7  and  C_8
REMARK    4  A    between atoms: C_8  and  C_9
REMARK    5  A    between atoms: C_12  and  C_13
REMARK    6  A    between atoms: C_13  and  O_14
REMARK    7  A    between atoms: O_14  and  C_15
REMARK    8  A    between atoms: C_15  and  C_16
REMARK                            x       y       z     vdW  Elec       q    Type
REMARK                         _______ _______ _______ _____ _____    ______ ____
ROOT
ATOM      1  C   UNL     1      47.636   5.720  14.416  0.00  0.00    +0.000 C 
ENDROOT
BRANCH   1   2
ATOM      2  C   UNL     1      46.495   5.100  13.658  0.00  0.00    +0.000 A 
ATOM      3  C   UNL     1      46.495   3.750  13.300  0.00  0.00    +0.000 A 
ATOM      4  C   UNL     1      45.453   3.235  12.524  0.00  0.00    +0.000 A 
ATOM      5  C   UNL     1      44.421   4.079  12.122  0.00  0.00    +0.000 A 
ATOM      6  N   UNL     1      44.384   5.387  12.485  0.00  0.00    +0.000 NA
ATOM      7  C   UNL     1      45.405   5.857  13.246  0.00  0.00    +0.000 A 
BRANCH   5   8
ATOM      8  C   UNL     1      43.325   3.564  11.210  0.00  0.00    +0.000 C 
BRANCH   8   9
ATOM      9  O   UNL     1      43.893   2.871  10.101  0.00  0.00    +0.000 OA
BRANCH   9  10
ATOM     10  C   UNL     1      44.454   3.759   9.135  0.00  0.00    +0.000 C 
BRANCH  10  11
ATOM     11  C   UNL     1      45.448   3.006   8.282  0.00  0.00    +0.000 A 
ATOM     12  C   UNL     1      45.764   1.667   8.557  0.00  0.00    +0.000 A 
ATOM     13  C   UNL     1      46.696   0.977   7.783  0.00  0.00    +0.000 A 
ATOM     14  C   UNL     1      47.310   1.611   6.706  0.00  0.00    +0.000 A 
ATOM     15  C   UNL     1      46.981   2.928   6.395  0.00  0.00    +0.000 A 
ATOM     16  C   UNL     1      46.049   3.622   7.174  0.00  0.00    +0.000 A 
ENDBRANCH  10  11
ENDBRANCH   9  10
ENDBRANCH   8   9
ENDBRANCH   5   8
ENDBRANCH   1   2
BRANCH   1  19
ATOM     17  C   UNL     1      48.554   7.600  13.098  0.00  0.00    +0.000 C 
ATOM     18  O   UNL     1      49.121   6.864  12.292  0.00  0.00    +0.000 OA
ATOM     19  N   UNL     1      47.802   7.126  14.159  0.00  0.00    +0.000 N 
ATOM     20  H   UNL     1      47.427   7.831  14.790  0.00  0.00    +0.000 HD
BRANCH  17  24
ATOM     21  C   UNL     1      50.344  12.054  13.658  0.00  0.00    +0.000 C 
ATOM     22  N   UNL     1      49.392  11.036  13.279  0.00  0.00    +0.000 N 
ATOM     23  N   UNL     1      49.701   9.740  13.466  0.00  0.00    +0.000 NA
ATOM     24  C   UNL     1      48.607   9.074  13.034  0.00  0.00    +0.000 A 
ATOM     25  C   UNL     1      47.610   9.980  12.550  0.00  0.00    +0.000 A 
ATOM     26  C   UNL     1      46.327   9.884  11.991  0.00  0.00    +0.000 A 
ATOM     27  C   UNL     1      45.710  11.082  11.651  0.00  0.00    +0.000 A 
ATOM     28  N   UNL     1      46.252  12.307  11.827  0.00  0.00    +0.000 NA
ATOM     29  C   UNL     1      47.486  12.408  12.368  0.00  0.00    +0.000 A 
ATOM     30  C   UNL     1      48.161  11.247  12.725  0.00  0.00    +0.000 A 
ENDBRANCH  17  24
ENDBRANCH   1  19
TORSDOF 7
ENDMDL
MODEL 5
REMARK VINA RESULT:    -7.235      2.084      3.719
REMARK INTER + INTRA:         -11.187
REMARK INTER:                 -10.305
REMARK INTRA:                  -0.882
REMARK UNBOUND:                -0.992
REMARK  Name = 
REMARK  8 active torsions:
REMARK  status: ('A' for Active; 'I' for Inactive)
REMARK    1  A    between atoms: C_1  and  N_2
REMARK    2  A    between atoms: C_4  and  C_5
REMARK    3  A    between atoms: N_7  and  C_8
REMARK    4  A    between atoms: C_8  and  C_9
REMARK    5  A    between atoms: C_12  and  C_13
REMARK    6  A    between atoms: C_13  and  O_14
REMARK    7  A    between atoms: O_14  and  C_15
REMARK    8  A    between atoms: C_15  and  C_16
REMARK                            x       y       z     vdW  Elec       q    Type
REMARK                         _______ _______ _______ _____ _____    ______ ____
ROOT
ATOM      1  C   UNL     1      44.775   4.875  13.303  0.00  0.00    +0.000 C 
ENDROOT
BRANCH   1   2
ATOM      2  C   UNL     1      44.711   4.501  11.848  0.00  0.00    +0.000 A 
ATOM      3  C   UNL     1      44.282   3.240  11.429  0.00  0.00    +0.000 A 
ATOM      4  C   UNL     1      44.318   2.907  10.072  0.00  0.00    +0.000 A 
ATOM      5  C   UNL     1      44.777   3.845   9.152  0.00  0.00    +0.000 A 
ATOM      6  N   UNL     1      45.170   5.087   9.532  0.00  0.00    +0.000 NA
ATOM      7  C   UNL     1      45.117   5.386  10.855  0.00  0.00    +0.000 A 
BRANCH   5   8
ATOM      8  C   UNL     1      44.905   3.478   7.686  0.00  0.00    +0.000 C 
BRANCH   8   9
ATOM      9  O   UNL     1      46.063   4.092   7.124  0.00  0.00    +0.000 OA
BRANCH   9  10
ATOM     10  C   UNL     1      47.217   3.256   7.211  0.00  0.00    +0.000 C 
BRANCH  10  11
ATOM     11  C   UNL     1      47.116   2.157   6.179  0.00  0.00    +0.000 A 
ATOM     12  C   UNL     1      46.925   2.460   4.822  0.00  0.00    +0.000 A 
ATOM     13  C   UNL     1      46.812   1.446   3.872  0.00  0.00    +0.000 A 
ATOM     14  C   UNL     1      46.911   0.113   4.262  0.00  0.00    +0.000 A 
ATOM     15  C   UNL     1      47.138  -0.204   5.599  0.00  0.00    +0.000 A 
ATOM     16  C   UNL     1      47.247   0.812   6.553  0.00  0.00    +0.000 A 
ENDBRANCH  10  11
ENDBRANCH   9  10
ENDBRANCH   8   9
ENDBRANCH   5   8
ENDBRANCH   1   2
BRANCH   1  19
ATOM     17  C   UNL     1      47.094   4.966  14.154  0.00  0.00    +0.000 C 
ATOM     18  O   UNL     1      47.171   3.749  14.311  0.00  0.00    +0.000 OA
ATOM     19  N   UNL     1      45.967   5.598  13.660  0.00  0.00    +0.000 N 
ATOM     20  H   UNL     1      46.004   6.615  13.627  0.00  0.00    +0.000 HD
BRANCH  17  24
ATOM     21  C   UNL     1      50.436   7.217  16.823  0.00  0.00    +0.000 C 
ATOM     22  N   UNL     1      49.665   6.892  15.646  0.00  0.00    +0.000 N 
ATOM     23  N   UNL     1      48.726   5.932  15.716  0.00  0.00    +0.000 NA
ATOM     24  C   UNL     1      48.192   5.899  14.474  0.00  0.00    +0.000 A 
ATOM     25  C   UNL     1      48.833   6.848  13.614  0.00  0.00    +0.000 A 
ATOM     26  C   UNL     1      48.725   7.248  12.274  0.00  0.00    +0.000 A 
ATOM     27  C   UNL     1      49.597   8.246  11.855  0.00  0.00    +0.000 A 
ATOM     28  N   UNL     1      50.517   8.848  12.641  0.00  0.00    +0.000 NA
ATOM     29  C   UNL     1      50.624   8.470  13.933  0.00  0.00    +0.000 A 
ATOM     30  C   UNL     1      49.786   7.472  14.415  0.00  0.00    +0.000 A 
ENDBRANCH  17  24
ENDBRANCH   1  19
TORSDOF 7
ENDMDL
MODEL 6
REMARK VINA RESULT:    -6.852      2.824      4.748
REMARK INTER + INTRA:         -10.648
REMARK INTER:                 -10.284
REMARK INTRA:                  -0.365
REMARK UNBOUND:                -0.992
REMARK  Name = 
REMARK  8 active torsions:
REMARK  status: ('A' for Active; 'I' for Inactive)
REMARK    1  A    between atoms: C_1  and  N_2
REMARK    2  A    between atoms: C_4  and  C_5
REMARK    3  A    between atoms: N_7  and  C_8
REMARK    4  A    between atoms: C_8  and  C_9
REMARK    5  A    between atoms: C_12  and  C_13
REMARK    6  A    between atoms: C_13  and  O_14
REMARK    7  A    between atoms: O_14  and  C_15
REMARK    8  A    between atoms: C_15  and  C_16
REMARK                            x       y       z     vdW  Elec       q    Type
REMARK                         _______ _______ _______ _____ _____    ______ ____
ROOT
ATOM      1  C   UNL     1      44.045   3.249  11.424  0.00  0.00    +0.000 C 
ENDROOT
BRANCH   1   2
ATOM      2  C   UNL     1      44.704   3.181  10.075  0.00  0.00    +0.000 A 
ATOM      3  C   UNL     1      45.009   1.963   9.463  0.00  0.00    +0.000 A 
ATOM      4  C   UNL     1      45.697   1.947   8.247  0.00  0.00    +0.000 A 
ATOM      5  C   UNL     1      46.066   3.153   7.656  0.00  0.00    +0.000 A 
ATOM      6  N   UNL     1      45.754   4.349   8.217  0.00  0.00    +0.000 NA
ATOM      7  C   UNL     1      45.078   4.334   9.394  0.00  0.00    +0.000 A 
BRANCH   5   8
ATOM      8  C   UNL     1      46.887   3.159   6.382  0.00  0.00    +0.000 C 
BRANCH   8   9
ATOM      9  O   UNL     1      46.281   2.319   5.402  0.00  0.00    +0.000 OA
BRANCH   9  10
ATOM     10  C   UNL     1      47.199   1.922   4.383  0.00  0.00    +0.000 C 
BRANCH  10  11
ATOM     11  C   UNL     1      46.698   0.658   3.724  0.00  0.00    +0.000 A 
ATOM     12  C   UNL     1      45.817   0.716   2.633  0.00  0.00    +0.000 A 
ATOM     13  C   UNL     1      45.339  -0.450   2.037  0.00  0.00    +0.000 A 
ATOM     14  C   UNL     1      45.752  -1.693   2.509  0.00  0.00    +0.000 A 
ATOM     15  C   UNL     1      46.656  -1.768   3.567  0.00  0.00    +0.000 A 
ATOM     16  C   UNL     1      47.133  -0.599   4.168  0.00  0.00    +0.000 A 
ENDBRANCH  10  11
ENDBRANCH   9  10
ENDBRANCH   8   9
ENDBRANCH   5   8
ENDBRANCH   1   2
BRANCH   1  19
ATOM     17  C   UNL     1      45.375   4.815  12.798  0.00  0.00    +0.000 C 
ATOM     18  O   UNL     1      44.990   5.809  12.184  0.00  0.00    +0.000 OA
ATOM     19  N   UNL     1      44.959   3.530  12.499  0.00  0.00    +0.000 N 
ATOM     20  H   UNL     1      45.390   2.785  13.042  0.00  0.00    +0.000 HD
BRANCH  17  24
ATOM     21  C   UNL     1      47.481   3.561  16.964  0.00  0.00    +0.000 C 
ATOM     22  N   UNL     1      47.258   4.323  15.757  0.00  0.00    +0.000 N 
ATOM     23  N   UNL     1      46.277   3.954  14.914  0.00  0.00    +0.000 NA
ATOM     24  C   UNL     1      46.329   4.872  13.923  0.00  0.00    +0.000 A 
ATOM     25  C   UNL     1      47.381   5.815  14.151  0.00  0.00    +0.000 A 
ATOM     26  C   UNL     1      47.907   6.938  13.495  0.00  0.00    +0.000 A 
ATOM     27  C   UNL     1      48.982   7.567  14.110  0.00  0.00    +0.000 A 
ATOM     28  N   UNL     1      49.539   7.178  15.279  0.00  0.00    +0.000 NA
ATOM     29  C   UNL     1      49.036   6.100  15.919  0.00  0.00    +0.000 A 
ATOM     30  C   UNL     1      47.963   5.421  15.354  0.00  0.00    +0.000 A 
ENDBRANCH  17  24
ENDBRANCH   1  19
TORSDOF 7
ENDMDL
MODEL 7
REMARK VINA RESULT:    -6.756      2.510      8.262
REMARK INTER + INTRA:         -10.513
REMARK INTER:                  -9.140
REMARK INTRA:                  -1.372
REMARK UNBOUND:                -0.992
REMARK  Name = 
REMARK  8 active torsions:
REMARK  status: ('A' for Active; 'I' for Inactive)
REMARK    1  A    between atoms: C_1  and  N_2
REMARK    2  A    between atoms: C_4  and  C_5
REMARK    3  A    between atoms: N_7  and  C_8
REMARK    4  A    between atoms: C_8  and  C_9
REMARK    5  A    between atoms: C_12  and  C_13
REMARK    6  A    between atoms: C_13  and  O_14
REMARK    7  A    between atoms: O_14  and  C_15
REMARK    8  A    between atoms: C_15  and  C_16
REMARK                            x       y       z     vdW  Elec       q    Type
REMARK                         _______ _______ _______ _____ _____    ______ ____
ROOT
ATOM      1  C   UNL     1      48.362   8.351  12.417  0.00  0.00    +0.000 C 
ENDROOT
BRANCH   1   2
ATOM      2  C   UNL     1      48.567   8.162  13.895  0.00  0.00    +0.000 A 
ATOM      3  C   UNL     1      48.979   6.941  14.432  0.00  0.00    +0.000 A 
ATOM      4  C   UNL     1      49.076   6.786  15.817  0.00  0.00    +0.000 A 
ATOM      5  C   UNL     1      48.764   7.860  16.647  0.00  0.00    +0.000 A 
ATOM      6  N   UNL     1      48.391   9.066  16.147  0.00  0.00    +0.000 NA
ATOM      7  C   UNL     1      48.314   9.189  14.797  0.00  0.00    +0.000 A 
BRANCH   5   8
ATOM      8  C   UNL     1      48.779   7.691  18.154  0.00  0.00    +0.000 C 
BRANCH   8   9
ATOM      9  O   UNL     1      47.833   6.699  18.547  0.00  0.00    +0.000 OA
BRANCH   9  10
ATOM     10  C   UNL     1      48.435   5.639  19.290  0.00  0.00    +0.000 C 
BRANCH  10  11
ATOM     11  C   UNL     1      48.656   4.454  18.378  0.00  0.00    +0.000 A 
ATOM     12  C   UNL     1      49.928   3.876  18.247  0.00  0.00    +0.000 A 
ATOM     13  C   UNL     1      50.137   2.795  17.391  0.00  0.00    +0.000 A 
ATOM     14  C   UNL     1      49.072   2.262  16.670  0.00  0.00    +0.000 A 
ATOM     15  C   UNL     1      47.795   2.800  16.818  0.00  0.00    +0.000 A 
ATOM     16  C   UNL     1      47.585   3.886  17.673  0.00  0.00    +0.000 A 
ENDBRANCH  10  11
ENDBRANCH   9  10
ENDBRANCH   8   9
ENDBRANCH   5   8
ENDBRANCH   1   2
BRANCH   1  19
ATOM     17  C   UNL     1      46.262   7.236  11.744  0.00  0.00    +0.000 C 
ATOM     18  O   UNL     1      45.547   8.120  12.213  0.00  0.00    +0.000 OA
ATOM     19  N   UNL     1      47.644   7.273  11.792  0.00  0.00    +0.000 N 
ATOM     20  H   UNL     1      48.125   6.457  11.419  0.00  0.00    +0.000 HD
BRANCH  17  24
ATOM     21  C   UNL     1      45.467   4.061   8.188  0.00  0.00    +0.000 C 
ATOM     22  N   UNL     1      45.382   4.630   9.512  0.00  0.00    +0.000 N 
ATOM     23  N   UNL     1      46.039   5.772   9.784  0.00  0.00    +0.000 NA
ATOM     24  C   UNL     1      45.734   6.030  11.075  0.00  0.00    +0.000 A 
ATOM     25  C   UNL     1      44.887   5.011  11.617  0.00  0.00    +0.000 A 
ATOM     26  C   UNL     1      44.278   4.738  12.851  0.00  0.00    +0.000 A 
ATOM     27  C   UNL     1      43.515   3.579  12.921  0.00  0.00    +0.000 A 
ATOM     28  N   UNL     1      43.321   2.719  11.896  0.00  0.00    +0.000 NA
ATOM     29  C   UNL     1      43.902   2.977  10.704  0.00  0.00    +0.000 A 
ATOM     30  C   UNL     1      44.683   4.118  10.569  0.00  0.00    +0.000 A 
ENDBRANCH  17  24
ENDBRANCH   1  19
TORSDOF 7
ENDMDL
MODEL 8
REMARK VINA RESULT:    -6.617      2.161      8.740
REMARK INTER + INTRA:         -10.316
REMARK INTER:                  -9.319
REMARK INTRA:                  -0.997
REMARK UNBOUND:                -0.992
REMARK  Name = 
REMARK  8 active torsions:
REMARK  status: ('A' for Active; 'I' for Inactive)
REMARK    1  A    between atoms: C_1  and  N_2
REMARK    2  A    between atoms: C_4  and  C_5
REMARK    3  A    between atoms: N_7  and  C_8
REMARK    4  A    between atoms: C_8  and  C_9
REMARK    5  A    between atoms: C_12  and  C_13
REMARK    6  A    between atoms: C_13  and  O_14
REMARK    7  A    between atoms: O_14  and  C_15
REMARK    8  A    between atoms: C_15  and  C_16
REMARK                            x       y       z     vdW  Elec       q    Type
REMARK                         _______ _______ _______ _____ _____    ______ ____
ROOT
ATOM      1  C   UNL     1      47.132   8.091  12.353  0.00  0.00    +0.000 C 
ENDROOT
BRANCH   1   2
ATOM      2  C   UNL     1      47.873   7.961  13.655  0.00  0.00    +0.000 A 
ATOM      3  C   UNL     1      48.077   9.054  14.500  0.00  0.00    +0.000 A 
ATOM      4  C   UNL     1      48.843   8.907  15.659  0.00  0.00    +0.000 A 
ATOM      5  C   UNL     1      49.391   7.662  15.960  0.00  0.00    +0.000 A 
ATOM      6  N   UNL     1      49.181   6.578  15.170  0.00  0.00    +0.000 NA
ATOM      7  C   UNL     1      48.425   6.750  14.055  0.00  0.00    +0.000 A 
BRANCH   5   8
ATOM      8  C   UNL     1      50.295   7.497  17.165  0.00  0.00    +0.000 C 
BRANCH   8   9
ATOM      9  O   UNL     1      49.516   7.264  18.337  0.00  0.00    +0.000 OA
BRANCH   9  10
ATOM     10  C   UNL     1      49.859   6.038  18.983  0.00  0.00    +0.000 C 
BRANCH  10  11
ATOM     11  C   UNL     1      49.167   4.893  18.280  0.00  0.00    +0.000 A 
ATOM     12  C   UNL     1      47.783   4.918  18.057  0.00  0.00    +0.000 A 
ATOM     13  C   UNL     1      47.141   3.852  17.426  0.00  0.00    +0.000 A 
ATOM     14  C   UNL     1      47.879   2.756  16.988  0.00  0.00    +0.000 A 
ATOM     15  C   UNL     1      49.261   2.732  17.169  0.00  0.00    +0.000 A 
ATOM     16  C   UNL     1      49.904   3.798  17.805  0.00  0.00    +0.000 A 
ENDBRANCH  10  11
ENDBRANCH   9  10
ENDBRANCH   8   9
ENDBRANCH   5   8
ENDBRANCH   1   2
BRANCH   1  19
ATOM     17  C   UNL     1      45.281   6.761  11.396  0.00  0.00    +0.000 C 
ATOM     18  O   UNL     1      44.523   7.726  11.314  0.00  0.00    +0.000 OA
ATOM     19  N   UNL     1      46.573   6.852  11.882  0.00  0.00    +0.000 N 
ATOM     20  H   UNL     1      47.086   5.975  11.952  0.00  0.00    +0.000 HD
BRANCH  17  24
ATOM     21  C   UNL     1      43.246   2.388  11.691  0.00  0.00    +0.000 C 
ATOM     22  N   UNL     1      44.012   3.467  11.113  0.00  0.00    +0.000 N 
ATOM     23  N   UNL     1      44.125   4.629  11.781  0.00  0.00    +0.000 NA
ATOM     24  C   UNL     1      44.907   5.393  10.987  0.00  0.00    +0.000 A 
ATOM     25  C   UNL     1      45.266   4.692   9.791  0.00  0.00    +0.000 A 
ATOM     26  C   UNL     1      46.016   4.959   8.636  0.00  0.00    +0.000 A 
ATOM     27  C   UNL     1      46.089   3.938   7.697  0.00  0.00    +0.000 A 
ATOM     28  N   UNL     1      45.500   2.728   7.824  0.00  0.00    +0.000 NA
ATOM     29  C   UNL     1      44.779   2.463   8.934  0.00  0.00    +0.000 A 
ATOM     30  C   UNL     1      44.662   3.443   9.912  0.00  0.00    +0.000 A 
ENDBRANCH  17  24
ENDBRANCH   1  19
TORSDOF 7
ENDMDL
MODEL 9
REMARK VINA RESULT:    -6.593      3.464      5.300
REMARK INTER + INTRA:         -10.283
REMARK INTER:                  -9.619
REMARK INTRA:                  -0.664
REMARK UNBOUND:                -0.992
REMARK  Name = 
REMARK  8 active torsions:
REMARK  status: ('A' for Active; 'I' for Inactive)
REMARK    1  A    between atoms: C_1  and  N_2
REMARK    2  A    between atoms: C_4  and  C_5
REMARK    3  A    between atoms: N_7  and  C_8
REMARK    4  A    between atoms: C_8  and  C_9
REMARK    5  A    between atoms: C_12  and  C_13
REMARK    6  A    between atoms: C_13  and  O_14
REMARK    7  A    between atoms: O_14  and  C_15
REMARK    8  A    between atoms: C_15  and  C_16
REMARK                            x       y       z     vdW  Elec       q    Type
REMARK                         _______ _______ _______ _____ _____    ______ ____
ROOT
ATOM      1  C   UNL     1      48.009   6.463  13.623  0.00  0.00    +0.000 C 
ENDROOT
BRANCH   1   2
ATOM      2  C   UNL     1      46.800   5.853  12.970  0.00  0.00    +0.000 A 
ATOM      3  C   UNL     1      46.283   4.622  13.379  0.00  0.00    +0.000 A 
ATOM      4  C   UNL     1      45.209   4.053  12.689  0.00  0.00    +0.000 A 
ATOM      5  C   UNL     1      44.662   4.729  11.601  0.00  0.00    +0.000 A 
ATOM      6  N   UNL     1      45.128   5.941  11.205  0.00  0.00    +0.000 NA
ATOM      7  C   UNL     1      46.166   6.473  11.899  0.00  0.00    +0.000 A 
BRANCH   5   8
ATOM      8  C   UNL     1      43.554   4.093  10.786  0.00  0.00    +0.000 C 
BRANCH   8   9
ATOM      9  O   UNL     1      44.103   3.188   9.830  0.00  0.00    +0.000 OA
BRANCH   9  10
ATOM     10  C   UNL     1      44.570   3.854   8.657  0.00  0.00    +0.000 C 
BRANCH  10  11
ATOM     11  C   UNL     1      45.584   2.980   7.956  0.00  0.00    +0.000 A 
ATOM     12  C   UNL     1      45.845   1.678   8.407  0.00  0.00    +0.000 A 
ATOM     13  C   UNL     1      46.795   0.878   7.774  0.00  0.00    +0.000 A 
ATOM     14  C   UNL     1      47.483   1.361   6.664  0.00  0.00    +0.000 A 
ATOM     15  C   UNL     1      47.209   2.639   6.179  0.00  0.00    +0.000 A 
ATOM     16  C   UNL     1      46.259   3.443   6.817  0.00  0.00    +0.000 A 
ENDBRANCH  10  11
ENDBRANCH   9  10
ENDBRANCH   8   9
ENDBRANCH   5   8
ENDBRANCH   1   2
BRANCH   1  19
ATOM     17  C   UNL     1      48.908   8.724  13.191  0.00  0.00    +0.000 C 
ATOM     18  O   UNL     1      48.548   9.164  14.282  0.00  0.00    +0.000 OA
ATOM     19  N   UNL     1      48.693   7.417  12.793  0.00  0.00    +0.000 N 
ATOM     20  H   UNL     1      48.987   7.186  11.846  0.00  0.00    +0.000 HD
BRANCH  17  24
ATOM     21  C   UNL     1      49.691  12.373  10.119  0.00  0.00    +0.000 C 
ATOM     22  N   UNL     1      49.957  11.141  10.824  0.00  0.00    +0.000 N 
ATOM     23  N   UNL     1      49.074  10.696  11.735  0.00  0.00    +0.000 NA
ATOM     24  C   UNL     1      49.609   9.536  12.177  0.00  0.00    +0.000 A 
ATOM     25  C   UNL     1      50.862   9.272  11.537  0.00  0.00    +0.000 A 
ATOM     26  C   UNL     1      51.846   8.273  11.590  0.00  0.00    +0.000 A 
ATOM     27  C   UNL     1      52.945   8.443  10.757  0.00  0.00    +0.000 A 
ATOM     28  N   UNL     1      53.120   9.483   9.912  0.00  0.00    +0.000 NA
ATOM     29  C   UNL     1      52.176  10.447   9.853  0.00  0.00    +0.000 A 
ATOM     30  C   UNL     1      51.053  10.340  10.666  0.00  0.00    +0.000 A 
ENDBRANCH  17  24
ENDBRANCH   1  19
TORSDOF 7
ENDMDL
