MODEL 1
REMARK VINA RESULT:    -8.120      0.000      0.000
REMARK INTER + INTRA:         -11.990
REMARK INTER:                 -10.969
REMARK INTRA:                  -1.021
REMARK UNBOUND:                -1.021
REMARK  Name = 
REMARK  6 active torsions:
REMARK  status: ('A' for Active; 'I' for Inactive)
REMARK    1  A    between atoms: C_2  and  C_4
REMARK    2  A    between atoms: C_7  and  N_8
REMARK    3  A    between atoms: N_8  and  C_9
REMARK    4  A    between atoms: C_9  and  C_10
REMARK    5  A    between atoms: C_10  and  C_11
REMARK    6  A    between atoms: C_15  and  C_16
REMARK                            x       y       z     vdW  Elec       q    Type
REMARK                         _______ _______ _______ _____ _____    ______ ____
ROOT
ATOM      1  C   UNL     1      43.408   5.207  10.614  0.00  0.00    +0.000 C 
ENDROOT
BRANCH   1   2
ATOM      2  N   UNL     1      43.639   3.788  10.368  0.00  0.00    +0.000 N 
ATOM      3  H   UNL     1      43.587   3.193  11.192  0.00  0.00    +0.000 HD
BRANCH   2   7
ATOM      4  C   UNL     1      46.563   2.473   7.615  0.00  0.00    +0.000 A 
ATOM      5  C   UNL     1      46.291   3.836   7.728  0.00  0.00    +0.000 A 
ATOM      6  C   UNL     1      45.339   4.287   8.651  0.00  0.00    +0.000 A 
ATOM      7  C   UNL     1      44.662   3.400   9.498  0.00  0.00    +0.000 A 
ATOM      8  C   UNL     1      44.943   2.032   9.365  0.00  0.00    +0.000 A 
ATOM      9  C   UNL     1      45.879   1.569   8.431  0.00  0.00    +0.000 A 
BRANCH   4  11
ATOM     10  N   UNL     1      48.617   2.723   6.329  0.00  0.00    +0.000 N 
ATOM     11  C   UNL     1      47.525   1.949   6.612  0.00  0.00    +0.000 C 
ATOM     12  O   UNL     1      47.368   0.861   6.073  0.00  0.00    +0.000 OA
ATOM     13  H   UNL     1      49.305   2.318   5.708  0.00  0.00    +0.000 HD
ATOM     14  H   UNL     1      48.903   3.496   6.911  0.00  0.00    +0.000 HD
ENDBRANCH   4  11
ENDBRANCH   2   7
ENDBRANCH   1   2
BRANCH   1  15
ATOM     15  C   UNL     1      43.370   5.511  12.114  0.00  0.00    +0.000 C 
BRANCH  15  16
ATOM     16  C   UNL     1      44.776   5.605  12.657  0.00  0.00    +0.000 A 
ATOM     17  C   UNL     1      45.293   4.590  13.466  0.00  0.00    +0.000 A 
ATOM     18  C   UNL     1      46.613   4.652  13.900  0.00  0.00    +0.000 A 
ATOM     19  C   UNL     1      47.429   5.720  13.517  0.00  0.00    +0.000 A 
ATOM     20  C   UNL     1      46.958   6.746  12.680  0.00  0.00    +0.000 A 
ATOM     21  C   UNL     1      45.612   6.669  12.273  0.00  0.00    +0.000 A 
BRANCH  20  22
ATOM     22  C   UNL     1      47.846   7.840  12.214  0.00  0.00    +0.000 A 
ATOM     23  C   UNL     1      49.165   7.586  11.790  0.00  0.00    +0.000 A 
ATOM     24  C   UNL     1      50.015   8.619  11.373  0.00  0.00    +0.000 A 
ATOM     25  C   UNL     1      49.563   9.936  11.356  0.00  0.00    +0.000 A 
ATOM     26  C   UNL     1      48.264  10.217  11.762  0.00  0.00    +0.000 A 
ATOM     27  C   UNL     1      47.427   9.184  12.190  0.00  0.00    +0.000 A 
ATOM     28  F   UNL     1      46.197   9.526  12.604  0.00  0.00    +0.000 F 
ENDBRANCH  20  22
ENDBRANCH  15  16
ENDBRANCH   1  15
TORSDOF 6
ENDMDL
MODEL 2
REMARK VINA RESULT:    -8.094      1.939      3.622
REMARK INTER + INTRA:         -11.954
REMARK INTER:                 -10.958
REMARK INTRA:                  -0.996
REMARK UNBOUND:                -1.021
REMARK  Name = 
REMARK  6 active torsions:
REMARK  status: ('A' for Active; 'I' for Inactive)
REMARK    1  A    between atoms: C_2  and  C_4
REMARK    2  A    between atoms: C_7  and  N_8
REMARK    3  A    between atoms: N_8  and  C_9
REMARK    4  A    between atoms: C_9  and  C_10
REMARK    5  A    between atoms: C_10  and  C_11
REMARK    6  A    between atoms: C_15  and  C_16
REMARK                            x       y       z     vdW  Elec       q    Type
REMARK                         _______ _______ _______ _____ _____    ______ ____
ROOT
ATOM      1  C   UNL     1      43.365   4.713  10.796  0.00  0.00    +0.000 C 
ENDROOT
BRANCH   1   2
ATOM      2  N   UNL     1      44.020   3.425  10.593  0.00  0.00    +0.000 N 
ATOM      3  H   UNL     1      44.345   2.967  11.441  0.00  0.00    +0.000 HD
BRANCH   2   7
ATOM      4  C   UNL     1      46.554   2.814   7.266  0.00  0.00    +0.000 A 
ATOM      5  C   UNL     1      46.181   4.112   7.615  0.00  0.00    +0.000 A 
ATOM      6  C   UNL     1      45.359   4.329   8.727  0.00  0.00    +0.000 A 
ATOM      7  C   UNL     1      44.915   3.270   9.530  0.00  0.00    +0.000 A 
ATOM      8  C   UNL     1      45.293   1.972   9.160  0.00  0.00    +0.000 A 
ATOM      9  C   UNL     1      46.099   1.741   8.037  0.00  0.00    +0.000 A 
BRANCH   4  11
ATOM     10  N   UNL     1      48.736   2.503   6.230  0.00  0.00    +0.000 N 
ATOM     11  C   UNL     1      47.379   2.536   6.064  0.00  0.00    +0.000 C 
ATOM     12  O   UNL     1      46.874   2.321   4.969  0.00  0.00    +0.000 OA
ATOM     13  H   UNL     1      49.282   2.230   5.424  0.00  0.00    +0.000 HD
ATOM     14  H   UNL     1      49.173   2.438   7.139  0.00  0.00    +0.000 HD
ENDBRANCH   4  11
ENDBRANCH   2   7
ENDBRANCH   1   2
BRANCH   1  15
ATOM     15  C   UNL     1      43.567   5.218  12.227  0.00  0.00    +0.000 C 
BRANCH  15  16
ATOM     16  C   UNL     1      45.029   5.500  12.473  0.00  0.00    +0.000 A 
ATOM     17  C   UNL     1      45.741   6.347  11.621  0.00  0.00    +0.000 A 
ATOM     18  C   UNL     1      47.069   6.657  11.900  0.00  0.00    +0.000 A 
ATOM     19  C   UNL     1      47.688   6.135  13.039  0.00  0.00    +0.000 A 
ATOM     20  C   UNL     1      46.999   5.303  13.939  0.00  0.00    +0.000 A 
ATOM     21  C   UNL     1      45.663   4.988  13.620  0.00  0.00    +0.000 A 
BRANCH  20  22
ATOM     22  C   UNL     1      47.634   4.809  15.186  0.00  0.00    +0.000 A 
ATOM     23  C   UNL     1      47.539   3.457  15.572  0.00  0.00    +0.000 A 
ATOM     24  C   UNL     1      48.115   2.991  16.761  0.00  0.00    +0.000 A 
ATOM     25  C   UNL     1      48.815   3.863  17.591  0.00  0.00    +0.000 A 
ATOM     26  C   UNL     1      48.931   5.200  17.233  0.00  0.00    +0.000 A 
ATOM     27  C   UNL     1      48.342   5.661  16.054  0.00  0.00    +0.000 A 
ATOM     28  F   UNL     1      48.459   6.971  15.784  0.00  0.00    +0.000 F 
ENDBRANCH  20  22
ENDBRANCH  15  16
ENDBRANCH   1  15
TORSDOF 6
ENDMDL
MODEL 3
REMARK VINA RESULT:    -7.471      3.939      7.405
REMARK INTER + INTRA:         -11.113
REMARK INTER:                 -10.231
REMARK INTRA:                  -0.882
REMARK UNBOUND:                -1.021
REMARK  Name = 
REMARK  6 active torsions:
REMARK  status: ('A' for Active; 'I' for Inactive)
REMARK    1  A    between atoms: C_2  and  C_4
REMARK    2  A    between atoms: C_7  and  N_8
REMARK    3  A    between atoms: N_8  and  C_9
REMARK    4  A    between atoms: C_9  and  C_10
REMARK    5  A    between atoms: C_10  and  C_11
REMARK    6  A    between atoms: C_15  and  C_16
REMARK                            x       y       z     vdW  Elec       q    Type
REMARK                         _______ _______ _______ _____ _____    ______ ____
ROOT
ATOM      1  C   UNL     1      47.601   7.269  12.000  0.00  0.00    +0.000 C 
ENDROOT
BRANCH   1   2
ATOM      2  N   UNL     1      48.315   7.361  13.269  0.00  0.00    +0.000 N 
ATOM      3  H   UNL     1      49.287   7.654  13.198  0.00  0.00    +0.000 HD
BRANCH   2   7
ATOM      4  C   UNL     1      47.654   4.526  16.333  0.00  0.00    +0.000 A 
ATOM      5  C   UNL     1      47.085   4.323  15.076  0.00  0.00    +0.000 A 
ATOM      6  C   UNL     1      47.313   5.244  14.046  0.00  0.00    +0.000 A 
ATOM      7  C   UNL     1      48.131   6.366  14.233  0.00  0.00    +0.000 A 
ATOM      8  C   UNL     1      48.689   6.558  15.505  0.00  0.00    +0.000 A 
ATOM      9  C   UNL     1      48.451   5.653  16.549  0.00  0.00    +0.000 A 
BRANCH   4  11
ATOM     10  N   UNL     1      48.181   3.738  18.576  0.00  0.00    +0.000 N 
ATOM     11  C   UNL     1      47.393   3.603  17.466  0.00  0.00    +0.000 C 
ATOM     12  O   UNL     1      46.498   2.769  17.427  0.00  0.00    +0.000 OA
ATOM     13  H   UNL     1      47.939   3.161  19.372  0.00  0.00    +0.000 HD
ATOM     14  H   UNL     1      48.757   4.550  18.741  0.00  0.00    +0.000 HD
ENDBRANCH   4  11
ENDBRANCH   2   7
ENDBRANCH   1   2
BRANCH   1  15
ATOM     15  C   UNL     1      46.122   7.626  12.169  0.00  0.00    +0.000 C 
BRANCH  15  16
ATOM     16  C   UNL     1      45.258   6.562  11.534  0.00  0.00    +0.000 A 
ATOM     17  C   UNL     1      43.888   6.512  11.797  0.00  0.00    +0.000 A 
ATOM     18  C   UNL     1      43.090   5.574  11.150  0.00  0.00    +0.000 A 
ATOM     19  C   UNL     1      43.655   4.689  10.227  0.00  0.00    +0.000 A 
ATOM     20  C   UNL     1      45.024   4.725   9.911  0.00  0.00    +0.000 A 
ATOM     21  C   UNL     1      45.811   5.671  10.597  0.00  0.00    +0.000 A 
BRANCH  20  22
ATOM     22  C   UNL     1      45.609   3.836   8.877  0.00  0.00    +0.000 A 
ATOM     23  C   UNL     1      46.321   4.357   7.778  0.00  0.00    +0.000 A 
ATOM     24  C   UNL     1      46.853   3.522   6.786  0.00  0.00    +0.000 A 
ATOM     25  C   UNL     1      46.701   2.141   6.875  0.00  0.00    +0.000 A 
ATOM     26  C   UNL     1      46.010   1.598   7.951  0.00  0.00    +0.000 A 
ATOM     27  C   UNL     1      45.469   2.436   8.928  0.00  0.00    +0.000 A 
ATOM     28  F   UNL     1      44.782   1.852   9.922  0.00  0.00    +0.000 F 
ENDBRANCH  20  22
ENDBRANCH  15  16
ENDBRANCH   1  15
TORSDOF 6
ENDMDL
MODEL 4
REMARK VINA RESULT:    -7.278      4.106      7.568
REMARK INTER + INTRA:         -10.852
REMARK INTER:                  -9.423
REMARK INTRA:                  -1.429
REMARK UNBOUND:                -1.021
REMARK  Name = 
REMARK  6 active torsions:
REMARK  status: ('A' for Active; 'I' for Inactive)
REMARK    1  A    between atoms: C_2  and  C_4
REMARK    2  A    between atoms: C_7  and  N_8
REMARK    3  A    between atoms: N_8  and  C_9
REMARK    4  A    between atoms: C_9  and  C_10
REMARK    5  A    between atoms: C_10  and  C_11
REMARK    6  A    between atoms: C_15  and  C_16
REMARK                            x       y       z     vdW  Elec       q    Type
REMARK                         _______ _______ _______ _____ _____    ______ ____
ROOT
ATOM      1  C   UNL     1      49.594   7.344  13.039  0.00  0.00    +0.000 C 
ENDROOT
BRANCH   1   2
ATOM      2  N   UNL     1      49.285   7.723  14.414  0.00  0.00    +0.000 N 
ATOM      3  H   UNL     1      49.944   8.369  14.842  0.00  0.00    +0.000 HD
BRANCH   2   7
ATOM      4  C   UNL     1      48.018   4.599  16.963  0.00  0.00    +0.000 A 
ATOM      5  C   UNL     1      48.968   5.513  17.418  0.00  0.00    +0.000 A 
ATOM      6  C   UNL     1      49.382   6.564  16.591  0.00  0.00    +0.000 A 
ATOM      7  C   UNL     1      48.841   6.747  15.311  0.00  0.00    +0.000 A 
ATOM      8  C   UNL     1      47.892   5.815  14.867  0.00  0.00    +0.000 A 
ATOM      9  C   UNL     1      47.486   4.747  15.679  0.00  0.00    +0.000 A 
BRANCH   4  11
ATOM     10  N   UNL     1      48.346   3.146  18.890  0.00  0.00    +0.000 N 
ATOM     11  C   UNL     1      47.593   3.439  17.786  0.00  0.00    +0.000 C 
ATOM     12  O   UNL     1      46.598   2.781  17.510  0.00  0.00    +0.000 OA
ATOM     13  H   UNL     1      47.999   2.408  19.487  0.00  0.00    +0.000 HD
ATOM     14  H   UNL     1      49.017   3.791  19.279  0.00  0.00    +0.000 HD
ENDBRANCH   4  11
ENDBRANCH   2   7
ENDBRANCH   1   2
BRANCH   1  15
ATOM     15  C   UNL     1      48.880   8.256  12.039  0.00  0.00    +0.000 C 
BRANCH  15  16
ATOM     16  C   UNL     1      47.419   7.884  11.952  0.00  0.00    +0.000 A 
ATOM     17  C   UNL     1      46.432   8.785  12.360  0.00  0.00    +0.000 A 
ATOM     18  C   UNL     1      45.088   8.459  12.208  0.00  0.00    +0.000 A 
ATOM     19  C   UNL     1      44.722   7.238  11.634  0.00  0.00    +0.000 A 
ATOM     20  C   UNL     1      45.682   6.317  11.182  0.00  0.00    +0.000 A 
ATOM     21  C   UNL     1      47.035   6.663  11.369  0.00  0.00    +0.000 A 
BRANCH  20  22
ATOM     22  C   UNL     1      45.293   5.054  10.506  0.00  0.00    +0.000 A 
ATOM     23  C   UNL     1      45.504   4.866   9.125  0.00  0.00    +0.000 A 
ATOM     24  C   UNL     1      45.115   3.685   8.478  0.00  0.00    +0.000 A 
ATOM     25  C   UNL     1      44.518   2.654   9.197  0.00  0.00    +0.000 A 
ATOM     26  C   UNL     1      44.304   2.808  10.562  0.00  0.00    +0.000 A 
ATOM     27  C   UNL     1      44.680   3.993  11.198  0.00  0.00    +0.000 A 
ATOM     28  F   UNL     1      44.413   4.094  12.509  0.00  0.00    +0.000 F 
ENDBRANCH  20  22
ENDBRANCH  15  16
ENDBRANCH   1  15
TORSDOF 6
ENDMDL
MODEL 5
REMARK VINA RESULT:    -7.242      1.327      2.064
REMARK INTER + INTRA:         -10.803
REMARK INTER:                  -9.621
REMARK INTRA:                  -1.183
REMARK UNBOUND:                -1.021
REMARK  Name = 
REMARK  6 active torsions:
REMARK  status: ('A' for Active; 'I' for Inactive)
REMARK    1  A    between atoms: C_2  and  C_4
REMARK    2  A    between atoms: C_7  and  N_8
REMARK    3  A    between atoms: N_8  and  C_9
REMARK    4  A    between atoms: C_9  and  C_10
REMARK    5  A    between atoms: C_10  and  C_11
REMARK    6  A    between atoms: C_15  and  C_16
REMARK                            x       y       z     vdW  Elec       q    Type
REMARK                         _______ _______ _______ _____ _____    ______ ____
ROOT
ATOM      1  C   UNL     1      43.990   4.816  12.345  0.00  0.00    +0.000 C 
ENDROOT
BRANCH   1   2
ATOM      2  N   UNL     1      43.373   4.165  11.194  0.00  0.00    +0.000 N 
ATOM      3  H   UNL     1      42.649   3.487  11.419  0.00  0.00    +0.000 HD
BRANCH   2   7
ATOM      4  C   UNL     1      45.998   3.019   8.086  0.00  0.00    +0.000 A 
ATOM      5  C   UNL     1      45.316   2.038   8.805  0.00  0.00    +0.000 A 
ATOM      6  C   UNL     1      44.428   2.405   9.823  0.00  0.00    +0.000 A 
ATOM      7  C   UNL     1      44.177   3.749  10.129  0.00  0.00    +0.000 A 
ATOM      8  C   UNL     1      44.877   4.722   9.402  0.00  0.00    +0.000 A 
ATOM      9  C   UNL     1      45.784   4.366   8.394  0.00  0.00    +0.000 A 
BRANCH   4  11
ATOM     10  N   UNL     1      47.010   3.453   5.914  0.00  0.00    +0.000 N 
ATOM     11  C   UNL     1      46.988   2.672   7.036  0.00  0.00    +0.000 C 
ATOM     12  O   UNL     1      47.773   1.742   7.170  0.00  0.00    +0.000 OA
ATOM     13  H   UNL     1      47.743   3.259   5.245  0.00  0.00    +0.000 HD
ATOM     14  H   UNL     1      46.556   4.354   5.867  0.00  0.00    +0.000 HD
ENDBRANCH   4  11
ENDBRANCH   2   7
ENDBRANCH   1   2
BRANCH   1  15
ATOM     15  C   UNL     1      45.205   4.029  12.842  0.00  0.00    +0.000 C 
BRANCH  15  16
ATOM     16  C   UNL     1      46.207   4.969  13.471  0.00  0.00    +0.000 A 
ATOM     17  C   UNL     1      46.857   4.622  14.657  0.00  0.00    +0.000 A 
ATOM     18  C   UNL     1      47.831   5.462  15.187  0.00  0.00    +0.000 A 
ATOM     19  C   UNL     1      48.170   6.647  14.528  0.00  0.00    +0.000 A 
ATOM     20  C   UNL     1      47.563   7.019  13.316  0.00  0.00    +0.000 A 
ATOM     21  C   UNL     1      46.565   6.160  12.814  0.00  0.00    +0.000 A 
BRANCH  20  22
ATOM     22  C   UNL     1      47.976   8.239  12.579  0.00  0.00    +0.000 A 
ATOM     23  C   UNL     1      47.135   9.367  12.497  0.00  0.00    +0.000 A 
ATOM     24  C   UNL     1      47.511  10.511  11.781  0.00  0.00    +0.000 A 
ATOM     25  C   UNL     1      48.744  10.564  11.138  0.00  0.00    +0.000 A 
ATOM     26  C   UNL     1      49.598   9.469  11.206  0.00  0.00    +0.000 A 
ATOM     27  C   UNL     1      49.211   8.326  11.910  0.00  0.00    +0.000 A 
ATOM     28  F   UNL     1      50.064   7.290  11.907  0.00  0.00    +0.000 F 
ENDBRANCH  20  22
ENDBRANCH  15  16
ENDBRANCH   1  15
TORSDOF 6
ENDMDL
MODEL 6
REMARK VINA RESULT:    -7.022      4.942      7.894
REMARK INTER + INTRA:         -10.507
REMARK INTER:                  -9.443
REMARK INTRA:                  -1.063
REMARK UNBOUND:                -1.021
REMARK  Name = 
REMARK  6 active torsions:
REMARK  status: ('A' for Active; 'I' for Inactive)
REMARK    1  A    between atoms: C_2  and  C_4
REMARK    2  A    between atoms: C_7  and  N_8
REMARK    3  A    between atoms: N_8  and  C_9
REMARK    4  A    between atoms: C_9  and  C_10
REMARK    5  A    between atoms: C_10  and  C_11
REMARK    6  A    between atoms: C_15  and  C_16
REMARK                            x       y       z     vdW  Elec       q    Type
REMARK                         _______ _______ _______ _____ _____    ______ ____
ROOT
ATOM      1  C   UNL     1      48.852   7.591  15.734  0.00  0.00    +0.000 C 
ENDROOT
BRANCH   1   2
ATOM      2  N   UNL     1      48.341   6.588  16.663  0.00  0.00    +0.000 N 
ATOM      3  H   UNL     1      47.828   6.959  17.459  0.00  0.00    +0.000 HD
BRANCH   2   7
ATOM      4  C   UNL     1      50.730   3.203  17.493  0.00  0.00    +0.000 A 
ATOM      5  C   UNL     1      51.308   4.472  17.514  0.00  0.00    +0.000 A 
ATOM      6  C   UNL     1      50.523   5.603  17.261  0.00  0.00    +0.000 A 
ATOM      7  C   UNL     1      49.148   5.502  17.012  0.00  0.00    +0.000 A 
ATOM      8  C   UNL     1      48.586   4.217  16.987  0.00  0.00    +0.000 A 
ATOM      9  C   UNL     1      49.366   3.076  17.219  0.00  0.00    +0.000 A 
BRANCH   4  11
ATOM     10  N   UNL     1      52.608   2.065  18.548  0.00  0.00    +0.000 N 
ATOM     11  C   UNL     1      51.537   1.974  17.702  0.00  0.00    +0.000 C 
ATOM     12  O   UNL     1      51.250   0.913  17.162  0.00  0.00    +0.000 OA
ATOM     13  H   UNL     1      53.098   1.203  18.747  0.00  0.00    +0.000 HD
ATOM     14  H   UNL     1      52.736   2.838  19.185  0.00  0.00    +0.000 HD
ENDBRANCH   4  11
ENDBRANCH   2   7
ENDBRANCH   1   2
BRANCH   1  15
ATOM     15  C   UNL     1      48.931   7.037  14.309  0.00  0.00    +0.000 C 
BRANCH  15  16
ATOM     16  C   UNL     1      47.604   7.216  13.611  0.00  0.00    +0.000 A 
ATOM     17  C   UNL     1      46.943   8.446  13.650  0.00  0.00    +0.000 A 
ATOM     18  C   UNL     1      45.758   8.620  12.943  0.00  0.00    +0.000 A 
ATOM     19  C   UNL     1      45.234   7.571  12.181  0.00  0.00    +0.000 A 
ATOM     20  C   UNL     1      45.883   6.328  12.090  0.00  0.00    +0.000 A 
ATOM     21  C   UNL     1      47.069   6.173  12.834  0.00  0.00    +0.000 A 
BRANCH  20  22
ATOM     22  C   UNL     1      45.365   5.239  11.224  0.00  0.00    +0.000 A 
ATOM     23  C   UNL     1      45.539   5.269   9.826  0.00  0.00    +0.000 A 
ATOM     24  C   UNL     1      45.030   4.256   9.002  0.00  0.00    +0.000 A 
ATOM     25  C   UNL     1      44.345   3.178   9.555  0.00  0.00    +0.000 A 
ATOM     26  C   UNL     1      44.163   3.119  10.932  0.00  0.00    +0.000 A 
ATOM     27  C   UNL     1      44.660   4.138  11.746  0.00  0.00    +0.000 A 
ATOM     28  F   UNL     1      44.420   4.041  13.063  0.00  0.00    +0.000 F 
ENDBRANCH  20  22
ENDBRANCH  15  16
ENDBRANCH   1  15
TORSDOF 6
ENDMDL
MODEL 7
REMARK VINA RESULT:    -6.767      4.024      6.399
REMARK INTER + INTRA:         -10.162
REMARK INTER:                  -8.704
REMARK INTRA:                  -1.458
REMARK UNBOUND:                -1.021
REMARK  Name = 
REMARK  6 active torsions:
REMARK  status: ('A' for Active; 'I' for Inactive)
REMARK    1  A    between atoms: C_2  and  C_4
REMARK    2  A    between atoms: C_7  and  N_8
REMARK    3  A    between atoms: N_8  and  C_9
REMARK    4  A    between atoms: C_9  and  C_10
REMARK    5  A    between atoms: C_10  and  C_11
REMARK    6  A    between atoms: C_15  and  C_16
REMARK                            x       y       z     vdW  Elec       q    Type
REMARK                         _______ _______ _______ _____ _____    ______ ____
ROOT
ATOM      1  C   UNL     1      48.181   8.396  13.691  0.00  0.00    +0.000 C 
ENDROOT
BRANCH   1   2
ATOM      2  N   UNL     1      46.746   8.145  13.614  0.00  0.00    +0.000 N 
ATOM      3  H   UNL     1      46.221   8.383  14.452  0.00  0.00    +0.000 HD
BRANCH   2   7
ATOM      4  C   UNL     1      45.257   4.521  12.031  0.00  0.00    +0.000 A 
ATOM      5  C   UNL     1      44.851   5.732  11.471  0.00  0.00    +0.000 A 
ATOM      6  C   UNL     1      45.352   6.939  11.973  0.00  0.00    +0.000 A 
ATOM      7  C   UNL     1      46.286   6.967  13.017  0.00  0.00    +0.000 A 
ATOM      8  C   UNL     1      46.678   5.741  13.573  0.00  0.00    +0.000 A 
ATOM      9  C   UNL     1      46.166   4.528  13.092  0.00  0.00    +0.000 A 
BRANCH   4  11
ATOM     10  N   UNL     1      43.969   2.498  12.459  0.00  0.00    +0.000 N 
ATOM     11  C   UNL     1      44.708   3.222  11.565  0.00  0.00    +0.000 C 
ATOM     12  O   UNL     1      44.885   2.819  10.423  0.00  0.00    +0.000 OA
ATOM     13  H   UNL     1      43.531   1.658  12.105  0.00  0.00    +0.000 HD
ATOM     14  H   UNL     1      43.605   2.895  13.314  0.00  0.00    +0.000 HD
ENDBRANCH   4  11
ENDBRANCH   2   7
ENDBRANCH   1   2
BRANCH   1  15
ATOM     15  C   UNL     1      48.523   9.308  14.872  0.00  0.00    +0.000 C 
BRANCH  15  16
ATOM     16  C   UNL     1      48.520   8.513  16.156  0.00  0.00    +0.000 A 
ATOM     17  C   UNL     1      48.031   9.075  17.337  0.00  0.00    +0.000 A 
ATOM     18  C   UNL     1      47.967   8.309  18.496  0.00  0.00    +0.000 A 
ATOM     19  C   UNL     1      48.377   6.973  18.479  0.00  0.00    +0.000 A 
ATOM     20  C   UNL     1      48.847   6.360  17.305  0.00  0.00    +0.000 A 
ATOM     21  C   UNL     1      48.922   7.165  16.152  0.00  0.00    +0.000 A 
BRANCH  20  22
ATOM     22  C   UNL     1      49.213   4.922  17.270  0.00  0.00    +0.000 A 
ATOM     23  C   UNL     1      50.518   4.488  17.579  0.00  0.00    +0.000 A 
ATOM     24  C   UNL     1      50.874   3.134  17.522  0.00  0.00    +0.000 A 
ATOM     25  C   UNL     1      49.930   2.174  17.168  0.00  0.00    +0.000 A 
ATOM     26  C   UNL     1      48.633   2.571  16.864  0.00  0.00    +0.000 A 
ATOM     27  C   UNL     1      48.289   3.923  16.909  0.00  0.00    +0.000 A 
ATOM     28  F   UNL     1      47.031   4.245  16.569  0.00  0.00    +0.000 F 
ENDBRANCH  20  22
ENDBRANCH  15  16
ENDBRANCH   1  15
TORSDOF 6
ENDMDL
MODEL 8
REMARK VINA RESULT:    -6.599      3.588      5.898
REMARK INTER + INTRA:          -9.935
REMARK INTER:                  -8.625
REMARK INTRA:                  -1.310
REMARK UNBOUND:                -1.021
REMARK  Name = 
REMARK  6 active torsions:
REMARK  status: ('A' for Active; 'I' for Inactive)
REMARK    1  A    between atoms: C_2  and  C_4
REMARK    2  A    between atoms: C_7  and  N_8
REMARK    3  A    between atoms: N_8  and  C_9
REMARK    4  A    between atoms: C_9  and  C_10
REMARK    5  A    between atoms: C_10  and  C_11
REMARK    6  A    between atoms: C_15  and  C_16
REMARK                            x       y       z     vdW  Elec       q    Type
REMARK                         _______ _______ _______ _____ _____    ______ ____
ROOT
ATOM      1  C   UNL     1      46.280   8.753  12.552  0.00  0.00    +0.000 C 
ENDROOT
BRANCH   1   2
ATOM      2  N   UNL     1      45.306   7.865  13.179  0.00  0.00    +0.000 N 
ATOM      3  H   UNL     1      45.382   7.786  14.190  0.00  0.00    +0.000 HD
BRANCH   2   7
ATOM      4  C   UNL     1      44.248   4.114  11.545  0.00  0.00    +0.000 A 
ATOM      5  C   UNL     1      43.932   5.279  10.848  0.00  0.00    +0.000 A 
ATOM      6  C   UNL     1      44.295   6.528  11.368  0.00  0.00    +0.000 A 
ATOM      7  C   UNL     1      45.002   6.643  12.572  0.00  0.00    +0.000 A 
ATOM      8  C   UNL     1      45.305   5.461  13.264  0.00  0.00    +0.000 A 
ATOM      9  C   UNL     1      44.928   4.208  12.762  0.00  0.00    +0.000 A 
BRANCH   4  11
ATOM     10  N   UNL     1      44.529   2.251  10.002  0.00  0.00    +0.000 N 
ATOM     11  C   UNL     1      43.834   2.775  11.056  0.00  0.00    +0.000 C 
ATOM     12  O   UNL     1      42.923   2.148  11.583  0.00  0.00    +0.000 OA
ATOM     13  H   UNL     1      44.293   1.305   9.732  0.00  0.00    +0.000 HD
ATOM     14  H   UNL     1      45.420   2.619   9.699  0.00  0.00    +0.000 HD
ENDBRANCH   4  11
ENDBRANCH   2   7
ENDBRANCH   1   2
BRANCH   1  15
ATOM     15  C   UNL     1      47.688   8.154  12.602  0.00  0.00    +0.000 C 
BRANCH  15  16
ATOM     16  C   UNL     1      48.158   8.058  14.034  0.00  0.00    +0.000 A 
ATOM     17  C   UNL     1      48.360   9.212  14.793  0.00  0.00    +0.000 A 
ATOM     18  C   UNL     1      48.722   9.108  16.133  0.00  0.00    +0.000 A 
ATOM     19  C   UNL     1      48.871   7.851  16.724  0.00  0.00    +0.000 A 
ATOM     20  C   UNL     1      48.648   6.664  16.004  0.00  0.00    +0.000 A 
ATOM     21  C   UNL     1      48.303   6.799  14.645  0.00  0.00    +0.000 A 
BRANCH  20  22
ATOM     22  C   UNL     1      48.734   5.331  16.652  0.00  0.00    +0.000 A 
ATOM     23  C   UNL     1      47.604   4.498  16.770  0.00  0.00    +0.000 A 
ATOM     24  C   UNL     1      47.676   3.250  17.403  0.00  0.00    +0.000 A 
ATOM     25  C   UNL     1      48.884   2.795  17.923  0.00  0.00    +0.000 A 
ATOM     26  C   UNL     1      50.017   3.591  17.816  0.00  0.00    +0.000 A 
ATOM     27  C   UNL     1      49.936   4.841  17.197  0.00  0.00    +0.000 A 
ATOM     28  F   UNL     1      51.057   5.578  17.158  0.00  0.00    +0.000 F 
ENDBRANCH  20  22
ENDBRANCH  15  16
ENDBRANCH   1  15
TORSDOF 6
ENDMDL
MODEL 9
REMARK VINA RESULT:    -6.348      5.003      7.092
REMARK INTER + INTRA:          -9.595
REMARK INTER:                  -8.651
REMARK INTRA:                  -0.944
REMARK UNBOUND:                -1.021
REMARK  Name = 
REMARK  6 active torsions:
REMARK  status: ('A' for Active; 'I' for Inactive)
REMARK    1  A    between atoms: C_2  and  C_4
REMARK    2  A    between atoms: C_7  and  N_8
REMARK    3  A    between atoms: N_8  and  C_9
REMARK    4  A    between atoms: C_9  and  C_10
REMARK    5  A    between atoms: C_10  and  C_11
REMARK    6  A    between atoms: C_15  and  C_16
REMARK                            x       y       z     vdW  Elec       q    Type
REMARK                         _______ _______ _______ _____ _____    ______ ____
ROOT
ATOM      1  C   UNL     1      48.254   7.708  14.492  0.00  0.00    +0.000 C 
ENDROOT
BRANCH   1   2
ATOM      2  N   UNL     1      48.304   6.448  13.757  0.00  0.00    +0.000 N 
ATOM      3  H   UNL     1      49.152   6.298  13.216  0.00  0.00    +0.000 HD
BRANCH   2   7
ATOM      4  C   UNL     1      44.998   5.018  11.548  0.00  0.00    +0.000 A 
ATOM      5  C   UNL     1      45.272   4.474  12.802  0.00  0.00    +0.000 A 
ATOM      6  C   UNL     1      46.352   4.953  13.553  0.00  0.00    +0.000 A 
ATOM      7  C   UNL     1      47.162   5.998  13.090  0.00  0.00    +0.000 A 
ATOM      8  C   UNL     1      46.876   6.528  11.823  0.00  0.00    +0.000 A 
ATOM      9  C   UNL     1      45.810   6.042  11.054  0.00  0.00    +0.000 A 
BRANCH   4  11
ATOM     10  N   UNL     1      44.009   4.690   9.346  0.00  0.00    +0.000 N 
ATOM     11  C   UNL     1      43.896   4.502  10.696  0.00  0.00    +0.000 C 
ATOM     12  O   UNL     1      42.935   3.912  11.172  0.00  0.00    +0.000 OA
ATOM     13  H   UNL     1      43.295   4.261   8.772  0.00  0.00    +0.000 HD
ATOM     14  H   UNL     1      44.877   4.951   8.903  0.00  0.00    +0.000 HD
ENDBRANCH   4  11
ENDBRANCH   2   7
ENDBRANCH   1   2
BRANCH   1  15
ATOM     15  C   UNL     1      49.481   7.873  15.393  0.00  0.00    +0.000 C 
BRANCH  15  16
ATOM     16  C   UNL     1      49.379   6.945  16.580  0.00  0.00    +0.000 A 
ATOM     17  C   UNL     1      48.372   7.119  17.532  0.00  0.00    +0.000 A 
ATOM     18  C   UNL     1      48.244   6.214  18.580  0.00  0.00    +0.000 A 
ATOM     19  C   UNL     1      49.112   5.122  18.676  0.00  0.00    +0.000 A 
ATOM     20  C   UNL     1      50.119   4.893  17.723  0.00  0.00    +0.000 A 
ATOM     21  C   UNL     1      50.240   5.837  16.684  0.00  0.00    +0.000 A 
BRANCH  20  22
ATOM     22  C   UNL     1      50.993   3.694  17.784  0.00  0.00    +0.000 A 
ATOM     23  C   UNL     1      52.289   3.758  18.333  0.00  0.00    +0.000 A 
ATOM     24  C   UNL     1      53.126   2.634  18.369  0.00  0.00    +0.000 A 
ATOM     25  C   UNL     1      52.684   1.413  17.870  0.00  0.00    +0.000 A 
ATOM     26  C   UNL     1      51.408   1.318  17.329  0.00  0.00    +0.000 A 
ATOM     27  C   UNL     1      50.584   2.445  17.282  0.00  0.00    +0.000 A 
ATOM     28  F   UNL     1      49.377   2.296  16.714  0.00  0.00    +0.000 F 
ENDBRANCH  20  22
ENDBRANCH  15  16
ENDBRANCH   1  15
TORSDOF 6
ENDMDL
