MODEL 1
REMARK VINA RESULT:    -7.393      0.000      0.000
REMARK INTER + INTRA:         -10.724
REMARK INTER:                  -9.554
REMARK INTRA:                  -1.171
REMARK UNBOUND:                -1.171
REMARK  Name = 
REMARK  5 active torsions:
REMARK  status: ('A' for Active; 'I' for Inactive)
REMARK    1  A    between atoms: C_4  and  C_5
REMARK    2  A    between atoms: C_5  and  C_6
REMARK    3  A    between atoms: C_6  and  C_7
REMARK    4  A    between atoms: C_11  and  C_12
REMARK    5  A    between atoms: C_20  and  C_21
REMARK                            x       y       z     vdW  Elec       q    Type
REMARK                         _______ _______ _______ _____ _____    ______ ____
ROOT
ATOM      1  C   UNL     1      45.919   7.344  11.356  0.00  0.00    +0.000 C 
ENDROOT
BRANCH   1   2
ATOM      2  C   UNL     1      47.129   7.222  12.259  0.00  0.00    +0.000 A 
ATOM      3  C   UNL     1      48.297   7.968  12.068  0.00  0.00    +0.000 A 
ATOM      4  C   UNL     1      49.363   7.858  12.959  0.00  0.00    +0.000 A 
ATOM      5  C   UNL     1      49.267   7.020  14.069  0.00  0.00    +0.000 A 
ATOM      6  C   UNL     1      48.099   6.284  14.328  0.00  0.00    +0.000 A 
ATOM      7  C   UNL     1      47.046   6.397  13.397  0.00  0.00    +0.000 A 
BRANCH   6   8
ATOM      8  C   UNL     1      47.960   5.464  15.550  0.00  0.00    +0.000 A 
ATOM      9  C   UNL     1      48.604   5.786  16.753  0.00  0.00    +0.000 A 
ATOM     10  C   UNL     1      48.481   4.960  17.870  0.00  0.00    +0.000 A 
ATOM     11  C   UNL     1      47.697   3.825  17.765  0.00  0.00    +0.000 A 
ATOM     12  N   UNL     1      47.046   3.473  16.640  0.00  0.00    +0.000 NA
ATOM     13  C   UNL     1      47.197   4.293  15.571  0.00  0.00    +0.000 A 
ENDBRANCH   6   8
ENDBRANCH   1   2
BRANCH   1  14
ATOM     14  C   UNL     1      44.673   6.573  11.809  0.00  0.00    +0.000 C 
BRANCH  14  18
ATOM     15  F   UNL     1      42.939   2.006  11.600  0.00  0.00    +0.000 F 
ATOM     16  C   UNL     1      43.681   2.979  11.054  0.00  0.00    +0.000 A 
ATOM     17  C   UNL     1      43.761   4.214  11.686  0.00  0.00    +0.000 A 
ATOM     18  C   UNL     1      44.543   5.231  11.130  0.00  0.00    +0.000 A 
ATOM     19  C   UNL     1      45.221   4.987   9.924  0.00  0.00    +0.000 A 
ATOM     20  C   UNL     1      45.144   3.739   9.286  0.00  0.00    +0.000 A 
ATOM     21  C   UNL     1      44.363   2.730   9.867  0.00  0.00    +0.000 A 
BRANCH  20  22
ATOM     22  C   UNL     1      45.891   3.471   8.004  0.00  0.00    +0.000 C 
ATOM     23  F   UNL     1      45.079   3.359   6.915  0.00  0.00    +0.000 F 
ATOM     24  F   UNL     1      46.779   4.457   7.704  0.00  0.00    +0.000 F 
ATOM     25  F   UNL     1      46.611   2.317   8.051  0.00  0.00    +0.000 F 
ENDBRANCH  20  22
ENDBRANCH  14  18
ENDBRANCH   1  14
TORSDOF 5
ENDMDL
MODEL 2
REMARK VINA RESULT:    -7.237      3.661      7.252
REMARK INTER + INTRA:         -10.522
REMARK INTER:                  -9.210
REMARK INTRA:                  -1.313
REMARK UNBOUND:                -1.171
REMARK  Name = 
REMARK  5 active torsions:
REMARK  status: ('A' for Active; 'I' for Inactive)
REMARK    1  A    between atoms: C_4  and  C_5
REMARK    2  A    between atoms: C_5  and  C_6
REMARK    3  A    between atoms: C_6  and  C_7
REMARK    4  A    between atoms: C_11  and  C_12
REMARK    5  A    between atoms: C_20  and  C_21
REMARK                            x       y       z     vdW  Elec       q    Type
REMARK                         _______ _______ _______ _____ _____    ______ ____
ROOT
ATOM      1  C   UNL     1      43.934   6.169  10.562  0.00  0.00    +0.000 C 
ENDROOT
BRANCH   1   2
ATOM      2  C   UNL     1      44.193   4.695  10.324  0.00  0.00    +0.000 A 
ATOM      3  C   UNL     1      43.548   3.685  11.046  0.00  0.00    +0.000 A 
ATOM      4  C   UNL     1      43.781   2.343  10.751  0.00  0.00    +0.000 A 
ATOM      5  C   UNL     1      44.643   1.991   9.712  0.00  0.00    +0.000 A 
ATOM      6  C   UNL     1      45.279   2.969   8.931  0.00  0.00    +0.000 A 
ATOM      7  C   UNL     1      45.044   4.318   9.267  0.00  0.00    +0.000 A 
BRANCH   6   8
ATOM      8  C   UNL     1      46.123   2.601   7.774  0.00  0.00    +0.000 A 
ATOM      9  C   UNL     1      46.245   3.415   6.639  0.00  0.00    +0.000 A 
ATOM     10  C   UNL     1      47.018   3.010   5.551  0.00  0.00    +0.000 A 
ATOM     11  C   UNL     1      47.671   1.792   5.626  0.00  0.00    +0.000 A 
ATOM     12  N   UNL     1      47.600   0.976   6.694  0.00  0.00    +0.000 NA
ATOM     13  C   UNL     1      46.831   1.397   7.729  0.00  0.00    +0.000 A 
ENDBRANCH   6   8
ENDBRANCH   1   2
BRANCH   1  14
ATOM     14  C   UNL     1      44.156   6.656  12.000  0.00  0.00    +0.000 C 
BRANCH  14  18
ATOM     15  F   UNL     1      47.501   4.407  14.766  0.00  0.00    +0.000 F 
ATOM     16  C   UNL     1      47.208   5.337  13.848  0.00  0.00    +0.000 A 
ATOM     17  C   UNL     1      45.895   5.480  13.415  0.00  0.00    +0.000 A 
ATOM     18  C   UNL     1      45.578   6.457  12.466  0.00  0.00    +0.000 A 
ATOM     19  C   UNL     1      46.604   7.266  11.952  0.00  0.00    +0.000 A 
ATOM     20  C   UNL     1      47.931   7.125  12.390  0.00  0.00    +0.000 A 
ATOM     21  C   UNL     1      48.224   6.147  13.351  0.00  0.00    +0.000 A 
BRANCH  20  22
ATOM     22  C   UNL     1      49.028   8.010  11.854  0.00  0.00    +0.000 C 
ATOM     23  F   UNL     1      49.911   8.420  12.808  0.00  0.00    +0.000 F 
ATOM     24  F   UNL     1      49.773   7.390  10.899  0.00  0.00    +0.000 F 
ATOM     25  F   UNL     1      48.548   9.146  11.279  0.00  0.00    +0.000 F 
ENDBRANCH  20  22
ENDBRANCH  14  18
ENDBRANCH   1  14
TORSDOF 5
ENDMDL
MODEL 3
REMARK VINA RESULT:    -6.831      3.690      7.108
REMARK INTER + INTRA:          -9.999
REMARK INTER:                  -8.747
REMARK INTRA:                  -1.252
REMARK UNBOUND:                -1.171
REMARK  Name = 
REMARK  5 active torsions:
REMARK  status: ('A' for Active; 'I' for Inactive)
REMARK    1  A    between atoms: C_4  and  C_5
REMARK    2  A    between atoms: C_5  and  C_6
REMARK    3  A    between atoms: C_6  and  C_7
REMARK    4  A    between atoms: C_11  and  C_12
REMARK    5  A    between atoms: C_20  and  C_21
REMARK                            x       y       z     vdW  Elec       q    Type
REMARK                         _______ _______ _______ _____ _____    ______ ____
ROOT
ATOM      1  C   UNL     1      49.159   7.170  14.099  0.00  0.00    +0.000 C 
ENDROOT
BRANCH   1   2
ATOM      2  C   UNL     1      47.746   7.370  13.589  0.00  0.00    +0.000 A 
ATOM      3  C   UNL     1      47.177   8.634  13.406  0.00  0.00    +0.000 A 
ATOM      4  C   UNL     1      45.891   8.765  12.884  0.00  0.00    +0.000 A 
ATOM      5  C   UNL     1      45.166   7.634  12.512  0.00  0.00    +0.000 A 
ATOM      6  C   UNL     1      45.711   6.345  12.637  0.00  0.00    +0.000 A 
ATOM      7  C   UNL     1      47.004   6.242  13.190  0.00  0.00    +0.000 A 
BRANCH   6   8
ATOM      8  C   UNL     1      44.980   5.151  12.163  0.00  0.00    +0.000 A 
ATOM      9  C   UNL     1      44.804   4.864  10.802  0.00  0.00    +0.000 A 
ATOM     10  C   UNL     1      44.070   3.748  10.398  0.00  0.00    +0.000 A 
ATOM     11  C   UNL     1      43.533   2.927  11.373  0.00  0.00    +0.000 A 
ATOM     12  N   UNL     1      43.679   3.147  12.693  0.00  0.00    +0.000 NA
ATOM     13  C   UNL     1      44.389   4.246  13.049  0.00  0.00    +0.000 A 
ENDBRANCH   6   8
ENDBRANCH   1   2
BRANCH   1  14
ATOM     14  C   UNL     1      49.428   7.676  15.522  0.00  0.00    +0.000 C 
BRANCH  14  18
ATOM     15  F   UNL     1      47.477   6.978  19.950  0.00  0.00    +0.000 F 
ATOM     16  C   UNL     1      47.860   6.470  18.771  0.00  0.00    +0.000 A 
ATOM     17  C   UNL     1      48.398   7.313  17.806  0.00  0.00    +0.000 A 
ATOM     18  C   UNL     1      48.812   6.790  16.577  0.00  0.00    +0.000 A 
ATOM     19  C   UNL     1      48.657   5.415  16.335  0.00  0.00    +0.000 A 
ATOM     20  C   UNL     1      48.116   4.561  17.309  0.00  0.00    +0.000 A 
ATOM     21  C   UNL     1      47.718   5.106  18.539  0.00  0.00    +0.000 A 
BRANCH  20  22
ATOM     22  C   UNL     1      47.970   3.082  17.057  0.00  0.00    +0.000 C 
ATOM     23  F   UNL     1      47.781   2.771  15.743  0.00  0.00    +0.000 F 
ATOM     24  F   UNL     1      49.065   2.377  17.452  0.00  0.00    +0.000 F 
ATOM     25  F   UNL     1      46.914   2.541  17.722  0.00  0.00    +0.000 F 
ENDBRANCH  20  22
ENDBRANCH  14  18
ENDBRANCH   1  14
TORSDOF 5
ENDMDL
MODEL 4
REMARK VINA RESULT:    -6.814      4.225      8.035
REMARK INTER + INTRA:          -9.977
REMARK INTER:                  -9.035
REMARK INTRA:                  -0.942
REMARK UNBOUND:                -1.171
REMARK  Name = 
REMARK  5 active torsions:
REMARK  status: ('A' for Active; 'I' for Inactive)
REMARK    1  A    between atoms: C_4  and  C_5
REMARK    2  A    between atoms: C_5  and  C_6
REMARK    3  A    between atoms: C_6  and  C_7
REMARK    4  A    between atoms: C_11  and  C_12
REMARK    5  A    between atoms: C_20  and  C_21
REMARK                            x       y       z     vdW  Elec       q    Type
REMARK                         _______ _______ _______ _____ _____    ______ ____
ROOT
ATOM      1  C   UNL     1      45.272   6.502  10.874  0.00  0.00    +0.000 C 
ENDROOT
BRANCH   1   2
ATOM      2  C   UNL     1      44.995   5.059  10.502  0.00  0.00    +0.000 A 
ATOM      3  C   UNL     1      44.014   4.288  11.133  0.00  0.00    +0.000 A 
ATOM      4  C   UNL     1      43.761   2.982  10.718  0.00  0.00    +0.000 A 
ATOM      5  C   UNL     1      44.470   2.436   9.648  0.00  0.00    +0.000 A 
ATOM      6  C   UNL     1      45.435   3.185   8.956  0.00  0.00    +0.000 A 
ATOM      7  C   UNL     1      45.686   4.495   9.412  0.00  0.00    +0.000 A 
BRANCH   6   8
ATOM      8  C   UNL     1      46.125   2.641   7.767  0.00  0.00    +0.000 A 
ATOM      9  C   UNL     1      46.668   1.349   7.734  0.00  0.00    +0.000 A 
ATOM     10  C   UNL     1      47.349   0.890   6.606  0.00  0.00    +0.000 A 
ATOM     11  C   UNL     1      47.462   1.737   5.518  0.00  0.00    +0.000 A 
ATOM     12  N   UNL     1      46.951   2.982   5.488  0.00  0.00    +0.000 NA
ATOM     13  C   UNL     1      46.305   3.398   6.606  0.00  0.00    +0.000 A 
ENDBRANCH   6   8
ENDBRANCH   1   2
BRANCH   1  14
ATOM     14  C   UNL     1      45.521   6.767  12.364  0.00  0.00    +0.000 C 
BRANCH  14  18
ATOM     15  F   UNL     1      50.069   7.971  11.035  0.00  0.00    +0.000 F 
ATOM     16  C   UNL     1      49.218   7.585  11.994  0.00  0.00    +0.000 A 
ATOM     17  C   UNL     1      47.873   7.410  11.685  0.00  0.00    +0.000 A 
ATOM     18  C   UNL     1      46.980   6.994  12.677  0.00  0.00    +0.000 A 
ATOM     19  C   UNL     1      47.460   6.778  13.979  0.00  0.00    +0.000 A 
ATOM     20  C   UNL     1      48.817   6.951  14.293  0.00  0.00    +0.000 A 
ATOM     21  C   UNL     1      49.697   7.358  13.280  0.00  0.00    +0.000 A 
BRANCH  20  22
ATOM     22  C   UNL     1      49.335   6.697  15.686  0.00  0.00    +0.000 C 
ATOM     23  F   UNL     1      49.083   7.718  16.554  0.00  0.00    +0.000 F 
ATOM     24  F   UNL     1      48.787   5.586  16.249  0.00  0.00    +0.000 F 
ATOM     25  F   UNL     1      50.682   6.509  15.715  0.00  0.00    +0.000 F 
ENDBRANCH  20  22
ENDBRANCH  14  18
ENDBRANCH   1  14
TORSDOF 5
ENDMDL
MODEL 5
REMARK VINA RESULT:    -6.807      3.087      4.461
REMARK INTER + INTRA:          -9.967
REMARK INTER:                  -9.100
REMARK INTRA:                  -0.867
REMARK UNBOUND:                -1.171
REMARK  Name = 
REMARK  5 active torsions:
REMARK  status: ('A' for Active; 'I' for Inactive)
REMARK    1  A    between atoms: C_4  and  C_5
REMARK    2  A    between atoms: C_5  and  C_6
REMARK    3  A    between atoms: C_6  and  C_7
REMARK    4  A    between atoms: C_11  and  C_12
REMARK    5  A    between atoms: C_20  and  C_21
REMARK                            x       y       z     vdW  Elec       q    Type
REMARK                         _______ _______ _______ _____ _____    ______ ____
ROOT
ATOM      1  C   UNL     1      46.608   6.703  12.439  0.00  0.00    +0.000 C 
ENDROOT
BRANCH   1   2
ATOM      2  C   UNL     1      47.522   7.861  12.094  0.00  0.00    +0.000 A 
ATOM      3  C   UNL     1      47.115   9.198  12.167  0.00  0.00    +0.000 A 
ATOM      4  C   UNL     1      48.011  10.229  11.891  0.00  0.00    +0.000 A 
ATOM      5  C   UNL     1      49.335   9.939  11.563  0.00  0.00    +0.000 A 
ATOM      6  C   UNL     1      49.802   8.616  11.519  0.00  0.00    +0.000 A 
ATOM      7  C   UNL     1      48.868   7.592  11.779  0.00  0.00    +0.000 A 
BRANCH   6   8
ATOM      8  C   UNL     1      51.225   8.309  11.258  0.00  0.00    +0.000 A 
ATOM      9  C   UNL     1      51.631   7.326  10.344  0.00  0.00    +0.000 A 
ATOM     10  C   UNL     1      52.984   7.039  10.160  0.00  0.00    +0.000 A 
ATOM     11  C   UNL     1      53.913   7.758  10.891  0.00  0.00    +0.000 A 
ATOM     12  N   UNL     1      53.582   8.720  11.773  0.00  0.00    +0.000 NA
ATOM     13  C   UNL     1      52.258   8.965  11.934  0.00  0.00    +0.000 A 
ENDBRANCH   6   8
ENDBRANCH   1   2
BRANCH   1  14
ATOM     14  C   UNL     1      45.232   6.720  11.760  0.00  0.00    +0.000 C 
BRANCH  14  18
ATOM     15  F   UNL     1      42.900   2.425  11.661  0.00  0.00    +0.000 F 
ATOM     16  C   UNL     1      43.740   3.288  11.077  0.00  0.00    +0.000 A 
ATOM     17  C   UNL     1      44.011   4.504  11.695  0.00  0.00    +0.000 A 
ATOM     18  C   UNL     1      44.897   5.406  11.098  0.00  0.00    +0.000 A 
ATOM     19  C   UNL     1      45.485   5.071   9.868  0.00  0.00    +0.000 A 
ATOM     20  C   UNL     1      45.216   3.843   9.243  0.00  0.00    +0.000 A 
ATOM     21  C   UNL     1      44.333   2.948   9.865  0.00  0.00    +0.000 A 
BRANCH  20  22
ATOM     22  C   UNL     1      45.865   3.474   7.933  0.00  0.00    +0.000 C 
ATOM     23  F   UNL     1      46.532   2.286   7.972  0.00  0.00    +0.000 F 
ATOM     24  F   UNL     1      44.963   3.361   6.920  0.00  0.00    +0.000 F 
ATOM     25  F   UNL     1      46.776   4.399   7.524  0.00  0.00    +0.000 F 
ENDBRANCH  20  22
ENDBRANCH  14  18
ENDBRANCH   1  14
TORSDOF 5
ENDMDL
MODEL 6
REMARK VINA RESULT:    -6.640      4.029      7.196
REMARK INTER + INTRA:          -9.751
REMARK INTER:                  -8.698
REMARK INTRA:                  -1.054
REMARK UNBOUND:                -1.171
REMARK  Name = 
REMARK  5 active torsions:
REMARK  status: ('A' for Active; 'I' for Inactive)
REMARK    1  A    between atoms: C_4  and  C_5
REMARK    2  A    between atoms: C_5  and  C_6
REMARK    3  A    between atoms: C_6  and  C_7
REMARK    4  A    between atoms: C_11  and  C_12
REMARK    5  A    between atoms: C_20  and  C_21
REMARK                            x       y       z     vdW  Elec       q    Type
REMARK                         _______ _______ _______ _____ _____    ______ ____
ROOT
ATOM      1  C   UNL     1      45.875   5.328  13.959  0.00  0.00    +0.000 C 
ENDROOT
BRANCH   1   2
ATOM      2  C   UNL     1      44.945   4.948  12.825  0.00  0.00    +0.000 A 
ATOM      3  C   UNL     1      43.576   5.236  12.837  0.00  0.00    +0.000 A 
ATOM      4  C   UNL     1      42.773   4.913  11.745  0.00  0.00    +0.000 A 
ATOM      5  C   UNL     1      43.332   4.321  10.613  0.00  0.00    +0.000 A 
ATOM      6  C   UNL     1      44.708   4.051  10.536  0.00  0.00    +0.000 A 
ATOM      7  C   UNL     1      45.492   4.367  11.665  0.00  0.00    +0.000 A 
BRANCH   6   8
ATOM      8  C   UNL     1      45.318   3.505   9.305  0.00  0.00    +0.000 A 
ATOM      9  C   UNL     1      45.498   2.130   9.097  0.00  0.00    +0.000 A 
ATOM     10  C   UNL     1      46.118   1.659   7.939  0.00  0.00    +0.000 A 
ATOM     11  C   UNL     1      46.537   2.582   6.997  0.00  0.00    +0.000 A 
ATOM     12  N   UNL     1      46.381   3.912   7.138  0.00  0.00    +0.000 NA
ATOM     13  C   UNL     1      45.784   4.334   8.281  0.00  0.00    +0.000 A 
ENDBRANCH   6   8
ENDBRANCH   1   2
BRANCH   1  14
ATOM     14  C   UNL     1      47.367   5.377  13.605  0.00  0.00    +0.000 C 
BRANCH  14  18
ATOM     15  F   UNL     1      46.434  10.022  12.400  0.00  0.00    +0.000 F 
ATOM     16  C   UNL     1      47.294   8.997  12.437  0.00  0.00    +0.000 A 
ATOM     17  C   UNL     1      46.895   7.789  12.998  0.00  0.00    +0.000 A 
ATOM     18  C   UNL     1      47.782   6.709  13.030  0.00  0.00    +0.000 A 
ATOM     19  C   UNL     1      49.075   6.874  12.507  0.00  0.00    +0.000 A 
ATOM     20  C   UNL     1      49.480   8.092  11.938  0.00  0.00    +0.000 A 
ATOM     21  C   UNL     1      48.570   9.158  11.906  0.00  0.00    +0.000 A 
BRANCH  20  22
ATOM     22  C   UNL     1      50.861   8.261  11.357  0.00  0.00    +0.000 C 
ATOM     23  F   UNL     1      51.848   8.282  12.297  0.00  0.00    +0.000 F 
ATOM     24  F   UNL     1      51.189   7.259  10.497  0.00  0.00    +0.000 F 
ATOM     25  F   UNL     1      50.993   9.419  10.654  0.00  0.00    +0.000 F 
ENDBRANCH  20  22
ENDBRANCH  14  18
ENDBRANCH   1  14
TORSDOF 5
ENDMDL
MODEL 7
REMARK VINA RESULT:    -6.568      4.615      8.229
REMARK INTER + INTRA:          -9.659
REMARK INTER:                  -8.891
REMARK INTRA:                  -0.768
REMARK UNBOUND:                -1.171
REMARK  Name = 
REMARK  5 active torsions:
REMARK  status: ('A' for Active; 'I' for Inactive)
REMARK    1  A    between atoms: C_4  and  C_5
REMARK    2  A    between atoms: C_5  and  C_6
REMARK    3  A    between atoms: C_6  and  C_7
REMARK    4  A    between atoms: C_11  and  C_12
REMARK    5  A    between atoms: C_20  and  C_21
REMARK                            x       y       z     vdW  Elec       q    Type
REMARK                         _______ _______ _______ _____ _____    ______ ____
ROOT
ATOM      1  C   UNL     1      45.764   4.802  13.954  0.00  0.00    +0.000 C 
ENDROOT
BRANCH   1   2
ATOM      2  C   UNL     1      44.912   4.712  12.703  0.00  0.00    +0.000 A 
ATOM      3  C   UNL     1      43.634   5.272  12.614  0.00  0.00    +0.000 A 
ATOM      4  C   UNL     1      42.913   5.208  11.424  0.00  0.00    +0.000 A 
ATOM      5  C   UNL     1      43.470   4.603  10.297  0.00  0.00    +0.000 A 
ATOM      6  C   UNL     1      44.766   4.064  10.325  0.00  0.00    +0.000 A 
ATOM      7  C   UNL     1      45.463   4.123  11.549  0.00  0.00    +0.000 A 
BRANCH   6   8
ATOM      8  C   UNL     1      45.393   3.503   9.110  0.00  0.00    +0.000 A 
ATOM      9  C   UNL     1      45.621   2.129   8.943  0.00  0.00    +0.000 A 
ATOM     10  C   UNL     1      46.255   1.646   7.798  0.00  0.00    +0.000 A 
ATOM     11  C   UNL     1      46.640   2.553   6.827  0.00  0.00    +0.000 A 
ATOM     12  N   UNL     1      46.436   3.880   6.928  0.00  0.00    +0.000 NA
ATOM     13  C   UNL     1      45.827   4.316   8.059  0.00  0.00    +0.000 A 
ENDBRANCH   6   8
ENDBRANCH   1   2
BRANCH   1  14
ATOM     14  C   UNL     1      46.980   5.732  13.862  0.00  0.00    +0.000 C 
BRANCH  14  18
ATOM     15  F   UNL     1      50.557   7.470  16.705  0.00  0.00    +0.000 F 
ATOM     16  C   UNL     1      49.640   6.526  16.463  0.00  0.00    +0.000 A 
ATOM     17  C   UNL     1      48.818   6.639  15.348  0.00  0.00    +0.000 A 
ATOM     18  C   UNL     1      47.866   5.651  15.081  0.00  0.00    +0.000 A 
ATOM     19  C   UNL     1      47.745   4.565  15.963  0.00  0.00    +0.000 A 
ATOM     20  C   UNL     1      48.576   4.446  17.089  0.00  0.00    +0.000 A 
ATOM     21  C   UNL     1      49.532   5.443  17.331  0.00  0.00    +0.000 A 
BRANCH  20  22
ATOM     22  C   UNL     1      48.461   3.268  18.023  0.00  0.00    +0.000 C 
ATOM     23  F   UNL     1      48.470   3.616  19.341  0.00  0.00    +0.000 F 
ATOM     24  F   UNL     1      47.312   2.564  17.832  0.00  0.00    +0.000 F 
ATOM     25  F   UNL     1      49.479   2.378  17.867  0.00  0.00    +0.000 F 
ENDBRANCH  20  22
ENDBRANCH  14  18
ENDBRANCH   1  14
TORSDOF 5
ENDMDL
MODEL 8
REMARK VINA RESULT:    -6.548      3.320      6.690
REMARK INTER + INTRA:          -9.633
REMARK INTER:                  -8.674
REMARK INTRA:                  -0.959
REMARK UNBOUND:                -1.171
REMARK  Name = 
REMARK  5 active torsions:
REMARK  status: ('A' for Active; 'I' for Inactive)
REMARK    1  A    between atoms: C_4  and  C_5
REMARK    2  A    between atoms: C_5  and  C_6
REMARK    3  A    between atoms: C_6  and  C_7
REMARK    4  A    between atoms: C_11  and  C_12
REMARK    5  A    between atoms: C_20  and  C_21
REMARK                            x       y       z     vdW  Elec       q    Type
REMARK                         _______ _______ _______ _____ _____    ______ ____
ROOT
ATOM      1  C   UNL     1      44.286   8.344  11.078  0.00  0.00    +0.000 C 
ENDROOT
BRANCH   1   2
ATOM      2  C   UNL     1      43.968   6.862  11.096  0.00  0.00    +0.000 A 
ATOM      3  C   UNL     1      42.895   6.326  11.816  0.00  0.00    +0.000 A 
ATOM      4  C   UNL     1      42.613   4.962  11.758  0.00  0.00    +0.000 A 
ATOM      5  C   UNL     1      43.384   4.119  10.958  0.00  0.00    +0.000 A 
ATOM      6  C   UNL     1      44.444   4.618  10.184  0.00  0.00    +0.000 A 
ATOM      7  C   UNL     1      44.721   5.997  10.281  0.00  0.00    +0.000 A 
BRANCH   6   8
ATOM      8  C   UNL     1      45.207   3.743   9.268  0.00  0.00    +0.000 A 
ATOM      9  C   UNL     1      45.956   4.244   8.194  0.00  0.00    +0.000 A 
ATOM     10  C   UNL     1      46.626   3.379   7.328  0.00  0.00    +0.000 A 
ATOM     11  C   UNL     1      46.543   2.019   7.564  0.00  0.00    +0.000 A 
ATOM     12  N   UNL     1      45.849   1.482   8.585  0.00  0.00    +0.000 NA
ATOM     13  C   UNL     1      45.201   2.352   9.400  0.00  0.00    +0.000 A 
ENDBRANCH   6   8
ENDBRANCH   1   2
BRANCH   1  14
ATOM     14  C   UNL     1      45.203   8.839  12.203  0.00  0.00    +0.000 C 
BRANCH  14  18
ATOM     15  F   UNL     1      49.881   7.422  12.079  0.00  0.00    +0.000 F 
ATOM     16  C   UNL     1      48.617   7.177  12.446  0.00  0.00    +0.000 A 
ATOM     17  C   UNL     1      47.627   8.111  12.159  0.00  0.00    +0.000 A 
ATOM     18  C   UNL     1      46.303   7.858  12.528  0.00  0.00    +0.000 A 
ATOM     19  C   UNL     1      46.000   6.664  13.204  0.00  0.00    +0.000 A 
ATOM     20  C   UNL     1      46.996   5.718  13.492  0.00  0.00    +0.000 A 
ATOM     21  C   UNL     1      48.316   5.988  13.103  0.00  0.00    +0.000 A 
BRANCH  20  22
ATOM     22  C   UNL     1      46.666   4.427  14.198  0.00  0.00    +0.000 C 
ATOM     23  F   UNL     1      46.819   4.492  15.551  0.00  0.00    +0.000 F 
ATOM     24  F   UNL     1      45.380   4.035  13.988  0.00  0.00    +0.000 F 
ATOM     25  F   UNL     1      47.448   3.393  13.785  0.00  0.00    +0.000 F 
ENDBRANCH  20  22
ENDBRANCH  14  18
ENDBRANCH   1  14
TORSDOF 5
ENDMDL
MODEL 9
REMARK VINA RESULT:    -6.365      4.571      7.529
REMARK INTER + INTRA:          -9.396
REMARK INTER:                  -8.386
REMARK INTRA:                  -1.011
REMARK UNBOUND:                -1.171
REMARK  Name = 
REMARK  5 active torsions:
REMARK  status: ('A' for Active; 'I' for Inactive)
REMARK    1  A    between atoms: C_4  and  C_5
REMARK    2  A    between atoms: C_5  and  C_6
REMARK    3  A    between atoms: C_6  and  C_7
REMARK    4  A    between atoms: C_11  and  C_12
REMARK    5  A    between atoms: C_20  and  C_21
REMARK                            x       y       z     vdW  Elec       q    Type
REMARK                         _______ _______ _______ _____ _____    ______ ____
ROOT
ATOM      1  C   UNL     1      48.990   7.150  14.547  0.00  0.00    +0.000 C 
ENDROOT
BRANCH   1   2
ATOM      2  C   UNL     1      47.702   7.399  13.789  0.00  0.00    +0.000 A 
ATOM      3  C   UNL     1      47.281   8.677  13.407  0.00  0.00    +0.000 A 
ATOM      4  C   UNL     1      46.113   8.847  12.665  0.00  0.00    +0.000 A 
ATOM      5  C   UNL     1      45.363   7.739  12.272  0.00  0.00    +0.000 A 
ATOM      6  C   UNL     1      45.767   6.434  12.595  0.00  0.00    +0.000 A 
ATOM      7  C   UNL     1      46.939   6.293  13.366  0.00  0.00    +0.000 A 
BRANCH   6   8
ATOM      8  C   UNL     1      45.023   5.254  12.106  0.00  0.00    +0.000 A 
ATOM      9  C   UNL     1      44.661   5.093  10.761  0.00  0.00    +0.000 A 
ATOM     10  C   UNL     1      43.921   3.985  10.349  0.00  0.00    +0.000 A 
ATOM     11  C   UNL     1      43.565   3.043  11.298  0.00  0.00    +0.000 A 
ATOM     12  N   UNL     1      43.894   3.139  12.600  0.00  0.00    +0.000 NA
ATOM     13  C   UNL     1      44.605   4.235  12.967  0.00  0.00    +0.000 A 
ENDBRANCH   6   8
ENDBRANCH   1   2
BRANCH   1  14
ATOM     14  C   UNL     1      48.866   7.119  16.075  0.00  0.00    +0.000 C 
BRANCH  14  18
ATOM     15  F   UNL     1      47.026   2.798  17.433  0.00  0.00    +0.000 F 
ATOM     16  C   UNL     1      48.086   3.606  17.311  0.00  0.00    +0.000 A 
ATOM     17  C   UNL     1      47.921   4.872  16.760  0.00  0.00    +0.000 A 
ATOM     18  C   UNL     1      49.020   5.728  16.641  0.00  0.00    +0.000 A 
ATOM     19  C   UNL     1      50.282   5.280  17.066  0.00  0.00    +0.000 A 
ATOM     20  C   UNL     1      50.451   4.004  17.625  0.00  0.00    +0.000 A 
ATOM     21  C   UNL     1      49.333   3.166  17.746  0.00  0.00    +0.000 A 
BRANCH  20  22
ATOM     22  C   UNL     1      51.802   3.533  18.101  0.00  0.00    +0.000 C 
ATOM     23  F   UNL     1      52.843   4.103  17.433  0.00  0.00    +0.000 F 
ATOM     24  F   UNL     1      52.012   3.804  19.418  0.00  0.00    +0.000 F 
ATOM     25  F   UNL     1      51.964   2.188  17.963  0.00  0.00    +0.000 F 
ENDBRANCH  20  22
ENDBRANCH  14  18
ENDBRANCH   1  14
TORSDOF 5
ENDMDL
