MODEL 1
REMARK VINA RESULT:    -7.962      0.000      0.000
REMARK INTER + INTRA:         -12.377
REMARK INTER:                 -11.221
REMARK INTRA:                  -1.156
REMARK UNBOUND:                -1.156
REMARK  Name = 
REMARK  7 active torsions:
REMARK  status: ('A' for Active; 'I' for Inactive)
REMARK    1  A    between atoms: C_2  and  C_4
REMARK    2  A    between atoms: C_7  and  C_8
REMARK    3  A    between atoms: C_8  and  C_9
REMARK    4  A    between atoms: C_9  and  N_10
REMARK    5  A    between atoms: N_10  and  C_11
REMARK    6  A    between atoms: C_15  and  O_16
REMARK    7  A    between atoms: O_16  and  C_17
REMARK                            x       y       z     vdW  Elec       q    Type
REMARK                         _______ _______ _______ _____ _____    ______ ____
ROOT
ATOM      1  N   UNL     1      43.590   5.578  12.542  0.00  0.00    +0.000 N 
ATOM      2  H   UNL     1      43.068   5.078  13.259  0.00  0.00    +0.000 HD
ENDROOT
BRANCH   1   3
ATOM      3  C   UNL     1      44.953   5.688  12.839  0.00  0.00    +0.000 A 
ATOM      4  C   UNL     1      45.707   6.669  12.177  0.00  0.00    +0.000 A 
ATOM      5  C   UNL     1      47.093   6.737  12.337  0.00  0.00    +0.000 A 
ATOM      6  C   UNL     1      47.746   5.840  13.177  0.00  0.00    +0.000 A 
ATOM      7  C   UNL     1      47.012   4.896  13.900  0.00  0.00    +0.000 A 
ATOM      8  C   UNL     1      45.634   4.794  13.675  0.00  0.00    +0.000 A 
BRANCH   7   9
ATOM      9  O   UNL     1      47.525   4.059  14.861  0.00  0.00    +0.000 OA
BRANCH   9  10
ATOM     10  C   UNL     1      47.299   4.461  16.222  0.00  0.00    +0.000 C 
ATOM     11  C   UNL     1      48.442   5.334  16.720  0.00  0.00    +0.000 C 
ATOM     12  C   UNL     1      49.361   4.396  17.476  0.00  0.00    +0.000 C 
ATOM     13  N   UNL     1      48.535   3.310  17.996  0.00  0.00    +0.000 NA
ATOM     14  C   UNL     1      47.296   3.281  17.207  0.00  0.00    +0.000 C 
ATOM     15  H   UNL     1      48.311   3.471  18.976  0.00  0.00    +0.000 HD
ENDBRANCH   9  10
ENDBRANCH   7   9
ENDBRANCH   1   3
BRANCH   1  16
ATOM     16  C   UNL     1      43.207   5.209  11.179  0.00  0.00    +0.000 C 
BRANCH  16  17
ATOM     17  C   UNL     1      43.548   3.746  10.863  0.00  0.00    +0.000 C 
BRANCH  17  21
ATOM     18  C   UNL     1      46.383   2.915   7.693  0.00  0.00    +0.000 A 
ATOM     19  C   UNL     1      46.086   4.240   8.019  0.00  0.00    +0.000 A 
ATOM     20  C   UNL     1      45.166   4.523   9.034  0.00  0.00    +0.000 A 
ATOM     21  C   UNL     1      44.519   3.488   9.728  0.00  0.00    +0.000 A 
ATOM     22  C   UNL     1      44.828   2.161   9.395  0.00  0.00    +0.000 A 
ATOM     23  C   UNL     1      45.743   1.877   8.376  0.00  0.00    +0.000 A 
BRANCH  18  25
ATOM     24  N   UNL     1      47.117   3.078   5.374  0.00  0.00    +0.000 N 
ATOM     25  C   UNL     1      47.352   2.570   6.623  0.00  0.00    +0.000 C 
ATOM     26  O   UNL     1      48.351   1.895   6.850  0.00  0.00    +0.000 OA
ATOM     27  H   UNL     1      47.844   2.929   4.687  0.00  0.00    +0.000 HD
ATOM     28  H   UNL     1      46.464   3.831   5.214  0.00  0.00    +0.000 HD
ENDBRANCH  18  25
ENDBRANCH  17  21
ENDBRANCH  16  17
ENDBRANCH   1  16
TORSDOF 7
ENDMDL
MODEL 2
REMARK VINA RESULT:    -6.789      2.600      4.215
REMARK INTER + INTRA:         -10.724
REMARK INTER:                  -9.853
REMARK INTRA:                  -0.871
REMARK UNBOUND:                -1.156
REMARK  Name = 
REMARK  7 active torsions:
REMARK  status: ('A' for Active; 'I' for Inactive)
REMARK    1  A    between atoms: C_2  and  C_4
REMARK    2  A    between atoms: C_7  and  C_8
REMARK    3  A    between atoms: C_8  and  C_9
REMARK    4  A    between atoms: C_9  and  N_10
REMARK    5  A    between atoms: N_10  and  C_11
REMARK    6  A    between atoms: C_15  and  O_16
REMARK    7  A    between atoms: O_16  and  C_17
REMARK                            x       y       z     vdW  Elec       q    Type
REMARK                         _______ _______ _______ _____ _____    ______ ____
ROOT
ATOM      1  N   UNL     1      44.696   4.774  12.404  0.00  0.00    +0.000 N 
ATOM      2  H   UNL     1      44.615   3.789  12.650  0.00  0.00    +0.000 HD
ENDROOT
BRANCH   1   3
ATOM      3  C   UNL     1      45.926   5.329  12.778  0.00  0.00    +0.000 A 
ATOM      4  C   UNL     1      46.512   4.910  13.982  0.00  0.00    +0.000 A 
ATOM      5  C   UNL     1      47.669   5.524  14.468  0.00  0.00    +0.000 A 
ATOM      6  C   UNL     1      48.271   6.552  13.748  0.00  0.00    +0.000 A 
ATOM      7  C   UNL     1      47.746   6.943  12.514  0.00  0.00    +0.000 A 
ATOM      8  C   UNL     1      46.548   6.369  12.075  0.00  0.00    +0.000 A 
BRANCH   7   9
ATOM      9  O   UNL     1      48.330   7.840  11.652  0.00  0.00    +0.000 OA
BRANCH   9  10
ATOM     10  C   UNL     1      48.797   9.063  12.246  0.00  0.00    +0.000 C 
ATOM     11  C   UNL     1      47.633  10.009  12.506  0.00  0.00    +0.000 C 
ATOM     12  C   UNL     1      47.615  10.956  11.323  0.00  0.00    +0.000 C 
ATOM     13  N   UNL     1      48.986  11.049  10.825  0.00  0.00    +0.000 NA
ATOM     14  C   UNL     1      49.715   9.873  11.318  0.00  0.00    +0.000 C 
ATOM     15  H   UNL     1      49.432  11.896  11.171  0.00  0.00    +0.000 HD
ENDBRANCH   9  10
ENDBRANCH   7   9
ENDBRANCH   1   3
BRANCH   1  16
ATOM     16  C   UNL     1      44.171   5.089  11.076  0.00  0.00    +0.000 C 
BRANCH  16  17
ATOM     17  C   UNL     1      43.793   3.823  10.293  0.00  0.00    +0.000 C 
BRANCH  17  21
ATOM     18  C   UNL     1      46.640   2.378   7.363  0.00  0.00    +0.000 A 
ATOM     19  C   UNL     1      46.292   3.730   7.374  0.00  0.00    +0.000 A 
ATOM     20  C   UNL     1      45.368   4.209   8.308  0.00  0.00    +0.000 A 
ATOM     21  C   UNL     1      44.767   3.343   9.236  0.00  0.00    +0.000 A 
ATOM     22  C   UNL     1      45.127   1.987   9.218  0.00  0.00    +0.000 A 
ATOM     23  C   UNL     1      46.046   1.506   8.281  0.00  0.00    +0.000 A 
BRANCH  18  25
ATOM     24  N   UNL     1      48.846   2.420   6.329  0.00  0.00    +0.000 N 
ATOM     25  C   UNL     1      47.615   1.828   6.389  0.00  0.00    +0.000 C 
ATOM     26  O   UNL     1      47.351   0.852   5.694  0.00  0.00    +0.000 OA
ATOM     27  H   UNL     1      49.534   1.964   5.745  0.00  0.00    +0.000 HD
ATOM     28  H   UNL     1      49.179   3.043   7.050  0.00  0.00    +0.000 HD
ENDBRANCH  18  25
ENDBRANCH  17  21
ENDBRANCH  16  17
ENDBRANCH   1  16
TORSDOF 7
ENDMDL
MODEL 3
REMARK VINA RESULT:    -6.697      3.550      5.825
REMARK INTER + INTRA:         -10.593
REMARK INTER:                 -10.180
REMARK INTRA:                  -0.414
REMARK UNBOUND:                -1.156
REMARK  Name = 
REMARK  7 active torsions:
REMARK  status: ('A' for Active; 'I' for Inactive)
REMARK    1  A    between atoms: C_2  and  C_4
REMARK    2  A    between atoms: C_7  and  C_8
REMARK    3  A    between atoms: C_8  and  C_9
REMARK    4  A    between atoms: C_9  and  N_10
REMARK    5  A    between atoms: N_10  and  C_11
REMARK    6  A    between atoms: C_15  and  O_16
REMARK    7  A    between atoms: O_16  and  C_17
REMARK                            x       y       z     vdW  Elec       q    Type
REMARK                         _______ _______ _______ _____ _____    ______ ____
ROOT
ATOM      1  N   UNL     1      45.460   5.485  11.054  0.00  0.00    +0.000 N 
ATOM      2  H   UNL     1      45.788   5.260  10.117  0.00  0.00    +0.000 HD
ENDROOT
BRANCH   1   3
ATOM      3  C   UNL     1      45.707   6.815  11.412  0.00  0.00    +0.000 A 
ATOM      4  C   UNL     1      46.964   7.145  11.943  0.00  0.00    +0.000 A 
ATOM      5  C   UNL     1      47.220   8.426  12.438  0.00  0.00    +0.000 A 
ATOM      6  C   UNL     1      46.231   9.404  12.392  0.00  0.00    +0.000 A 
ATOM      7  C   UNL     1      44.994   9.123  11.808  0.00  0.00    +0.000 A 
ATOM      8  C   UNL     1      44.728   7.816  11.382  0.00  0.00    +0.000 A 
BRANCH   7   9
ATOM      9  O   UNL     1      43.997  10.041  11.577  0.00  0.00    +0.000 OA
BRANCH   9  10
ATOM     10  C   UNL     1      43.078   9.711  10.522  0.00  0.00    +0.000 C 
ATOM     11  C   UNL     1      43.348  10.565   9.292  0.00  0.00    +0.000 C 
ATOM     12  C   UNL     1      42.357  11.709   9.374  0.00  0.00    +0.000 C 
ATOM     13  N   UNL     1      41.193  11.219  10.108  0.00  0.00    +0.000 NA
ATOM     14  C   UNL     1      41.618  10.037  10.871  0.00  0.00    +0.000 C 
ATOM     15  H   UNL     1      40.450  10.958   9.462  0.00  0.00    +0.000 HD
ENDBRANCH   9  10
ENDBRANCH   7   9
ENDBRANCH   1   3
BRANCH   1  16
ATOM     16  C   UNL     1      44.148   4.918  11.364  0.00  0.00    +0.000 C 
BRANCH  16  17
ATOM     17  C   UNL     1      43.653   3.976  10.257  0.00  0.00    +0.000 C 
BRANCH  17  21
ATOM     18  C   UNL     1      46.573   2.396   7.473  0.00  0.00    +0.000 A 
ATOM     19  C   UNL     1      45.984   1.542   8.408  0.00  0.00    +0.000 A 
ATOM     20  C   UNL     1      45.046   2.041   9.318  0.00  0.00    +0.000 A 
ATOM     21  C   UNL     1      44.694   3.400   9.319  0.00  0.00    +0.000 A 
ATOM     22  C   UNL     1      45.290   4.246   8.372  0.00  0.00    +0.000 A 
ATOM     23  C   UNL     1      46.232   3.752   7.465  0.00  0.00    +0.000 A 
BRANCH  18  25
ATOM     24  N   UNL     1      48.688   2.676   6.294  0.00  0.00    +0.000 N 
ATOM     25  C   UNL     1      47.572   1.909   6.489  0.00  0.00    +0.000 C 
ATOM     26  O   UNL     1      47.434   0.839   5.904  0.00  0.00    +0.000 OA
ATOM     27  H   UNL     1      49.409   2.276   5.709  0.00  0.00    +0.000 HD
ATOM     28  H   UNL     1      48.952   3.412   6.932  0.00  0.00    +0.000 HD
ENDBRANCH  18  25
ENDBRANCH  17  21
ENDBRANCH  16  17
ENDBRANCH   1  16
TORSDOF 7
ENDMDL
MODEL 4
REMARK VINA RESULT:    -6.443      2.573      3.985
REMARK INTER + INTRA:         -10.236
REMARK INTER:                  -9.651
REMARK INTRA:                  -0.585
REMARK UNBOUND:                -1.156
REMARK  Name = 
REMARK  7 active torsions:
REMARK  status: ('A' for Active; 'I' for Inactive)
REMARK    1  A    between atoms: C_2  and  C_4
REMARK    2  A    between atoms: C_7  and  C_8
REMARK    3  A    between atoms: C_8  and  C_9
REMARK    4  A    between atoms: C_9  and  N_10
REMARK    5  A    between atoms: N_10  and  C_11
REMARK    6  A    between atoms: C_15  and  O_16
REMARK    7  A    between atoms: O_16  and  C_17
REMARK                            x       y       z     vdW  Elec       q    Type
REMARK                         _______ _______ _______ _____ _____    ______ ____
ROOT
ATOM      1  N   UNL     1      45.262   4.753   8.801  0.00  0.00    +0.000 N 
ATOM      2  H   UNL     1      44.763   5.394   8.188  0.00  0.00    +0.000 HD
ENDROOT
BRANCH   1   3
ATOM      3  C   UNL     1      44.840   4.835  10.133  0.00  0.00    +0.000 A 
ATOM      4  C   UNL     1      43.593   4.291  10.477  0.00  0.00    +0.000 A 
ATOM      5  C   UNL     1      43.066   4.460  11.759  0.00  0.00    +0.000 A 
ATOM      6  C   UNL     1      43.784   5.158  12.725  0.00  0.00    +0.000 A 
ATOM      7  C   UNL     1      45.057   5.653  12.430  0.00  0.00    +0.000 A 
ATOM      8  C   UNL     1      45.542   5.538  11.122  0.00  0.00    +0.000 A 
BRANCH   7   9
ATOM      9  O   UNL     1      45.915   6.229  13.336  0.00  0.00    +0.000 OA
BRANCH   9  10
ATOM     10  C   UNL     1      47.183   5.571  13.498  0.00  0.00    +0.000 C 
ATOM     11  C   UNL     1      46.999   4.208  14.150  0.00  0.00    +0.000 C 
ATOM     12  C   UNL     1      47.276   4.429  15.623  0.00  0.00    +0.000 C 
ATOM     13  N   UNL     1      48.207   5.551  15.723  0.00  0.00    +0.000 NA
ATOM     14  C   UNL     1      48.124   6.306  14.466  0.00  0.00    +0.000 C 
ATOM     15  H   UNL     1      49.158   5.213  15.855  0.00  0.00    +0.000 HD
ENDBRANCH   9  10
ENDBRANCH   7   9
ENDBRANCH   1   3
BRANCH   1  16
ATOM     16  C   UNL     1      45.462   3.426   8.219  0.00  0.00    +0.000 C 
BRANCH  16  17
ATOM     17  C   UNL     1      46.763   3.344   7.409  0.00  0.00    +0.000 C 
BRANCH  17  21
ATOM     18  C   UNL     1      47.014   0.442   4.201  0.00  0.00    +0.000 A 
ATOM     19  C   UNL     1      46.679   1.765   3.906  0.00  0.00    +0.000 A 
ATOM     20  C   UNL     1      46.586   2.710   4.932  0.00  0.00    +0.000 A 
ATOM     21  C   UNL     1      46.811   2.347   6.269  0.00  0.00    +0.000 A 
ATOM     22  C   UNL     1      47.150   1.015   6.554  0.00  0.00    +0.000 A 
ATOM     23  C   UNL     1      47.238   0.067   5.530  0.00  0.00    +0.000 A 
BRANCH  18  25
ATOM     24  N   UNL     1      46.163  -1.568   3.116  0.00  0.00    +0.000 N 
ATOM     25  C   UNL     1      47.123  -0.594   3.144  0.00  0.00    +0.000 C 
ATOM     26  O   UNL     1      48.009  -0.559   2.295  0.00  0.00    +0.000 OA
ATOM     27  H   UNL     1      46.186  -2.196   2.323  0.00  0.00    +0.000 HD
ATOM     28  H   UNL     1      45.296  -1.483   3.624  0.00  0.00    +0.000 HD
ENDBRANCH  18  25
ENDBRANCH  17  21
ENDBRANCH  16  17
ENDBRANCH   1  16
TORSDOF 7
ENDMDL
MODEL 5
REMARK VINA RESULT:    -6.348      3.110      7.388
REMARK INTER + INTRA:         -10.103
REMARK INTER:                  -8.995
REMARK INTRA:                  -1.108
REMARK UNBOUND:                -1.156
REMARK  Name = 
REMARK  7 active torsions:
REMARK  status: ('A' for Active; 'I' for Inactive)
REMARK    1  A    between atoms: C_2  and  C_4
REMARK    2  A    between atoms: C_7  and  C_8
REMARK    3  A    between atoms: C_8  and  C_9
REMARK    4  A    between atoms: C_9  and  N_10
REMARK    5  A    between atoms: N_10  and  C_11
REMARK    6  A    between atoms: C_15  and  O_16
REMARK    7  A    between atoms: O_16  and  C_17
REMARK                            x       y       z     vdW  Elec       q    Type
REMARK                         _______ _______ _______ _____ _____    ______ ____
ROOT
ATOM      1  N   UNL     1      46.287   4.123  14.096  0.00  0.00    +0.000 N 
ATOM      2  H   UNL     1      45.951   3.669  14.943  0.00  0.00    +0.000 HD
ENDROOT
BRANCH   1   3
ATOM      3  C   UNL     1      45.320   4.175  13.085  0.00  0.00    +0.000 A 
ATOM      4  C   UNL     1      44.113   4.843  13.344  0.00  0.00    +0.000 A 
ATOM      5  C   UNL     1      43.064   4.813  12.423  0.00  0.00    +0.000 A 
ATOM      6  C   UNL     1      43.210   4.131  11.218  0.00  0.00    +0.000 A 
ATOM      7  C   UNL     1      44.423   3.513  10.906  0.00  0.00    +0.000 A 
ATOM      8  C   UNL     1      45.440   3.492  11.868  0.00  0.00    +0.000 A 
BRANCH   7   9
ATOM      9  O   UNL     1      44.733   2.937   9.697  0.00  0.00    +0.000 OA
BRANCH   9  10
ATOM     10  C   UNL     1      44.715   3.821   8.563  0.00  0.00    +0.000 C 
ATOM     11  C   UNL     1      45.059   3.063   7.289  0.00  0.00    +0.000 C 
ATOM     12  C   UNL     1      46.538   3.309   7.065  0.00  0.00    +0.000 C 
ATOM     13  N   UNL     1      46.855   4.603   7.664  0.00  0.00    +0.000 NA
ATOM     14  C   UNL     1      45.794   4.913   8.632  0.00  0.00    +0.000 C 
ATOM     15  H   UNL     1      46.886   5.327   6.949  0.00  0.00    +0.000 HD
ENDBRANCH   9  10
ENDBRANCH   7   9
ENDBRANCH   1   3
BRANCH   1  16
ATOM     16  C   UNL     1      47.082   5.324  14.354  0.00  0.00    +0.000 C 
BRANCH  16  17
ATOM     17  C   UNL     1      47.696   5.894  13.067  0.00  0.00    +0.000 C 
BRANCH  17  21
ATOM     18  C   UNL     1      46.674   9.969  12.008  0.00  0.00    +0.000 A 
ATOM     19  C   UNL     1      45.670   9.100  12.441  0.00  0.00    +0.000 A 
ATOM     20  C   UNL     1      45.984   7.780  12.778  0.00  0.00    +0.000 A 
ATOM     21  C   UNL     1      47.301   7.303  12.673  0.00  0.00    +0.000 A 
ATOM     22  C   UNL     1      48.301   8.186  12.241  0.00  0.00    +0.000 A 
ATOM     23  C   UNL     1      47.988   9.505  11.898  0.00  0.00    +0.000 A 
BRANCH  18  25
ATOM     24  N   UNL     1      45.220  11.924  12.107  0.00  0.00    +0.000 N 
ATOM     25  C   UNL     1      46.385  11.378  11.640  0.00  0.00    +0.000 C 
ATOM     26  O   UNL     1      47.175  12.048  10.983  0.00  0.00    +0.000 OA
ATOM     27  H   UNL     1      45.094  12.914  11.944  0.00  0.00    +0.000 HD
ATOM     28  H   UNL     1      44.685  11.495  12.847  0.00  0.00    +0.000 HD
ENDBRANCH  18  25
ENDBRANCH  17  21
ENDBRANCH  16  17
ENDBRANCH   1  16
TORSDOF 7
ENDMDL
MODEL 6
REMARK VINA RESULT:    -6.266      2.709      7.307
REMARK INTER + INTRA:          -9.986
REMARK INTER:                  -8.843
REMARK INTRA:                  -1.143
REMARK UNBOUND:                -1.156
REMARK  Name = 
REMARK  7 active torsions:
REMARK  status: ('A' for Active; 'I' for Inactive)
REMARK    1  A    between atoms: C_2  and  C_4
REMARK    2  A    between atoms: C_7  and  C_8
REMARK    3  A    between atoms: C_8  and  C_9
REMARK    4  A    between atoms: C_9  and  N_10
REMARK    5  A    between atoms: N_10  and  C_11
REMARK    6  A    between atoms: C_15  and  O_16
REMARK    7  A    between atoms: O_16  and  C_17
REMARK                            x       y       z     vdW  Elec       q    Type
REMARK                         _______ _______ _______ _____ _____    ______ ____
ROOT
ATOM      1  N   UNL     1      46.576   8.863  13.915  0.00  0.00    +0.000 N 
ATOM      2  H   UNL     1      46.256   9.569  14.576  0.00  0.00    +0.000 HD
ENDROOT
BRANCH   1   3
ATOM      3  C   UNL     1      45.681   8.661  12.859  0.00  0.00    +0.000 A 
ATOM      4  C   UNL     1      45.208   9.780  12.156  0.00  0.00    +0.000 A 
ATOM      5  C   UNL     1      44.216   9.648  11.182  0.00  0.00    +0.000 A 
ATOM      6  C   UNL     1      43.695   8.394  10.879  0.00  0.00    +0.000 A 
ATOM      7  C   UNL     1      44.194   7.255  11.515  0.00  0.00    +0.000 A 
ATOM      8  C   UNL     1      45.137   7.410  12.538  0.00  0.00    +0.000 A 
BRANCH   7   9
ATOM      9  O   UNL     1      43.863   5.959  11.199  0.00  0.00    +0.000 OA
BRANCH   9  10
ATOM     10  C   UNL     1      44.959   5.030  11.154  0.00  0.00    +0.000 C 
ATOM     11  C   UNL     1      45.143   4.490   9.743  0.00  0.00    +0.000 C 
ATOM     12  C   UNL     1      44.420   3.158   9.726  0.00  0.00    +0.000 C 
ATOM     13  N   UNL     1      44.450   2.635  11.090  0.00  0.00    +0.000 NA
ATOM     14  C   UNL     1      44.712   3.765  11.991  0.00  0.00    +0.000 C 
ATOM     15  H   UNL     1      45.190   1.942  11.188  0.00  0.00    +0.000 HD
ENDBRANCH   9  10
ENDBRANCH   7   9
ENDBRANCH   1   3
BRANCH   1  16
ATOM     16  C   UNL     1      48.003   8.960  13.605  0.00  0.00    +0.000 C 
BRANCH  16  17
ATOM     17  C   UNL     1      48.644   7.578  13.419  0.00  0.00    +0.000 C 
BRANCH  17  21
ATOM     18  C   UNL     1      47.712   4.485  16.307  0.00  0.00    +0.000 A 
ATOM     19  C   UNL     1      47.154   4.421  15.028  0.00  0.00    +0.000 A 
ATOM     20  C   UNL     1      47.440   5.417  14.088  0.00  0.00    +0.000 A 
ATOM     21  C   UNL     1      48.273   6.499  14.415  0.00  0.00    +0.000 A 
ATOM     22  C   UNL     1      48.830   6.550  15.702  0.00  0.00    +0.000 A 
ATOM     23  C   UNL     1      48.541   5.559  16.645  0.00  0.00    +0.000 A 
BRANCH  18  25
ATOM     24  N   UNL     1      48.440   3.150  18.211  0.00  0.00    +0.000 N 
ATOM     25  C   UNL     1      47.435   3.451  17.334  0.00  0.00    +0.000 C 
ATOM     26  O   UNL     1      46.335   2.914  17.430  0.00  0.00    +0.000 OA
ATOM     27  H   UNL     1      48.200   2.529  18.972  0.00  0.00    +0.000 HD
ATOM     28  H   UNL     1      49.251   3.741  18.323  0.00  0.00    +0.000 HD
ENDBRANCH  18  25
ENDBRANCH  17  21
ENDBRANCH  16  17
ENDBRANCH   1  16
TORSDOF 7
ENDMDL
MODEL 7
REMARK VINA RESULT:    -6.115      4.369      7.383
REMARK INTER + INTRA:          -9.774
REMARK INTER:                  -8.286
REMARK INTRA:                  -1.489
REMARK UNBOUND:                -1.156
REMARK  Name = 
REMARK  7 active torsions:
REMARK  status: ('A' for Active; 'I' for Inactive)
REMARK    1  A    between atoms: C_2  and  C_4
REMARK    2  A    between atoms: C_7  and  C_8
REMARK    3  A    between atoms: C_8  and  C_9
REMARK    4  A    between atoms: C_9  and  N_10
REMARK    5  A    between atoms: N_10  and  C_11
REMARK    6  A    between atoms: C_15  and  O_16
REMARK    7  A    between atoms: O_16  and  C_17
REMARK                            x       y       z     vdW  Elec       q    Type
REMARK                         _______ _______ _______ _____ _____    ______ ____
ROOT
ATOM      1  N   UNL     1      48.569   9.287  12.622  0.00  0.00    +0.000 N 
ATOM      2  H   UNL     1      49.326   9.785  13.085  0.00  0.00    +0.000 HD
ENDROOT
BRANCH   1   3
ATOM      3  C   UNL     1      47.685  10.140  11.952  0.00  0.00    +0.000 A 
ATOM      4  C   UNL     1      48.199  11.007  10.975  0.00  0.00    +0.000 A 
ATOM      5  C   UNL     1      47.387  11.969  10.371  0.00  0.00    +0.000 A 
ATOM      6  C   UNL     1      46.042  12.068  10.717  0.00  0.00    +0.000 A 
ATOM      7  C   UNL     1      45.489  11.174  11.637  0.00  0.00    +0.000 A 
ATOM      8  C   UNL     1      46.330  10.263  12.286  0.00  0.00    +0.000 A 
BRANCH   7   9
ATOM      9  O   UNL     1      44.153  11.081  11.949  0.00  0.00    +0.000 OA
BRANCH   9  10
ATOM     10  C   UNL     1      43.266  10.885  10.835  0.00  0.00    +0.000 C 
ATOM     11  C   UNL     1      41.981  11.678  11.029  0.00  0.00    +0.000 C 
ATOM     12  C   UNL     1      40.983  10.690  11.598  0.00  0.00    +0.000 C 
ATOM     13  N   UNL     1      41.366   9.365  11.115  0.00  0.00    +0.000 NA
ATOM     14  C   UNL     1      42.774   9.435  10.703  0.00  0.00    +0.000 C 
ATOM     15  H   UNL     1      40.791   9.098  10.318  0.00  0.00    +0.000 HD
ENDBRANCH   9  10
ENDBRANCH   7   9
ENDBRANCH   1   3
BRANCH   1  16
ATOM     16  C   UNL     1      49.005   8.069  11.939  0.00  0.00    +0.000 C 
BRANCH  16  17
ATOM     17  C   UNL     1      48.472   6.803  12.626  0.00  0.00    +0.000 C 
BRANCH  17  21
ATOM     18  C   UNL     1      44.371   5.597  11.917  0.00  0.00    +0.000 A 
ATOM     19  C   UNL     1      45.065   6.289  10.922  0.00  0.00    +0.000 A 
ATOM     20  C   UNL     1      46.386   6.691  11.140  0.00  0.00    +0.000 A 
ATOM     21  C   UNL     1      47.029   6.424  12.359  0.00  0.00    +0.000 A 
ATOM     22  C   UNL     1      46.323   5.725  13.350  0.00  0.00    +0.000 A 
ATOM     23  C   UNL     1      45.000   5.327  13.136  0.00  0.00    +0.000 A 
BRANCH  18  25
ATOM     24  N   UNL     1      41.989   6.105  11.803  0.00  0.00    +0.000 N 
ATOM     25  C   UNL     1      42.968   5.152  11.727  0.00  0.00    +0.000 C 
ATOM     26  O   UNL     1      42.691   3.986  11.466  0.00  0.00    +0.000 OA
ATOM     27  H   UNL     1      41.054   5.807  11.560  0.00  0.00    +0.000 HD
ATOM     28  H   UNL     1      42.196   7.092  11.760  0.00  0.00    +0.000 HD
ENDBRANCH  18  25
ENDBRANCH  17  21
ENDBRANCH  16  17
ENDBRANCH   1  16
TORSDOF 7
ENDMDL
MODEL 8
REMARK VINA RESULT:    -6.093      3.031      4.660
REMARK INTER + INTRA:          -9.743
REMARK INTER:                  -8.632
REMARK INTRA:                  -1.111
REMARK UNBOUND:                -1.156
REMARK  Name = 
REMARK  7 active torsions:
REMARK  status: ('A' for Active; 'I' for Inactive)
REMARK    1  A    between atoms: C_2  and  C_4
REMARK    2  A    between atoms: C_7  and  C_8
REMARK    3  A    between atoms: C_8  and  C_9
REMARK    4  A    between atoms: C_9  and  N_10
REMARK    5  A    between atoms: N_10  and  C_11
REMARK    6  A    between atoms: C_15  and  O_16
REMARK    7  A    between atoms: O_16  and  C_17
REMARK                            x       y       z     vdW  Elec       q    Type
REMARK                         _______ _______ _______ _____ _____    ______ ____
ROOT
ATOM      1  N   UNL     1      49.257   8.776  12.912  0.00  0.00    +0.000 N 
ATOM      2  H   UNL     1      49.291   9.789  12.812  0.00  0.00    +0.000 HD
ENDROOT
BRANCH   1   3
ATOM      3  C   UNL     1      49.032   8.367  14.231  0.00  0.00    +0.000 A 
ATOM      4  C   UNL     1      48.694   9.337  15.187  0.00  0.00    +0.000 A 
ATOM      5  C   UNL     1      48.588   9.005  16.539  0.00  0.00    +0.000 A 
ATOM      6  C   UNL     1      48.798   7.694  16.957  0.00  0.00    +0.000 A 
ATOM      7  C   UNL     1      49.070   6.695  16.019  0.00  0.00    +0.000 A 
ATOM      8  C   UNL     1      49.243   7.055  14.678  0.00  0.00    +0.000 A 
BRANCH   7   9
ATOM      9  O   UNL     1      49.154   5.351  16.292  0.00  0.00    +0.000 OA
BRANCH   9  10
ATOM     10  C   UNL     1      48.576   4.932  17.540  0.00  0.00    +0.000 C 
ATOM     11  C   UNL     1      49.154   3.592  17.973  0.00  0.00    +0.000 C 
ATOM     12  C   UNL     1      48.148   2.555  17.516  0.00  0.00    +0.000 C 
ATOM     13  N   UNL     1      46.839   3.205  17.496  0.00  0.00    +0.000 NA
ATOM     14  C   UNL     1      47.068   4.655  17.444  0.00  0.00    +0.000 C 
ATOM     15  H   UNL     1      46.315   2.973  18.337  0.00  0.00    +0.000 HD
ENDBRANCH   9  10
ENDBRANCH   7   9
ENDBRANCH   1   3
BRANCH   1  16
ATOM     16  C   UNL     1      48.511   8.110  11.844  0.00  0.00    +0.000 C 
BRANCH  16  17
ATOM     17  C   UNL     1      47.000   8.104  12.117  0.00  0.00    +0.000 C 
BRANCH  17  21
ATOM     18  C   UNL     1      44.884   4.327  11.933  0.00  0.00    +0.000 A 
ATOM     19  C   UNL     1      45.368   4.785  13.161  0.00  0.00    +0.000 A 
ATOM     20  C   UNL     1      46.060   5.998  13.233  0.00  0.00    +0.000 A 
ATOM     21  C   UNL     1      46.293   6.765  12.080  0.00  0.00    +0.000 A 
ATOM     22  C   UNL     1      45.799   6.297  10.854  0.00  0.00    +0.000 A 
ATOM     23  C   UNL     1      45.112   5.082  10.778  0.00  0.00    +0.000 A 
BRANCH  18  25
ATOM     24  N   UNL     1      44.190   2.407  10.603  0.00  0.00    +0.000 N 
ATOM     25  C   UNL     1      44.145   3.046  11.811  0.00  0.00    +0.000 C 
ATOM     26  O   UNL     1      43.553   2.550  12.764  0.00  0.00    +0.000 OA
ATOM     27  H   UNL     1      43.779   1.483  10.570  0.00  0.00    +0.000 HD
ATOM     28  H   UNL     1      44.864   2.648   9.891  0.00  0.00    +0.000 HD
ENDBRANCH  18  25
ENDBRANCH  17  21
ENDBRANCH  16  17
ENDBRANCH   1  16
TORSDOF 7
ENDMDL
MODEL 9
REMARK VINA RESULT:    -6.077      3.041      5.222
REMARK INTER + INTRA:          -9.720
REMARK INTER:                  -9.062
REMARK INTRA:                  -0.658
REMARK UNBOUND:                -1.156
REMARK  Name = 
REMARK  7 active torsions:
REMARK  status: ('A' for Active; 'I' for Inactive)
REMARK    1  A    between atoms: C_2  and  C_4
REMARK    2  A    between atoms: C_7  and  C_8
REMARK    3  A    between atoms: C_8  and  C_9
REMARK    4  A    between atoms: C_9  and  N_10
REMARK    5  A    between atoms: N_10  and  C_11
REMARK    6  A    between atoms: C_15  and  O_16
REMARK    7  A    between atoms: O_16  and  C_17
REMARK                            x       y       z     vdW  Elec       q    Type
REMARK                         _______ _______ _______ _____ _____    ______ ____
ROOT
ATOM      1  N   UNL     1      48.106   6.510  15.784  0.00  0.00    +0.000 N 
ATOM      2  H   UNL     1      47.177   6.915  15.881  0.00  0.00    +0.000 HD
ENDROOT
BRANCH   1   3
ATOM      3  C   UNL     1      48.282   5.360  16.563  0.00  0.00    +0.000 A 
ATOM      4  C   UNL     1      47.212   4.459  16.681  0.00  0.00    +0.000 A 
ATOM      5  C   UNL     1      47.287   3.367  17.548  0.00  0.00    +0.000 A 
ATOM      6  C   UNL     1      48.440   3.145  18.297  0.00  0.00    +0.000 A 
ATOM      7  C   UNL     1      49.544   3.987  18.149  0.00  0.00    +0.000 A 
ATOM      8  C   UNL     1      49.429   5.117  17.330  0.00  0.00    +0.000 A 
BRANCH   7   9
ATOM      9  O   UNL     1      50.777   3.787  18.721  0.00  0.00    +0.000 OA
BRANCH   9  10
ATOM     10  C   UNL     1      51.798   3.285  17.842  0.00  0.00    +0.000 C 
ATOM     11  C   UNL     1      51.297   2.064  17.083  0.00  0.00    +0.000 C 
ATOM     12  C   UNL     1      51.814   0.870  17.860  0.00  0.00    +0.000 C 
ATOM     13  N   UNL     1      53.045   1.291  18.526  0.00  0.00    +0.000 NA
ATOM     14  C   UNL     1      53.033   2.758  18.589  0.00  0.00    +0.000 C 
ATOM     15  H   UNL     1      53.858   0.979  18.000  0.00  0.00    +0.000 HD
ENDBRANCH   9  10
ENDBRANCH   7   9
ENDBRANCH   1   3
BRANCH   1  16
ATOM     16  C   UNL     1      48.594   6.492  14.405  0.00  0.00    +0.000 C 
BRANCH  16  17
ATOM     17  C   UNL     1      47.515   6.938  13.409  0.00  0.00    +0.000 C 
BRANCH  17  21
ATOM     18  C   UNL     1      45.005   3.933  11.552  0.00  0.00    +0.000 A 
ATOM     19  C   UNL     1      45.669   3.633  12.743  0.00  0.00    +0.000 A 
ATOM     20  C   UNL     1      46.489   4.590  13.349  0.00  0.00    +0.000 A 
ATOM     21  C   UNL     1      46.670   5.856  12.768  0.00  0.00    +0.000 A 
ATOM     22  C   UNL     1      45.995   6.147  11.573  0.00  0.00    +0.000 A 
ATOM     23  C   UNL     1      45.180   5.189  10.963  0.00  0.00    +0.000 A 
BRANCH  18  25
ATOM     24  N   UNL     1      44.599   2.362   9.734  0.00  0.00    +0.000 N 
ATOM     25  C   UNL     1      44.126   2.947  10.876  0.00  0.00    +0.000 C 
ATOM     26  O   UNL     1      43.036   2.629  11.340  0.00  0.00    +0.000 OA
ATOM     27  H   UNL     1      44.040   1.612   9.350  0.00  0.00    +0.000 HD
ATOM     28  H   UNL     1      45.573   2.405   9.471  0.00  0.00    +0.000 HD
ENDBRANCH  18  25
ENDBRANCH  17  21
ENDBRANCH  16  17
ENDBRANCH   1  16
TORSDOF 7
ENDMDL
