MODEL 1
REMARK VINA RESULT:    -8.440      0.000      0.000
REMARK INTER + INTRA:         -11.665
REMARK INTER:                 -11.400
REMARK INTRA:                  -0.264
REMARK UNBOUND:                -0.264
REMARK  Name = 
REMARK  9 active torsions:
REMARK  status: ('A' for Active; 'I' for Inactive)
REMARK    1  A    between atoms: C_1  and  C_2
REMARK    2  A    between atoms: C_8  and  C_9
REMARK    3  A    between atoms: N_11  and  C_12
REMARK    4  A    between atoms: C_12  and  C_13
REMARK    5  A    between atoms: C_12  and  C_14
REMARK    6  A    between atoms: C_17  and  N_18
REMARK    7  A    between atoms: N_18  and  C_19
REMARK    8  A    between atoms: C_19  and  C_20
REMARK    9  A    between atoms: C_29  and  C_30
REMARK                            x       y       z     vdW  Elec       q    Type
REMARK                         _______ _______ _______ _____ _____    ______ ____
ROOT
ATOM      1  C   UNL     1      47.680   6.748  13.667  0.00  0.00    +0.000 C 
ATOM      2  C   UNL     1      49.054   6.915  13.010  0.00  0.00    +0.000 C 
ENDROOT
BRANCH   1   3
ATOM      3  C   UNL     1      46.726   5.993  12.748  0.00  0.00    +0.000 A 
ATOM      4  C   UNL     1      46.481   6.455  11.449  0.00  0.00    +0.000 A 
ATOM      5  C   UNL     1      45.629   5.751  10.585  0.00  0.00    +0.000 A 
ATOM      6  C   UNL     1      45.022   4.553  10.978  0.00  0.00    +0.000 A 
ATOM      7  C   UNL     1      45.237   4.113  12.287  0.00  0.00    +0.000 A 
ATOM      8  C   UNL     1      46.087   4.814  13.156  0.00  0.00    +0.000 A 
BRANCH   6   9
ATOM      9  N   UNL     1      44.175   3.915  10.061  0.00  0.00    +0.000 N 
ATOM     10  H   UNL     1      43.204   4.008  10.366  0.00  0.00    +0.000 HD
BRANCH   9  11
ATOM     11  C   UNL     1      44.457   2.517   9.717  0.00  0.00    +0.000 C 
BRANCH  11  12
ATOM     12  C   UNL     1      45.404   2.411   8.535  0.00  0.00    +0.000 A 
ATOM     13  C   UNL     1      45.581   3.500   7.680  0.00  0.00    +0.000 A 
ATOM     14  C   UNL     1      46.531   3.417   6.665  0.00  0.00    +0.000 A 
ATOM     15  C   UNL     1      47.274   2.253   6.524  0.00  0.00    +0.000 A 
ATOM     16  C   UNL     1      47.028   1.211   7.401  0.00  0.00    +0.000 A 
ATOM     17  N   UNL     1      46.116   1.261   8.399  0.00  0.00    +0.000 NA
ENDBRANCH  11  12
ENDBRANCH   9  11
ENDBRANCH   6   9
ENDBRANCH   1   3
BRANCH   1  20
ATOM     18  C   UNL     1      48.726   6.477  15.910  0.00  0.00    +0.000 C 
ATOM     19  O   UNL     1      49.502   7.404  15.727  0.00  0.00    +0.000 OA
ATOM     20  N   UNL     1      47.787   6.089  14.966  0.00  0.00    +0.000 N 
ATOM     21  H   UNL     1      47.156   5.322  15.152  0.00  0.00    +0.000 HD
BRANCH  18  29
ATOM     22  C   UNL     1      47.080   8.856  21.034  0.00  0.00    +0.000 C 
ATOM     23  C   UNL     1      47.570   7.701  20.218  0.00  0.00    +0.000 A 
ATOM     24  S   UNL     1      47.663   6.162  20.936  0.00  0.00    +0.000 S 
ATOM     25  C   UNL     1      48.230   5.453  19.502  0.00  0.00    +0.000 A 
ATOM     26  N   UNL     1      48.517   4.135  19.507  0.00  0.00    +0.000 NA
ATOM     27  C   UNL     1      48.909   3.640  18.329  0.00  0.00    +0.000 A 
ATOM     28  C   UNL     1      49.018   4.371  17.167  0.00  0.00    +0.000 A 
ATOM     29  C   UNL     1      48.721   5.744  17.197  0.00  0.00    +0.000 A 
ATOM     30  C   UNL     1      48.327   6.345  18.429  0.00  0.00    +0.000 A 
ATOM     31  C   UNL     1      47.999   7.696  18.893  0.00  0.00    +0.000 A 
ATOM     32  C   UNL     1      48.089   8.964  18.098  0.00  0.00    +0.000 C 
ENDBRANCH  18  29
ENDBRANCH   1  20
TORSDOF 6
ENDMDL
MODEL 2
REMARK VINA RESULT:    -8.316      2.645      4.477
REMARK INTER + INTRA:         -11.497
REMARK INTER:                 -10.193
REMARK INTRA:                  -1.304
REMARK UNBOUND:                -0.264
REMARK  Name = 
REMARK  9 active torsions:
REMARK  status: ('A' for Active; 'I' for Inactive)
REMARK    1  A    between atoms: C_1  and  C_2
REMARK    2  A    between atoms: C_8  and  C_9
REMARK    3  A    between atoms: N_11  and  C_12
REMARK    4  A    between atoms: C_12  and  C_13
REMARK    5  A    between atoms: C_12  and  C_14
REMARK    6  A    between atoms: C_17  and  N_18
REMARK    7  A    between atoms: N_18  and  C_19
REMARK    8  A    between atoms: C_19  and  C_20
REMARK    9  A    between atoms: C_29  and  C_30
REMARK                            x       y       z     vdW  Elec       q    Type
REMARK                         _______ _______ _______ _____ _____    ______ ____
ROOT
ATOM      1  C   UNL     1      47.613   4.971  14.776  0.00  0.00    +0.000 C 
ATOM      2  C   UNL     1      47.008   4.284  16.004  0.00  0.00    +0.000 C 
ENDROOT
BRANCH   1   3
ATOM      3  C   UNL     1      46.756   4.729  13.540  0.00  0.00    +0.000 A 
ATOM      4  C   UNL     1      46.227   3.457  13.282  0.00  0.00    +0.000 A 
ATOM      5  C   UNL     1      45.412   3.231  12.164  0.00  0.00    +0.000 A 
ATOM      6  C   UNL     1      45.075   4.268  11.287  0.00  0.00    +0.000 A 
ATOM      7  C   UNL     1      45.633   5.527  11.523  0.00  0.00    +0.000 A 
ATOM      8  C   UNL     1      46.450   5.760  12.639  0.00  0.00    +0.000 A 
BRANCH   6   9
ATOM      9  N   UNL     1      44.265   3.958  10.185  0.00  0.00    +0.000 N 
ATOM     10  H   UNL     1      43.297   4.213  10.387  0.00  0.00    +0.000 HD
BRANCH   9  11
ATOM     11  C   UNL     1      44.320   2.593   9.649  0.00  0.00    +0.000 C 
BRANCH  11  12
ATOM     12  C   UNL     1      45.341   2.471   8.531  0.00  0.00    +0.000 A 
ATOM     13  C   UNL     1      45.614   3.567   7.710  0.00  0.00    +0.000 A 
ATOM     14  C   UNL     1      46.626   3.465   6.760  0.00  0.00    +0.000 A 
ATOM     15  C   UNL     1      47.336   2.276   6.648  0.00  0.00    +0.000 A 
ATOM     16  C   UNL     1      46.994   1.230   7.488  0.00  0.00    +0.000 A 
ATOM     17  N   UNL     1      46.019   1.299   8.423  0.00  0.00    +0.000 NA
ENDBRANCH  11  12
ENDBRANCH   9  11
ENDBRANCH   6   9
ENDBRANCH   1   3
BRANCH   1  20
ATOM     18  C   UNL     1      49.004   6.912  15.483  0.00  0.00    +0.000 C 
ATOM     19  O   UNL     1      49.976   6.207  15.715  0.00  0.00    +0.000 OA
ATOM     20  N   UNL     1      47.805   6.401  15.008  0.00  0.00    +0.000 N 
ATOM     21  H   UNL     1      47.023   7.012  14.821  0.00  0.00    +0.000 HD
BRANCH  18  29
ATOM     22  C   UNL     1      49.151  10.741  11.017  0.00  0.00    +0.000 C 
ATOM     23  C   UNL     1      49.141  10.428  12.481  0.00  0.00    +0.000 A 
ATOM     24  S   UNL     1      48.982  11.701  13.597  0.00  0.00    +0.000 S 
ATOM     25  C   UNL     1      49.030  10.637  14.919  0.00  0.00    +0.000 A 
ATOM     26  N   UNL     1      48.960  11.155  16.162  0.00  0.00    +0.000 NA
ATOM     27  C   UNL     1      48.953  10.252  17.148  0.00  0.00    +0.000 A 
ATOM     28  C   UNL     1      48.999   8.888  16.964  0.00  0.00    +0.000 A 
ATOM     29  C   UNL     1      49.082   8.381  15.657  0.00  0.00    +0.000 A 
ATOM     30  C   UNL     1      49.125   9.289  14.558  0.00  0.00    +0.000 A 
ATOM     31  C   UNL     1      49.264   9.188  13.102  0.00  0.00    +0.000 A 
ATOM     32  C   UNL     1      49.510   7.939  12.310  0.00  0.00    +0.000 C 
ENDBRANCH  18  29
ENDBRANCH   1  20
TORSDOF 6
ENDMDL
MODEL 3
REMARK VINA RESULT:    -8.292      1.814      2.813
REMARK INTER + INTRA:         -11.465
REMARK INTER:                 -10.331
REMARK INTRA:                  -1.134
REMARK UNBOUND:                -0.264
REMARK  Name = 
REMARK  9 active torsions:
REMARK  status: ('A' for Active; 'I' for Inactive)
REMARK    1  A    between atoms: C_1  and  C_2
REMARK    2  A    between atoms: C_8  and  C_9
REMARK    3  A    between atoms: N_11  and  C_12
REMARK    4  A    between atoms: C_12  and  C_13
REMARK    5  A    between atoms: C_12  and  C_14
REMARK    6  A    between atoms: C_17  and  N_18
REMARK    7  A    between atoms: N_18  and  C_19
REMARK    8  A    between atoms: C_19  and  C_20
REMARK    9  A    between atoms: C_29  and  C_30
REMARK                            x       y       z     vdW  Elec       q    Type
REMARK                         _______ _______ _______ _____ _____    ______ ____
ROOT
ATOM      1  C   UNL     1      47.768   4.981  14.885  0.00  0.00    +0.000 C 
ATOM      2  C   UNL     1      47.225   3.912  15.838  0.00  0.00    +0.000 C 
ENDROOT
BRANCH   1   3
ATOM      3  C   UNL     1      46.918   5.068  13.623  0.00  0.00    +0.000 A 
ATOM      4  C   UNL     1      47.075   6.142  12.737  0.00  0.00    +0.000 A 
ATOM      5  C   UNL     1      46.319   6.215  11.558  0.00  0.00    +0.000 A 
ATOM      6  C   UNL     1      45.409   5.211  11.212  0.00  0.00    +0.000 A 
ATOM      7  C   UNL     1      45.225   4.160  12.115  0.00  0.00    +0.000 A 
ATOM      8  C   UNL     1      45.977   4.081  13.297  0.00  0.00    +0.000 A 
BRANCH   6   9
ATOM      9  N   UNL     1      44.683   5.364  10.022  0.00  0.00    +0.000 N 
ATOM     10  H   UNL     1      43.922   6.030  10.166  0.00  0.00    +0.000 HD
BRANCH   9  11
ATOM     11  C   UNL     1      44.170   4.155   9.366  0.00  0.00    +0.000 C 
BRANCH  11  12
ATOM     12  C   UNL     1      45.261   3.428   8.600  0.00  0.00    +0.000 A 
ATOM     13  C   UNL     1      45.461   2.061   8.795  0.00  0.00    +0.000 A 
ATOM     14  C   UNL     1      46.396   1.394   8.007  0.00  0.00    +0.000 A 
ATOM     15  C   UNL     1      47.110   2.105   7.051  0.00  0.00    +0.000 A 
ATOM     16  C   UNL     1      46.865   3.462   6.930  0.00  0.00    +0.000 A 
ATOM     17  N   UNL     1      45.962   4.138   7.676  0.00  0.00    +0.000 NA
ENDBRANCH  11  12
ENDBRANCH   9  11
ENDBRANCH   6   9
ENDBRANCH   1   3
BRANCH   1  20
ATOM     18  C   UNL     1      49.033   6.711  16.154  0.00  0.00    +0.000 C 
ATOM     19  O   UNL     1      50.057   6.043  16.160  0.00  0.00    +0.000 OA
ATOM     20  N   UNL     1      47.864   6.282  15.543  0.00  0.00    +0.000 N 
ATOM     21  H   UNL     1      47.036   6.861  15.550  0.00  0.00    +0.000 HD
BRANCH  18  29
ATOM     22  C   UNL     1      47.320   7.765  21.684  0.00  0.00    +0.000 C 
ATOM     23  C   UNL     1      47.839   8.226  20.358  0.00  0.00    +0.000 A 
ATOM     24  S   UNL     1      48.366   9.834  20.190  0.00  0.00    +0.000 S 
ATOM     25  C   UNL     1      48.786   9.597  18.563  0.00  0.00    +0.000 A 
ATOM     26  N   UNL     1      49.279  10.643  17.868  0.00  0.00    +0.000 NA
ATOM     27  C   UNL     1      49.633  10.366  16.610  0.00  0.00    +0.000 A 
ATOM     28  C   UNL     1      49.537   9.125  16.022  0.00  0.00    +0.000 A 
ATOM     29  C   UNL     1      49.009   8.058  16.769  0.00  0.00    +0.000 A 
ATOM     30  C   UNL     1      48.581   8.290  18.109  0.00  0.00    +0.000 A 
ATOM     31  C   UNL     1      47.947   7.504  19.172  0.00  0.00    +0.000 A 
ATOM     32  C   UNL     1      47.452   6.093  19.069  0.00  0.00    +0.000 C 
ENDBRANCH  18  29
ENDBRANCH   1  20
TORSDOF 6
ENDMDL
MODEL 4
REMARK VINA RESULT:    -8.163      1.827      2.456
REMARK INTER + INTRA:         -11.291
REMARK INTER:                 -10.382
REMARK INTRA:                  -0.908
REMARK UNBOUND:                -0.264
REMARK  Name = 
REMARK  9 active torsions:
REMARK  status: ('A' for Active; 'I' for Inactive)
REMARK    1  A    between atoms: C_1  and  C_2
REMARK    2  A    between atoms: C_8  and  C_9
REMARK    3  A    between atoms: N_11  and  C_12
REMARK    4  A    between atoms: C_12  and  C_13
REMARK    5  A    between atoms: C_12  and  C_14
REMARK    6  A    between atoms: C_17  and  N_18
REMARK    7  A    between atoms: N_18  and  C_19
REMARK    8  A    between atoms: C_19  and  C_20
REMARK    9  A    between atoms: C_29  and  C_30
REMARK                            x       y       z     vdW  Elec       q    Type
REMARK                         _______ _______ _______ _____ _____    ______ ____
ROOT
ATOM      1  C   UNL     1      47.699   6.976  13.627  0.00  0.00    +0.000 C 
ATOM      2  C   UNL     1      48.911   7.440  12.812  0.00  0.00    +0.000 C 
ENDROOT
BRANCH   1   3
ATOM      3  C   UNL     1      46.715   6.210  12.751  0.00  0.00    +0.000 A 
ATOM      4  C   UNL     1      46.547   6.558  11.404  0.00  0.00    +0.000 A 
ATOM      5  C   UNL     1      45.667   5.840  10.582  0.00  0.00    +0.000 A 
ATOM      6  C   UNL     1      44.953   4.739  11.065  0.00  0.00    +0.000 A 
ATOM      7  C   UNL     1      45.093   4.415  12.418  0.00  0.00    +0.000 A 
ATOM      8  C   UNL     1      45.971   5.130  13.247  0.00  0.00    +0.000 A 
BRANCH   6   9
ATOM      9  N   UNL     1      44.084   4.080  10.183  0.00  0.00    +0.000 N 
ATOM     10  H   UNL     1      43.120   4.193  10.500  0.00  0.00    +0.000 HD
BRANCH   9  11
ATOM     11  C   UNL     1      44.348   2.669   9.879  0.00  0.00    +0.000 C 
BRANCH  11  12
ATOM     12  C   UNL     1      45.285   2.517   8.694  0.00  0.00    +0.000 A 
ATOM     13  C   UNL     1      45.472   3.580   7.809  0.00  0.00    +0.000 A 
ATOM     14  C   UNL     1      46.414   3.455   6.790  0.00  0.00    +0.000 A 
ATOM     15  C   UNL     1      47.139   2.276   6.676  0.00  0.00    +0.000 A 
ATOM     16  C   UNL     1      46.884   1.262   7.584  0.00  0.00    +0.000 A 
ATOM     17  N   UNL     1      45.979   1.354   8.586  0.00  0.00    +0.000 NA
ENDBRANCH  11  12
ENDBRANCH   9  11
ENDBRANCH   6   9
ENDBRANCH   1   3
BRANCH   1  20
ATOM     18  C   UNL     1      48.608   6.755  15.935  0.00  0.00    +0.000 C 
ATOM     19  O   UNL     1      48.716   7.966  16.073  0.00  0.00    +0.000 OA
ATOM     20  N   UNL     1      48.107   6.175  14.779  0.00  0.00    +0.000 N 
ATOM     21  H   UNL     1      48.025   5.171  14.700  0.00  0.00    +0.000 HD
BRANCH  18  29
ATOM     22  C   UNL     1      54.057   6.177  18.079  0.00  0.00    +0.000 C 
ATOM     23  C   UNL     1      52.602   5.827  18.075  0.00  0.00    +0.000 A 
ATOM     24  S   UNL     1      51.981   4.857  19.326  0.00  0.00    +0.000 S 
ATOM     25  C   UNL     1      50.410   4.921  18.688  0.00  0.00    +0.000 A 
ATOM     26  N   UNL     1      49.431   4.246  19.324  0.00  0.00    +0.000 NA
ATOM     27  C   UNL     1      48.213   4.385  18.791  0.00  0.00    +0.000 A 
ATOM     28  C   UNL     1      47.923   5.155  17.688  0.00  0.00    +0.000 A 
ATOM     29  C   UNL     1      48.967   5.838  17.041  0.00  0.00    +0.000 A 
ATOM     30  C   UNL     1      50.298   5.708  17.538  0.00  0.00    +0.000 A 
ATOM     31  C   UNL     1      51.628   6.182  17.145  0.00  0.00    +0.000 A 
ATOM     32  C   UNL     1      51.975   6.957  15.910  0.00  0.00    +0.000 C 
ENDBRANCH  18  29
ENDBRANCH   1  20
TORSDOF 6
ENDMDL
MODEL 5
REMARK VINA RESULT:    -8.085      2.295      2.998
REMARK INTER + INTRA:         -11.185
REMARK INTER:                  -9.921
REMARK INTRA:                  -1.264
REMARK UNBOUND:                -0.264
REMARK  Name = 
REMARK  9 active torsions:
REMARK  status: ('A' for Active; 'I' for Inactive)
REMARK    1  A    between atoms: C_1  and  C_2
REMARK    2  A    between atoms: C_8  and  C_9
REMARK    3  A    between atoms: N_11  and  C_12
REMARK    4  A    between atoms: C_12  and  C_13
REMARK    5  A    between atoms: C_12  and  C_14
REMARK    6  A    between atoms: C_17  and  N_18
REMARK    7  A    between atoms: N_18  and  C_19
REMARK    8  A    between atoms: C_19  and  C_20
REMARK    9  A    between atoms: C_29  and  C_30
REMARK                            x       y       z     vdW  Elec       q    Type
REMARK                         _______ _______ _______ _____ _____    ______ ____
ROOT
ATOM      1  C   UNL     1      48.642   7.685  12.911  0.00  0.00    +0.000 C 
ATOM      2  C   UNL     1      49.305   8.178  11.621  0.00  0.00    +0.000 C 
ENDROOT
BRANCH   1   3
ATOM      3  C   UNL     1      47.513   6.709  12.604  0.00  0.00    +0.000 A 
ATOM      4  C   UNL     1      46.606   6.979  11.570  0.00  0.00    +0.000 A 
ATOM      5  C   UNL     1      45.582   6.073  11.259  0.00  0.00    +0.000 A 
ATOM      6  C   UNL     1      45.448   4.862  11.945  0.00  0.00    +0.000 A 
ATOM      7  C   UNL     1      46.329   4.610  13.000  0.00  0.00    +0.000 A 
ATOM      8  C   UNL     1      47.355   5.513  13.318  0.00  0.00    +0.000 A 
BRANCH   6   9
ATOM      9  N   UNL     1      44.390   4.015  11.583  0.00  0.00    +0.000 N 
ATOM     10  H   UNL     1      44.643   3.045  11.777  0.00  0.00    +0.000 HD
BRANCH   9  11
ATOM     11  C   UNL     1      43.852   4.127  10.222  0.00  0.00    +0.000 C 
BRANCH  11  12
ATOM     12  C   UNL     1      44.760   3.461   9.204  0.00  0.00    +0.000 A 
ATOM     13  C   UNL     1      45.401   4.230   8.230  0.00  0.00    +0.000 A 
ATOM     14  C   UNL     1      46.310   3.615   7.372  0.00  0.00    +0.000 A 
ATOM     15  C   UNL     1      46.553   2.254   7.502  0.00  0.00    +0.000 A 
ATOM     16  C   UNL     1      45.866   1.558   8.482  0.00  0.00    +0.000 A 
ATOM     17  N   UNL     1      44.980   2.126   9.332  0.00  0.00    +0.000 NA
ENDBRANCH  11  12
ENDBRANCH   9  11
ENDBRANCH   6   9
ENDBRANCH   1   3
BRANCH   1  20
ATOM     18  C   UNL     1      49.952   7.670  15.029  0.00  0.00    +0.000 C 
ATOM     19  O   UNL     1      49.435   8.705  15.426  0.00  0.00    +0.000 OA
ATOM     20  N   UNL     1      49.620   7.085  13.816  0.00  0.00    +0.000 N 
ATOM     21  H   UNL     1      50.062   6.226  13.520  0.00  0.00    +0.000 HD
BRANCH  18  29
ATOM     22  C   UNL     1      48.635   3.069  18.452  0.00  0.00    +0.000 C 
ATOM     23  C   UNL     1      49.614   4.050  17.887  0.00  0.00    +0.000 A 
ATOM     24  S   UNL     1      51.274   3.825  18.184  0.00  0.00    +0.000 S 
ATOM     25  C   UNL     1      51.690   5.201  17.282  0.00  0.00    +0.000 A 
ATOM     26  N   UNL     1      52.993   5.540  17.192  0.00  0.00    +0.000 NA
ATOM     27  C   UNL     1      53.246   6.605  16.425  0.00  0.00    +0.000 A 
ATOM     28  C   UNL     1      52.291   7.327  15.745  0.00  0.00    +0.000 A 
ATOM     29  C   UNL     1      50.942   6.954  15.867  0.00  0.00    +0.000 A 
ATOM     30  C   UNL     1      50.597   5.847  16.697  0.00  0.00    +0.000 A 
ATOM     31  C   UNL     1      49.360   5.189  17.129  0.00  0.00    +0.000 A 
ATOM     32  C   UNL     1      47.958   5.630  16.829  0.00  0.00    +0.000 C 
ENDBRANCH  18  29
ENDBRANCH   1  20
TORSDOF 6
ENDMDL
MODEL 6
REMARK VINA RESULT:    -7.893      2.542      3.753
REMARK INTER + INTRA:         -10.925
REMARK INTER:                  -9.607
REMARK INTRA:                  -1.319
REMARK UNBOUND:                -0.264
REMARK  Name = 
REMARK  9 active torsions:
REMARK  status: ('A' for Active; 'I' for Inactive)
REMARK    1  A    between atoms: C_1  and  C_2
REMARK    2  A    between atoms: C_8  and  C_9
REMARK    3  A    between atoms: N_11  and  C_12
REMARK    4  A    between atoms: C_12  and  C_13
REMARK    5  A    between atoms: C_12  and  C_14
REMARK    6  A    between atoms: C_17  and  N_18
REMARK    7  A    between atoms: N_18  and  C_19
REMARK    8  A    between atoms: C_19  and  C_20
REMARK    9  A    between atoms: C_29  and  C_30
REMARK                            x       y       z     vdW  Elec       q    Type
REMARK                         _______ _______ _______ _____ _____    ______ ____
ROOT
ATOM      1  C   UNL     1      47.867   5.016  15.131  0.00  0.00    +0.000 C 
ATOM      2  C   UNL     1      47.319   3.917  16.045  0.00  0.00    +0.000 C 
ENDROOT
BRANCH   1   3
ATOM      3  C   UNL     1      46.991   5.185  13.896  0.00  0.00    +0.000 A 
ATOM      4  C   UNL     1      47.321   6.132  12.917  0.00  0.00    +0.000 A 
ATOM      5  C   UNL     1      46.538   6.274  11.763  0.00  0.00    +0.000 A 
ATOM      6  C   UNL     1      45.424   5.460  11.534  0.00  0.00    +0.000 A 
ATOM      7  C   UNL     1      45.073   4.542  12.527  0.00  0.00    +0.000 A 
ATOM      8  C   UNL     1      45.851   4.396  13.686  0.00  0.00    +0.000 A 
BRANCH   6   9
ATOM      9  N   UNL     1      44.685   5.673  10.361  0.00  0.00    +0.000 N 
ATOM     10  H   UNL     1      43.984   6.397  10.521  0.00  0.00    +0.000 HD
BRANCH   9  11
ATOM     11  C   UNL     1      44.064   4.510   9.716  0.00  0.00    +0.000 C 
BRANCH  11  12
ATOM     12  C   UNL     1      45.073   3.707   8.916  0.00  0.00    +0.000 A 
ATOM     13  C   UNL     1      45.179   2.328   9.106  0.00  0.00    +0.000 A 
ATOM     14  C   UNL     1      46.037   1.596   8.288  0.00  0.00    +0.000 A 
ATOM     15  C   UNL     1      46.769   2.254   7.309  0.00  0.00    +0.000 A 
ATOM     16  C   UNL     1      46.620   3.626   7.194  0.00  0.00    +0.000 A 
ATOM     17  N   UNL     1      45.794   4.364   7.969  0.00  0.00    +0.000 NA
ENDBRANCH  11  12
ENDBRANCH   9  11
ENDBRANCH   6   9
ENDBRANCH   1   3
BRANCH   1  20
ATOM     18  C   UNL     1      49.219   6.674  16.406  0.00  0.00    +0.000 C 
ATOM     19  O   UNL     1      50.238   6.003  16.315  0.00  0.00    +0.000 OA
ATOM     20  N   UNL     1      48.012   6.281  15.847  0.00  0.00    +0.000 N 
ATOM     21  H   UNL     1      47.190   6.862  15.935  0.00  0.00    +0.000 HD
BRANCH  18  29
ATOM     22  C   UNL     1      49.360  11.836  13.585  0.00  0.00    +0.000 C 
ATOM     23  C   UNL     1      49.321  11.026  14.843  0.00  0.00    +0.000 A 
ATOM     24  S   UNL     1      49.089  11.818  16.330  0.00  0.00    +0.000 S 
ATOM     25  C   UNL     1      49.136  10.358  17.193  0.00  0.00    +0.000 A 
ATOM     26  N   UNL     1      49.015  10.400  18.535  0.00  0.00    +0.000 NA
ATOM     27  C   UNL     1      49.011   9.208  19.139  0.00  0.00    +0.000 A 
ATOM     28  C   UNL     1      49.108   7.998  18.488  0.00  0.00    +0.000 A 
ATOM     29  C   UNL     1      49.243   7.988  17.089  0.00  0.00    +0.000 A 
ATOM     30  C   UNL     1      49.287   9.227  16.384  0.00  0.00    +0.000 A 
ATOM     31  C   UNL     1      49.469   9.650  14.992  0.00  0.00    +0.000 A 
ATOM     32  C   UNL     1      49.777   8.767  13.820  0.00  0.00    +0.000 C 
ENDBRANCH  18  29
ENDBRANCH   1  20
TORSDOF 6
ENDMDL
MODEL 7
REMARK VINA RESULT:    -7.317      4.295      6.298
REMARK INTER + INTRA:         -10.148
REMARK INTER:                  -8.980
REMARK INTRA:                  -1.168
REMARK UNBOUND:                -0.264
REMARK  Name = 
REMARK  9 active torsions:
REMARK  status: ('A' for Active; 'I' for Inactive)
REMARK    1  A    between atoms: C_1  and  C_2
REMARK    2  A    between atoms: C_8  and  C_9
REMARK    3  A    between atoms: N_11  and  C_12
REMARK    4  A    between atoms: C_12  and  C_13
REMARK    5  A    between atoms: C_12  and  C_14
REMARK    6  A    between atoms: C_17  and  N_18
REMARK    7  A    between atoms: N_18  and  C_19
REMARK    8  A    between atoms: C_19  and  C_20
REMARK    9  A    between atoms: C_29  and  C_30
REMARK                            x       y       z     vdW  Elec       q    Type
REMARK                         _______ _______ _______ _____ _____    ______ ____
ROOT
ATOM      1  C   UNL     1      45.552   5.262  12.855  0.00  0.00    +0.000 C 
ATOM      2  C   UNL     1      44.314   4.360  12.827  0.00  0.00    +0.000 C 
ENDROOT
BRANCH   1   3
ATOM      3  C   UNL     1      45.208   6.672  12.390  0.00  0.00    +0.000 A 
ATOM      4  C   UNL     1      44.207   6.877  11.431  0.00  0.00    +0.000 A 
ATOM      5  C   UNL     1      43.862   8.172  11.019  0.00  0.00    +0.000 A 
ATOM      6  C   UNL     1      44.479   9.300  11.569  0.00  0.00    +0.000 A 
ATOM      7  C   UNL     1      45.503   9.094  12.498  0.00  0.00    +0.000 A 
ATOM      8  C   UNL     1      45.855   7.801  12.913  0.00  0.00    +0.000 A 
BRANCH   6   9
ATOM      9  N   UNL     1      44.087  10.560  11.095  0.00  0.00    +0.000 N 
ATOM     10  H   UNL     1      43.984  11.207  11.879  0.00  0.00    +0.000 HD
BRANCH   9  11
ATOM     11  C   UNL     1      42.905  10.635  10.229  0.00  0.00    +0.000 C 
BRANCH  11  12
ATOM     12  C   UNL     1      41.650  10.962  11.020  0.00  0.00    +0.000 A 
ATOM     13  C   UNL     1      40.422  10.418  10.641  0.00  0.00    +0.000 A 
ATOM     14  C   UNL     1      39.305  10.647  11.440  0.00  0.00    +0.000 A 
ATOM     15  C   UNL     1      39.437  11.413  12.591  0.00  0.00    +0.000 A 
ATOM     16  C   UNL     1      40.686  11.931  12.890  0.00  0.00    +0.000 A 
ATOM     17  N   UNL     1      41.791  11.724  12.137  0.00  0.00    +0.000 NA
ENDBRANCH  11  12
ENDBRANCH   9  11
ENDBRANCH   6   9
ENDBRANCH   1   3
BRANCH   1  20
ATOM     18  C   UNL     1      47.121   4.355  14.563  0.00  0.00    +0.000 C 
ATOM     19  O   UNL     1      47.527   3.479  13.811  0.00  0.00    +0.000 OA
ATOM     20  N   UNL     1      46.164   5.284  14.181  0.00  0.00    +0.000 N 
ATOM     21  H   UNL     1      45.855   5.998  14.825  0.00  0.00    +0.000 HD
BRANCH  18  29
ATOM     22  C   UNL     1      50.415   8.909  16.304  0.00  0.00    +0.000 C 
ATOM     23  C   UNL     1      49.728   7.606  16.569  0.00  0.00    +0.000 A 
ATOM     24  S   UNL     1      49.655   7.019  18.164  0.00  0.00    +0.000 S 
ATOM     25  C   UNL     1      48.784   5.642  17.689  0.00  0.00    +0.000 A 
ATOM     26  N   UNL     1      48.448   4.738  18.631  0.00  0.00    +0.000 NA
ATOM     27  C   UNL     1      47.721   3.708  18.189  0.00  0.00    +0.000 A 
ATOM     28  C   UNL     1      47.307   3.540  16.886  0.00  0.00    +0.000 A 
ATOM     29  C   UNL     1      47.682   4.494  15.926  0.00  0.00    +0.000 A 
ATOM     30  C   UNL     1      48.486   5.604  16.323  0.00  0.00    +0.000 A 
ATOM     31  C   UNL     1      49.120   6.746  15.658  0.00  0.00    +0.000 A 
ATOM     32  C   UNL     1      49.151   7.022  14.185  0.00  0.00    +0.000 C 
ENDBRANCH  18  29
ENDBRANCH   1  20
TORSDOF 6
ENDMDL
MODEL 8
REMARK VINA RESULT:    -7.270      1.615      2.622
REMARK INTER + INTRA:         -10.085
REMARK INTER:                 -10.225
REMARK INTRA:                   0.140
REMARK UNBOUND:                -0.264
REMARK  Name = 
REMARK  9 active torsions:
REMARK  status: ('A' for Active; 'I' for Inactive)
REMARK    1  A    between atoms: C_1  and  C_2
REMARK    2  A    between atoms: C_8  and  C_9
REMARK    3  A    between atoms: N_11  and  C_12
REMARK    4  A    between atoms: C_12  and  C_13
REMARK    5  A    between atoms: C_12  and  C_14
REMARK    6  A    between atoms: C_17  and  N_18
REMARK    7  A    between atoms: N_18  and  C_19
REMARK    8  A    between atoms: C_19  and  C_20
REMARK    9  A    between atoms: C_29  and  C_30
REMARK                            x       y       z     vdW  Elec       q    Type
REMARK                         _______ _______ _______ _____ _____    ______ ____
ROOT
ATOM      1  C   UNL     1      47.588   8.274  13.079  0.00  0.00    +0.000 C 
ATOM      2  C   UNL     1      48.906   8.195  12.303  0.00  0.00    +0.000 C 
ENDROOT
BRANCH   1   3
ATOM      3  C   UNL     1      46.560   7.306  12.506  0.00  0.00    +0.000 A 
ATOM      4  C   UNL     1      45.405   7.789  11.878  0.00  0.00    +0.000 A 
ATOM      5  C   UNL     1      44.469   6.907  11.320  0.00  0.00    +0.000 A 
ATOM      6  C   UNL     1      44.668   5.523  11.344  0.00  0.00    +0.000 A 
ATOM      7  C   UNL     1      45.801   5.039  12.004  0.00  0.00    +0.000 A 
ATOM      8  C   UNL     1      46.741   5.917  12.566  0.00  0.00    +0.000 A 
BRANCH   6   9
ATOM      9  N   UNL     1      43.679   4.707  10.775  0.00  0.00    +0.000 N 
ATOM     10  H   UNL     1      42.809   4.801  11.302  0.00  0.00    +0.000 HD
BRANCH   9  11
ATOM     11  C   UNL     1      43.988   3.287  10.573  0.00  0.00    +0.000 C 
BRANCH  11  12
ATOM     12  C   UNL     1      44.866   3.073   9.353  0.00  0.00    +0.000 A 
ATOM     13  C   UNL     1      45.142   4.138   8.494  0.00  0.00    +0.000 A 
ATOM     14  C   UNL     1      46.033   3.945   7.441  0.00  0.00    +0.000 A 
ATOM     15  C   UNL     1      46.620   2.698   7.267  0.00  0.00    +0.000 A 
ATOM     16  C   UNL     1      46.281   1.688   8.151  0.00  0.00    +0.000 A 
ATOM     17  N   UNL     1      45.424   1.845   9.185  0.00  0.00    +0.000 NA
ENDBRANCH  11  12
ENDBRANCH   9  11
ENDBRANCH   6   9
ENDBRANCH   1   3
BRANCH   1  20
ATOM     18  C   UNL     1      48.852   7.269  14.975  0.00  0.00    +0.000 C 
ATOM     19  O   UNL     1      49.686   6.770  14.233  0.00  0.00    +0.000 OA
ATOM     20  N   UNL     1      47.794   8.035  14.505  0.00  0.00    +0.000 N 
ATOM     21  H   UNL     1      47.126   8.438  15.147  0.00  0.00    +0.000 HD
BRANCH  18  29
ATOM     22  C   UNL     1      47.272   2.415  17.901  0.00  0.00    +0.000 C 
ATOM     23  C   UNL     1      47.830   3.803  17.862  0.00  0.00    +0.000 A 
ATOM     24  S   UNL     1      48.514   4.460  19.274  0.00  0.00    +0.000 S 
ATOM     25  C   UNL     1      48.903   5.914  18.490  0.00  0.00    +0.000 A 
ATOM     26  N   UNL     1      49.496   6.891  19.206  0.00  0.00    +0.000 NA
ATOM     27  C   UNL     1      49.816   7.985  18.509  0.00  0.00    +0.000 A 
ATOM     28  C   UNL     1      49.594   8.149  17.160  0.00  0.00    +0.000 A 
ATOM     29  C   UNL     1      48.966   7.117  16.444  0.00  0.00    +0.000 A 
ATOM     30  C   UNL     1      48.567   5.933  17.133  0.00  0.00    +0.000 A 
ATOM     31  C   UNL     1      47.862   4.694  16.792  0.00  0.00    +0.000 A 
ATOM     32  C   UNL     1      47.227   4.356  15.477  0.00  0.00    +0.000 C 
ENDBRANCH  18  29
ENDBRANCH   1  20
TORSDOF 6
ENDMDL
MODEL 9
REMARK VINA RESULT:    -7.242      2.083      3.659
REMARK INTER + INTRA:         -10.046
REMARK INTER:                  -8.838
REMARK INTRA:                  -1.208
REMARK UNBOUND:                -0.264
REMARK  Name = 
REMARK  9 active torsions:
REMARK  status: ('A' for Active; 'I' for Inactive)
REMARK    1  A    between atoms: C_1  and  C_2
REMARK    2  A    between atoms: C_8  and  C_9
REMARK    3  A    between atoms: N_11  and  C_12
REMARK    4  A    between atoms: C_12  and  C_13
REMARK    5  A    between atoms: C_12  and  C_14
REMARK    6  A    between atoms: C_17  and  N_18
REMARK    7  A    between atoms: N_18  and  C_19
REMARK    8  A    between atoms: C_19  and  C_20
REMARK    9  A    between atoms: C_29  and  C_30
REMARK                            x       y       z     vdW  Elec       q    Type
REMARK                         _______ _______ _______ _____ _____    ______ ____
ROOT
ATOM      1  C   UNL     1      48.066   4.732  16.828  0.00  0.00    +0.000 C 
ATOM      2  C   UNL     1      47.443   3.398  17.251  0.00  0.00    +0.000 C 
ENDROOT
BRANCH   1   3
ATOM      3  C   UNL     1      47.647   5.104  15.411  0.00  0.00    +0.000 A 
ATOM      4  C   UNL     1      46.826   4.246  14.667  0.00  0.00    +0.000 A 
ATOM      5  C   UNL     1      46.410   4.593  13.374  0.00  0.00    +0.000 A 
ATOM      6  C   UNL     1      46.772   5.814  12.795  0.00  0.00    +0.000 A 
ATOM      7  C   UNL     1      47.622   6.652  13.522  0.00  0.00    +0.000 A 
ATOM      8  C   UNL     1      48.043   6.310  14.816  0.00  0.00    +0.000 A 
BRANCH   6   9
ATOM      9  N   UNL     1      46.326   6.081  11.493  0.00  0.00    +0.000 N 
ATOM     10  H   UNL     1      46.433   7.076  11.290  0.00  0.00    +0.000 HD
BRANCH   9  11
ATOM     11  C   UNL     1      44.977   5.639  11.121  0.00  0.00    +0.000 C 
BRANCH  11  12
ATOM     12  C   UNL     1      45.016   4.564  10.049  0.00  0.00    +0.000 A 
ATOM     13  C   UNL     1      45.699   4.793   8.853  0.00  0.00    +0.000 A 
ATOM     14  C   UNL     1      45.810   3.758   7.929  0.00  0.00    +0.000 A 
ATOM     15  C   UNL     1      45.235   2.526   8.215  0.00  0.00    +0.000 A 
ATOM     16  C   UNL     1      44.560   2.384   9.415  0.00  0.00    +0.000 A 
ATOM     17  N   UNL     1      44.438   3.368  10.335  0.00  0.00    +0.000 NA
ENDBRANCH  11  12
ENDBRANCH   9  11
ENDBRANCH   6   9
ENDBRANCH   1   3
BRANCH   1  20
ATOM     18  C   UNL     1      48.655   6.293  18.678  0.00  0.00    +0.000 C 
ATOM     19  O   UNL     1      49.808   5.889  18.732  0.00  0.00    +0.000 OA
ATOM     20  N   UNL     1      47.730   5.798  17.769  0.00  0.00    +0.000 N 
ATOM     21  H   UNL     1      46.787   6.158  17.747  0.00  0.00    +0.000 HD
BRANCH  18  29
ATOM     22  C   UNL     1      48.323  11.931  17.027  0.00  0.00    +0.000 C 
ATOM     23  C   UNL     1      48.149  10.846  18.044  0.00  0.00    +0.000 A 
ATOM     24  S   UNL     1      47.367  11.205  19.511  0.00  0.00    +0.000 S 
ATOM     25  C   UNL     1      47.527   9.609  20.064  0.00  0.00    +0.000 A 
ATOM     26  N   UNL     1      47.058   9.306  21.292  0.00  0.00    +0.000 NA
ATOM     27  C   UNL     1      47.175   8.020  21.637  0.00  0.00    +0.000 A 
ATOM     28  C   UNL     1      47.711   7.037  20.835  0.00  0.00    +0.000 A 
ATOM     29  C   UNL     1      48.199   7.388  19.565  0.00  0.00    +0.000 A 
ATOM     30  C   UNL     1      48.136   8.749  19.145  0.00  0.00    +0.000 A 
ATOM     31  C   UNL     1      48.567   9.520  17.975  0.00  0.00    +0.000 A 
ATOM     32  C   UNL     1      49.360   9.011  16.809  0.00  0.00    +0.000 C 
ENDBRANCH  18  29
ENDBRANCH   1  20
TORSDOF 6
ENDMDL
