MODEL 1
REMARK VINA RESULT:    -8.792      0.000      0.000
REMARK INTER + INTRA:         -13.817
REMARK INTER:                 -12.646
REMARK INTRA:                  -1.171
REMARK UNBOUND:                -1.171
REMARK  Name = 
REMARK  8 active torsions:
REMARK  status: ('A' for Active; 'I' for Inactive)
REMARK    1  A    between atoms: C_2  and  O_3
REMARK    2  A    between atoms: C_2  and  C_4
REMARK    3  A    between atoms: C_7  and  N_8
REMARK    4  A    between atoms: N_8  and  C_9
REMARK    5  A    between atoms: C_9  and  C_10
REMARK    6  A    between atoms: C_13  and  C_14
REMARK    7  A    between atoms: C_14  and  N_15
REMARK    8  A    between atoms: C_16  and  C_18
REMARK                            x       y       z     vdW  Elec       q    Type
REMARK                         _______ _______ _______ _____ _____    ______ ____
ROOT
ATOM      1  C   UNL     1      44.747   5.246  11.911  0.00  0.00    +0.000 A 
ATOM      2  C   UNL     1      45.283   4.460  12.940  0.00  0.00    +0.000 A 
ATOM      3  C   UNL     1      46.456   4.849  13.595  0.00  0.00    +0.000 A 
ATOM      4  C   UNL     1      47.103   6.042  13.247  0.00  0.00    +0.000 A 
ATOM      5  C   UNL     1      46.581   6.814  12.201  0.00  0.00    +0.000 A 
ATOM      6  C   UNL     1      45.409   6.427  11.548  0.00  0.00    +0.000 A 
ENDROOT
BRANCH   1   7
ATOM      7  C   UNL     1      43.468   4.840  11.218  0.00  0.00    +0.000 C 
BRANCH   7   8
ATOM      8  N   UNL     1      43.661   4.854   9.774  0.00  0.00    +0.000 N 
ATOM      9  H   UNL     1      42.815   5.075   9.254  0.00  0.00    +0.000 HD
BRANCH   8  13
ATOM     10  C   UNL     1      46.262   2.063   7.972  0.00  0.00    +0.000 A 
ATOM     11  C   UNL     1      45.265   1.613   8.838  0.00  0.00    +0.000 A 
ATOM     12  C   UNL     1      44.388   2.525   9.436  0.00  0.00    +0.000 A 
ATOM     13  C   UNL     1      44.455   3.894   9.150  0.00  0.00    +0.000 A 
ATOM     14  C   UNL     1      45.464   4.327   8.274  0.00  0.00    +0.000 A 
ATOM     15  C   UNL     1      46.357   3.425   7.678  0.00  0.00    +0.000 A 
BRANCH  10  17
ATOM     16  O   UNL     1      48.056   1.344   6.587  0.00  0.00    +0.000 OA
ATOM     17  C   UNL     1      47.169   1.055   7.370  0.00  0.00    +0.000 C 
BRANCH  17  18
ATOM     18  O   UNL     1      46.881  -0.214   7.732  0.00  0.00    +0.000 OA
ATOM     19  H   UNL     1      46.772  -0.350   8.691  0.00  0.00    +0.000 HD
ENDBRANCH  17  18
ENDBRANCH  10  17
ENDBRANCH   8  13
ENDBRANCH   7   8
ENDBRANCH   1   7
BRANCH   4  20
ATOM     20  C   UNL     1      48.361   6.474  13.955  0.00  0.00    +0.000 C 
BRANCH  20  21
ATOM     21  N   UNL     1      48.111   6.716  15.351  0.00  0.00    +0.000 N 
ATOM     22  C   UNL     1      49.090   6.529  16.291  0.00  0.00    +0.000 C 
ATOM     23  O   UNL     1      50.230   6.199  15.987  0.00  0.00    +0.000 OA
ATOM     24  H   UNL     1      47.139   6.755  15.643  0.00  0.00    +0.000 HD
BRANCH  22  25
ATOM     25  C   UNL     1      48.719   6.816  17.683  0.00  0.00    +0.000 A 
ATOM     26  C   UNL     1      48.381   8.113  18.050  0.00  0.00    +0.000 A 
ATOM     27  S   UNL     1      47.899   8.258  19.679  0.00  0.00    +0.000 S 
ATOM     28  C   UNL     1      48.180   6.604  19.966  0.00  0.00    +0.000 A 
ATOM     29  N   UNL     1      47.971   6.063  21.196  0.00  0.00    +0.000 NA
ATOM     30  C   UNL     1      48.256   4.805  21.282  0.00  0.00    +0.000 A 
ATOM     31  N   UNL     1      48.732   4.041  20.247  0.00  0.00    +0.000 N 
ATOM     32  C   UNL     1      48.938   4.539  18.984  0.00  0.00    +0.000 A 
ATOM     33  O   UNL     1      49.343   3.823  18.075  0.00  0.00    +0.000 OA
ATOM     34  C   UNL     1      48.630   5.950  18.833  0.00  0.00    +0.000 A 
ATOM     35  H   UNL     1      48.940   3.063  20.380  0.00  0.00    +0.000 HD
ENDBRANCH  22  25
ENDBRANCH  20  21
ENDBRANCH   4  20
TORSDOF 8
ENDMDL
MODEL 2
REMARK VINA RESULT:    -8.242      1.523      2.431
REMARK INTER + INTRA:         -13.026
REMARK INTER:                 -11.858
REMARK INTRA:                  -1.168
REMARK UNBOUND:                -1.171
REMARK  Name = 
REMARK  8 active torsions:
REMARK  status: ('A' for Active; 'I' for Inactive)
REMARK    1  A    between atoms: C_2  and  O_3
REMARK    2  A    between atoms: C_2  and  C_4
REMARK    3  A    between atoms: C_7  and  N_8
REMARK    4  A    between atoms: N_8  and  C_9
REMARK    5  A    between atoms: C_9  and  C_10
REMARK    6  A    between atoms: C_13  and  C_14
REMARK    7  A    between atoms: C_14  and  N_15
REMARK    8  A    between atoms: C_16  and  C_18
REMARK                            x       y       z     vdW  Elec       q    Type
REMARK                         _______ _______ _______ _____ _____    ______ ____
ROOT
ATOM      1  C   UNL     1      45.003   5.225  11.710  0.00  0.00    +0.000 A 
ATOM      2  C   UNL     1      45.490   4.460  12.779  0.00  0.00    +0.000 A 
ATOM      3  C   UNL     1      46.586   4.900  13.528  0.00  0.00    +0.000 A 
ATOM      4  C   UNL     1      47.202   6.124  13.234  0.00  0.00    +0.000 A 
ATOM      5  C   UNL     1      46.731   6.876  12.150  0.00  0.00    +0.000 A 
ATOM      6  C   UNL     1      45.635   6.436  11.404  0.00  0.00    +0.000 A 
ENDROOT
BRANCH   1   7
ATOM      7  C   UNL     1      43.805   4.762  10.915  0.00  0.00    +0.000 C 
BRANCH   7   8
ATOM      8  N   UNL     1      44.045   3.424  10.391  0.00  0.00    +0.000 N 
ATOM      9  H   UNL     1      44.077   2.706  11.111  0.00  0.00    +0.000 HD
BRANCH   8  13
ATOM     10  C   UNL     1      46.662   2.622   7.181  0.00  0.00    +0.000 A 
ATOM     11  C   UNL     1      46.247   3.933   7.417  0.00  0.00    +0.000 A 
ATOM     12  C   UNL     1      45.386   4.217   8.485  0.00  0.00    +0.000 A 
ATOM     13  C   UNL     1      44.961   3.213   9.362  0.00  0.00    +0.000 A 
ATOM     14  C   UNL     1      45.391   1.901   9.108  0.00  0.00    +0.000 A 
ATOM     15  C   UNL     1      46.242   1.601   8.035  0.00  0.00    +0.000 A 
BRANCH  10  17
ATOM     16  O   UNL     1      47.176   1.969   4.954  0.00  0.00    +0.000 OA
ATOM     17  C   UNL     1      47.568   2.375   6.033  0.00  0.00    +0.000 C 
BRANCH  17  18
ATOM     18  O   UNL     1      48.871   2.592   6.316  0.00  0.00    +0.000 OA
ATOM     19  H   UNL     1      49.080   2.629   7.267  0.00  0.00    +0.000 HD
ENDBRANCH  17  18
ENDBRANCH  10  17
ENDBRANCH   8  13
ENDBRANCH   7   8
ENDBRANCH   1   7
BRANCH   4  20
ATOM     20  C   UNL     1      48.377   6.612  14.042  0.00  0.00    +0.000 C 
BRANCH  20  21
ATOM     21  N   UNL     1      48.056   6.656  15.444  0.00  0.00    +0.000 N 
ATOM     22  C   UNL     1      48.953   6.237  16.392  0.00  0.00    +0.000 C 
ATOM     23  O   UNL     1      50.080   5.856  16.097  0.00  0.00    +0.000 OA
ATOM     24  H   UNL     1      47.074   6.736  15.688  0.00  0.00    +0.000 HD
BRANCH  22  25
ATOM     25  C   UNL     1      48.517   6.337  17.791  0.00  0.00    +0.000 A 
ATOM     26  C   UNL     1      48.515   5.202  18.592  0.00  0.00    +0.000 A 
ATOM     27  S   UNL     1      48.060   5.506  20.206  0.00  0.00    +0.000 S 
ATOM     28  C   UNL     1      47.796   7.156  19.878  0.00  0.00    +0.000 A 
ATOM     29  N   UNL     1      47.370   8.002  20.853  0.00  0.00    +0.000 NA
ATOM     30  C   UNL     1      47.177   9.218  20.458  0.00  0.00    +0.000 A 
ATOM     31  N   UNL     1      47.372   9.661  19.175  0.00  0.00    +0.000 N 
ATOM     32  C   UNL     1      47.821   8.847  18.164  0.00  0.00    +0.000 A 
ATOM     33  O   UNL     1      48.007   9.282  17.033  0.00  0.00    +0.000 OA
ATOM     34  C   UNL     1      48.056   7.470  18.557  0.00  0.00    +0.000 A 
ATOM     35  H   UNL     1      47.200  10.624  18.930  0.00  0.00    +0.000 HD
ENDBRANCH  22  25
ENDBRANCH  20  21
ENDBRANCH   4  20
TORSDOF 8
ENDMDL
MODEL 3
REMARK VINA RESULT:    -7.903      2.220      2.947
REMARK INTER + INTRA:         -12.539
REMARK INTER:                 -11.615
REMARK INTRA:                  -0.925
REMARK UNBOUND:                -1.171
REMARK  Name = 
REMARK  8 active torsions:
REMARK  status: ('A' for Active; 'I' for Inactive)
REMARK    1  A    between atoms: C_2  and  O_3
REMARK    2  A    between atoms: C_2  and  C_4
REMARK    3  A    between atoms: C_7  and  N_8
REMARK    4  A    between atoms: N_8  and  C_9
REMARK    5  A    between atoms: C_9  and  C_10
REMARK    6  A    between atoms: C_13  and  C_14
REMARK    7  A    between atoms: C_14  and  N_15
REMARK    8  A    between atoms: C_16  and  C_18
REMARK                            x       y       z     vdW  Elec       q    Type
REMARK                         _______ _______ _______ _____ _____    ______ ____
ROOT
ATOM      1  C   UNL     1      44.580   5.346  11.328  0.00  0.00    +0.000 A 
ATOM      2  C   UNL     1      45.144   6.583  10.987  0.00  0.00    +0.000 A 
ATOM      3  C   UNL     1      46.090   7.187  11.820  0.00  0.00    +0.000 A 
ATOM      4  C   UNL     1      46.504   6.555  13.001  0.00  0.00    +0.000 A 
ATOM      5  C   UNL     1      45.921   5.331  13.354  0.00  0.00    +0.000 A 
ATOM      6  C   UNL     1      44.978   4.727  12.520  0.00  0.00    +0.000 A 
ENDROOT
BRANCH   1   7
ATOM      7  C   UNL     1      43.575   4.681  10.417  0.00  0.00    +0.000 C 
BRANCH   7   8
ATOM      8  N   UNL     1      43.989   3.313  10.136  0.00  0.00    +0.000 N 
ATOM      9  H   UNL     1      44.060   2.731  10.967  0.00  0.00    +0.000 HD
BRANCH   8  13
ATOM     10  C   UNL     1      46.835   2.343   7.176  0.00  0.00    +0.000 A 
ATOM     11  C   UNL     1      46.443   3.672   7.342  0.00  0.00    +0.000 A 
ATOM     12  C   UNL     1      45.507   4.011   8.326  0.00  0.00    +0.000 A 
ATOM     13  C   UNL     1      44.980   3.046   9.192  0.00  0.00    +0.000 A 
ATOM     14  C   UNL     1      45.388   1.715   9.009  0.00  0.00    +0.000 A 
ATOM     15  C   UNL     1      46.315   1.360   8.019  0.00  0.00    +0.000 A 
BRANCH  10  17
ATOM     16  O   UNL     1      47.662   1.154   5.291  0.00  0.00    +0.000 OA
ATOM     17  C   UNL     1      47.824   2.037   6.113  0.00  0.00    +0.000 C 
BRANCH  17  18
ATOM     18  O   UNL     1      48.940   2.794   6.180  0.00  0.00    +0.000 OA
ATOM     19  H   UNL     1      49.074   3.248   7.032  0.00  0.00    +0.000 HD
ENDBRANCH  17  18
ENDBRANCH  10  17
ENDBRANCH   8  13
ENDBRANCH   7   8
ENDBRANCH   1   7
BRANCH   4  20
ATOM     20  C   UNL     1      47.532   7.193  13.900  0.00  0.00    +0.000 C 
BRANCH  20  21
ATOM     21  N   UNL     1      48.074   6.235  14.826  0.00  0.00    +0.000 N 
ATOM     22  C   UNL     1      48.763   6.635  15.940  0.00  0.00    +0.000 C 
ATOM     23  O   UNL     1      48.906   7.818  16.227  0.00  0.00    +0.000 OA
ATOM     24  H   UNL     1      48.175   5.281  14.493  0.00  0.00    +0.000 HD
BRANCH  22  25
ATOM     25  C   UNL     1      49.263   5.568  16.816  0.00  0.00    +0.000 A 
ATOM     26  C   UNL     1      48.361   4.719  17.447  0.00  0.00    +0.000 A 
ATOM     27  S   UNL     1      49.106   3.488  18.360  0.00  0.00    +0.000 S 
ATOM     28  C   UNL     1      50.660   4.078  17.991  0.00  0.00    +0.000 A 
ATOM     29  N   UNL     1      51.773   3.472  18.482  0.00  0.00    +0.000 NA
ATOM     30  C   UNL     1      52.883   4.044  18.150  0.00  0.00    +0.000 A 
ATOM     31  N   UNL     1      52.979   5.170  17.372  0.00  0.00    +0.000 N 
ATOM     32  C   UNL     1      51.884   5.802  16.837  0.00  0.00    +0.000 A 
ATOM     33  O   UNL     1      52.006   6.793  16.125  0.00  0.00    +0.000 OA
ATOM     34  C   UNL     1      50.610   5.196  17.178  0.00  0.00    +0.000 A 
ATOM     35  H   UNL     1      53.878   5.571  17.151  0.00  0.00    +0.000 HD
ENDBRANCH  22  25
ENDBRANCH  20  21
ENDBRANCH   4  20
TORSDOF 8
ENDMDL
MODEL 4
REMARK VINA RESULT:    -7.753      1.823      2.567
REMARK INTER + INTRA:         -12.324
REMARK INTER:                 -11.391
REMARK INTRA:                  -0.933
REMARK UNBOUND:                -1.171
REMARK  Name = 
REMARK  8 active torsions:
REMARK  status: ('A' for Active; 'I' for Inactive)
REMARK    1  A    between atoms: C_2  and  O_3
REMARK    2  A    between atoms: C_2  and  C_4
REMARK    3  A    between atoms: C_7  and  N_8
REMARK    4  A    between atoms: N_8  and  C_9
REMARK    5  A    between atoms: C_9  and  C_10
REMARK    6  A    between atoms: C_13  and  C_14
REMARK    7  A    between atoms: C_14  and  N_15
REMARK    8  A    between atoms: C_16  and  C_18
REMARK                            x       y       z     vdW  Elec       q    Type
REMARK                         _______ _______ _______ _____ _____    ______ ____
ROOT
ATOM      1  C   UNL     1      44.777   4.764  11.946  0.00  0.00    +0.000 A 
ATOM      2  C   UNL     1      45.744   4.954  12.943  0.00  0.00    +0.000 A 
ATOM      3  C   UNL     1      46.212   6.237  13.244  0.00  0.00    +0.000 A 
ATOM      4  C   UNL     1      45.706   7.355  12.567  0.00  0.00    +0.000 A 
ATOM      5  C   UNL     1      44.758   7.162  11.554  0.00  0.00    +0.000 A 
ATOM      6  C   UNL     1      44.290   5.881  11.255  0.00  0.00    +0.000 A 
ENDROOT
BRANCH   1   7
ATOM      7  C   UNL     1      44.253   3.381  11.636  0.00  0.00    +0.000 C 
BRANCH   7   8
ATOM      8  N   UNL     1      43.873   3.299  10.232  0.00  0.00    +0.000 N 
ATOM      9  H   UNL     1      43.016   2.774  10.074  0.00  0.00    +0.000 HD
BRANCH   8  13
ATOM     10  C   UNL     1      46.635   2.512   7.142  0.00  0.00    +0.000 A 
ATOM     11  C   UNL     1      46.141   3.806   7.309  0.00  0.00    +0.000 A 
ATOM     12  C   UNL     1      45.232   4.086   8.336  0.00  0.00    +0.000 A 
ATOM     13  C   UNL     1      44.832   3.097   9.242  0.00  0.00    +0.000 A 
ATOM     14  C   UNL     1      45.341   1.801   9.059  0.00  0.00    +0.000 A 
ATOM     15  C   UNL     1      46.242   1.505   8.026  0.00  0.00    +0.000 A 
BRANCH  10  17
ATOM     16  O   UNL     1      48.348   1.315   6.009  0.00  0.00    +0.000 OA
ATOM     17  C   UNL     1      47.590   2.268   6.033  0.00  0.00    +0.000 C 
BRANCH  17  18
ATOM     18  O   UNL     1      47.575   3.231   5.087  0.00  0.00    +0.000 OA
ATOM     19  H   UNL     1      46.736   3.721   5.016  0.00  0.00    +0.000 HD
ENDBRANCH  17  18
ENDBRANCH  10  17
ENDBRANCH   8  13
ENDBRANCH   7   8
ENDBRANCH   1   7
BRANCH   4  20
ATOM     20  C   UNL     1      46.196   8.743  12.893  0.00  0.00    +0.000 C 
BRANCH  20  21
ATOM     21  N   UNL     1      46.854   8.771  14.172  0.00  0.00    +0.000 N 
ATOM     22  C   UNL     1      48.218   8.681  14.272  0.00  0.00    +0.000 C 
ATOM     23  O   UNL     1      48.940   8.623  13.283  0.00  0.00    +0.000 OA
ATOM     24  H   UNL     1      46.281   8.580  14.988  0.00  0.00    +0.000 HD
BRANCH  22  25
ATOM     25  C   UNL     1      48.777   8.729  15.629  0.00  0.00    +0.000 A 
ATOM     26  C   UNL     1      49.043   9.959  16.219  0.00  0.00    +0.000 A 
ATOM     27  S   UNL     1      49.610   9.839  17.821  0.00  0.00    +0.000 S 
ATOM     28  C   UNL     1      49.574   8.138  17.765  0.00  0.00    +0.000 A 
ATOM     29  N   UNL     1      49.961   7.395  18.836  0.00  0.00    +0.000 NA
ATOM     30  C   UNL     1      49.916   6.118  18.644  0.00  0.00    +0.000 A 
ATOM     31  N   UNL     1      49.520   5.518  17.476  0.00  0.00    +0.000 N 
ATOM     32  C   UNL     1      49.102   6.227  16.377  0.00  0.00    +0.000 A 
ATOM     33  O   UNL     1      48.732   5.659  15.356  0.00  0.00    +0.000 OA
ATOM     34  C   UNL     1      49.131   7.669  16.542  0.00  0.00    +0.000 A 
ATOM     35  H   UNL     1      49.511   4.513  17.389  0.00  0.00    +0.000 HD
ENDBRANCH  22  25
ENDBRANCH  20  21
ENDBRANCH   4  20
TORSDOF 8
ENDMDL
MODEL 5
REMARK VINA RESULT:    -7.696      3.936      5.977
REMARK INTER + INTRA:         -12.241
REMARK INTER:                 -10.856
REMARK INTRA:                  -1.385
REMARK UNBOUND:                -1.171
REMARK  Name = 
REMARK  8 active torsions:
REMARK  status: ('A' for Active; 'I' for Inactive)
REMARK    1  A    between atoms: C_2  and  O_3
REMARK    2  A    between atoms: C_2  and  C_4
REMARK    3  A    between atoms: C_7  and  N_8
REMARK    4  A    between atoms: N_8  and  C_9
REMARK    5  A    between atoms: C_9  and  C_10
REMARK    6  A    between atoms: C_13  and  C_14
REMARK    7  A    between atoms: C_14  and  N_15
REMARK    8  A    between atoms: C_16  and  C_18
REMARK                            x       y       z     vdW  Elec       q    Type
REMARK                         _______ _______ _______ _____ _____    ______ ____
ROOT
ATOM      1  C   UNL     1      44.704   5.327  11.932  0.00  0.00    +0.000 A 
ATOM      2  C   UNL     1      45.507   4.483  12.712  0.00  0.00    +0.000 A 
ATOM      3  C   UNL     1      46.653   4.976  13.343  0.00  0.00    +0.000 A 
ATOM      4  C   UNL     1      47.007   6.327  13.221  0.00  0.00    +0.000 A 
ATOM      5  C   UNL     1      46.218   7.163  12.421  0.00  0.00    +0.000 A 
ATOM      6  C   UNL     1      45.072   6.671  11.793  0.00  0.00    +0.000 A 
ENDROOT
BRANCH   1   7
ATOM      7  C   UNL     1      43.452   4.802  11.269  0.00  0.00    +0.000 C 
BRANCH   7   8
ATOM      8  N   UNL     1      43.614   4.821   9.821  0.00  0.00    +0.000 N 
ATOM      9  H   UNL     1      42.748   5.005   9.319  0.00  0.00    +0.000 HD
BRANCH   8  13
ATOM     10  C   UNL     1      46.292   2.138   7.969  0.00  0.00    +0.000 A 
ATOM     11  C   UNL     1      45.327   1.647   8.849  0.00  0.00    +0.000 A 
ATOM     12  C   UNL     1      44.425   2.523   9.464  0.00  0.00    +0.000 A 
ATOM     13  C   UNL     1      44.435   3.894   9.181  0.00  0.00    +0.000 A 
ATOM     14  C   UNL     1      45.412   4.368   8.292  0.00  0.00    +0.000 A 
ATOM     15  C   UNL     1      46.330   3.503   7.679  0.00  0.00    +0.000 A 
BRANCH  10  17
ATOM     16  O   UNL     1      48.107   1.497   6.574  0.00  0.00    +0.000 OA
ATOM     17  C   UNL     1      47.228   1.168   7.350  0.00  0.00    +0.000 C 
BRANCH  17  18
ATOM     18  O   UNL     1      46.976  -0.115   7.687  0.00  0.00    +0.000 OA
ATOM     19  H   UNL     1      47.601  -0.764   7.317  0.00  0.00    +0.000 HD
ENDBRANCH  17  18
ENDBRANCH  10  17
ENDBRANCH   8  13
ENDBRANCH   7   8
ENDBRANCH   1   7
BRANCH   4  20
ATOM     20  C   UNL     1      48.235   6.869  13.907  0.00  0.00    +0.000 C 
BRANCH  20  21
ATOM     21  N   UNL     1      49.056   7.608  12.986  0.00  0.00    +0.000 N 
ATOM     22  C   UNL     1      50.287   8.084  13.355  0.00  0.00    +0.000 C 
ATOM     23  O   UNL     1      50.765   7.861  14.462  0.00  0.00    +0.000 OA
ATOM     24  H   UNL     1      48.594   8.000  12.171  0.00  0.00    +0.000 HD
BRANCH  22  25
ATOM     25  C   UNL     1      51.038   8.817  12.328  0.00  0.00    +0.000 A 
ATOM     26  C   UNL     1      52.382   8.529  12.123  0.00  0.00    +0.000 A 
ATOM     27  S   UNL     1      53.081   9.409  10.843  0.00  0.00    +0.000 S 
ATOM     28  C   UNL     1      51.628  10.247  10.552  0.00  0.00    +0.000 A 
ATOM     29  N   UNL     1      51.545  11.184   9.570  0.00  0.00    +0.000 NA
ATOM     30  C   UNL     1      50.395  11.766   9.482  0.00  0.00    +0.000 A 
ATOM     31  N   UNL     1      49.320  11.494  10.289  0.00  0.00    +0.000 N 
ATOM     32  C   UNL     1      49.350  10.542  11.279  0.00  0.00    +0.000 A 
ATOM     33  O   UNL     1      48.363  10.308  11.967  0.00  0.00    +0.000 OA
ATOM     34  C   UNL     1      50.622   9.856  11.417  0.00  0.00    +0.000 A 
ATOM     35  H   UNL     1      48.447  11.987  10.171  0.00  0.00    +0.000 HD
ENDBRANCH  22  25
ENDBRANCH  20  21
ENDBRANCH   4  20
TORSDOF 8
ENDMDL
MODEL 6
REMARK VINA RESULT:    -7.566      2.346      2.780
REMARK INTER + INTRA:         -12.055
REMARK INTER:                 -11.025
REMARK INTRA:                  -1.030
REMARK UNBOUND:                -1.171
REMARK  Name = 
REMARK  8 active torsions:
REMARK  status: ('A' for Active; 'I' for Inactive)
REMARK    1  A    between atoms: C_2  and  O_3
REMARK    2  A    between atoms: C_2  and  C_4
REMARK    3  A    between atoms: C_7  and  N_8
REMARK    4  A    between atoms: N_8  and  C_9
REMARK    5  A    between atoms: C_9  and  C_10
REMARK    6  A    between atoms: C_13  and  C_14
REMARK    7  A    between atoms: C_14  and  N_15
REMARK    8  A    between atoms: C_16  and  C_18
REMARK                            x       y       z     vdW  Elec       q    Type
REMARK                         _______ _______ _______ _____ _____    ______ ____
ROOT
ATOM      1  C   UNL     1      44.706   4.694  11.144  0.00  0.00    +0.000 A 
ATOM      2  C   UNL     1      45.426   5.682  10.458  0.00  0.00    +0.000 A 
ATOM      3  C   UNL     1      46.228   6.591  11.155  0.00  0.00    +0.000 A 
ATOM      4  C   UNL     1      46.339   6.517  12.550  0.00  0.00    +0.000 A 
ATOM      5  C   UNL     1      45.599   5.546  13.237  0.00  0.00    +0.000 A 
ATOM      6  C   UNL     1      44.800   4.637  12.540  0.00  0.00    +0.000 A 
ENDROOT
BRANCH   1   7
ATOM      7  C   UNL     1      43.858   3.697  10.391  0.00  0.00    +0.000 C 
BRANCH   7   8
ATOM      8  N   UNL     1      44.656   2.529  10.045  0.00  0.00    +0.000 N 
ATOM      9  H   UNL     1      45.173   2.143  10.831  0.00  0.00    +0.000 HD
BRANCH   8  13
ATOM     10  C   UNL     1      46.666   2.161   6.354  0.00  0.00    +0.000 A 
ATOM     11  C   UNL     1      45.978   3.339   6.647  0.00  0.00    +0.000 A 
ATOM     12  C   UNL     1      45.314   3.480   7.871  0.00  0.00    +0.000 A 
ATOM     13  C   UNL     1      45.360   2.475   8.843  0.00  0.00    +0.000 A 
ATOM     14  C   UNL     1      46.059   1.297   8.530  0.00  0.00    +0.000 A 
ATOM     15  C   UNL     1      46.717   1.138   7.302  0.00  0.00    +0.000 A 
BRANCH  10  17
ATOM     16  O   UNL     1      46.906   1.403   4.113  0.00  0.00    +0.000 OA
ATOM     17  C   UNL     1      47.346   2.060   5.039  0.00  0.00    +0.000 C 
BRANCH  17  18
ATOM     18  O   UNL     1      48.523   2.721   4.988  0.00  0.00    +0.000 OA
ATOM     19  H   UNL     1      48.955   2.717   4.115  0.00  0.00    +0.000 HD
ENDBRANCH  17  18
ENDBRANCH  10  17
ENDBRANCH   8  13
ENDBRANCH   7   8
ENDBRANCH   1   7
BRANCH   4  20
ATOM     20  C   UNL     1      47.209   7.486  13.308  0.00  0.00    +0.000 C 
BRANCH  20  21
ATOM     21  N   UNL     1      48.151   6.789  14.144  0.00  0.00    +0.000 N 
ATOM     22  C   UNL     1      48.665   7.371  15.273  0.00  0.00    +0.000 C 
ATOM     23  O   UNL     1      48.313   8.482  15.650  0.00  0.00    +0.000 OA
ATOM     24  H   UNL     1      48.625   5.990  13.734  0.00  0.00    +0.000 HD
BRANCH  22  25
ATOM     25  C   UNL     1      49.611   6.560  16.050  0.00  0.00    +0.000 A 
ATOM     26  C   UNL     1      50.906   7.020  16.252  0.00  0.00    +0.000 A 
ATOM     27  S   UNL     1      51.848   6.001  17.240  0.00  0.00    +0.000 S 
ATOM     28  C   UNL     1      50.576   4.879  17.389  0.00  0.00    +0.000 A 
ATOM     29  N   UNL     1      50.730   3.739  18.114  0.00  0.00    +0.000 NA
ATOM     30  C   UNL     1      49.697   2.962  18.114  0.00  0.00    +0.000 A 
ATOM     31  N   UNL     1      48.524   3.224  17.453  0.00  0.00    +0.000 N 
ATOM     32  C   UNL     1      48.316   4.371  16.728  0.00  0.00    +0.000 A 
ATOM     33  O   UNL     1      47.246   4.585  16.168  0.00  0.00    +0.000 OA
ATOM     34  C   UNL     1      49.447   5.281  16.698  0.00  0.00    +0.000 A 
ATOM     35  H   UNL     1      47.754   2.574  17.490  0.00  0.00    +0.000 HD
ENDBRANCH  22  25
ENDBRANCH  20  21
ENDBRANCH   4  20
TORSDOF 8
ENDMDL
MODEL 7
REMARK VINA RESULT:    -7.453      3.160      8.937
REMARK INTER + INTRA:         -11.892
REMARK INTER:                 -10.294
REMARK INTRA:                  -1.598
REMARK UNBOUND:                -1.171
REMARK  Name = 
REMARK  8 active torsions:
REMARK  status: ('A' for Active; 'I' for Inactive)
REMARK    1  A    between atoms: C_2  and  O_3
REMARK    2  A    between atoms: C_2  and  C_4
REMARK    3  A    between atoms: C_7  and  N_8
REMARK    4  A    between atoms: N_8  and  C_9
REMARK    5  A    between atoms: C_9  and  C_10
REMARK    6  A    between atoms: C_13  and  C_14
REMARK    7  A    between atoms: C_14  and  N_15
REMARK    8  A    between atoms: C_16  and  C_18
REMARK                            x       y       z     vdW  Elec       q    Type
REMARK                         _______ _______ _______ _____ _____    ______ ____
ROOT
ATOM      1  C   UNL     1      49.383   8.436  15.790  0.00  0.00    +0.000 A 
ATOM      2  C   UNL     1      48.153   9.013  15.445  0.00  0.00    +0.000 A 
ATOM      3  C   UNL     1      47.634   8.867  14.155  0.00  0.00    +0.000 A 
ATOM      4  C   UNL     1      48.327   8.123  13.190  0.00  0.00    +0.000 A 
ATOM      5  C   UNL     1      49.569   7.567  13.528  0.00  0.00    +0.000 A 
ATOM      6  C   UNL     1      50.085   7.712  14.817  0.00  0.00    +0.000 A 
ENDROOT
BRANCH   1   7
ATOM      7  C   UNL     1      49.934   8.573  17.189  0.00  0.00    +0.000 C 
BRANCH   7   8
ATOM      8  N   UNL     1      49.314   7.588  18.065  0.00  0.00    +0.000 N 
ATOM      9  H   UNL     1      49.337   7.848  19.048  0.00  0.00    +0.000 HD
BRANCH   8  13
ATOM     10  C   UNL     1      49.791   3.487  17.195  0.00  0.00    +0.000 A 
ATOM     11  C   UNL     1      50.893   4.234  17.612  0.00  0.00    +0.000 A 
ATOM     12  C   UNL     1      50.749   5.593  17.914  0.00  0.00    +0.000 A 
ATOM     13  C   UNL     1      49.502   6.224  17.852  0.00  0.00    +0.000 A 
ATOM     14  C   UNL     1      48.404   5.455  17.431  0.00  0.00    +0.000 A 
ATOM     15  C   UNL     1      48.537   4.096  17.113  0.00  0.00    +0.000 A 
BRANCH  10  17
ATOM     16  O   UNL     1      50.846   1.370  17.429  0.00  0.00    +0.000 OA
ATOM     17  C   UNL     1      50.000   2.053  16.881  0.00  0.00    +0.000 C 
BRANCH  17  18
ATOM     18  O   UNL     1      49.201   1.595  15.893  0.00  0.00    +0.000 OA
ATOM     19  H   UNL     1      48.594   0.881  16.158  0.00  0.00    +0.000 HD
ENDBRANCH  17  18
ENDBRANCH  10  17
ENDBRANCH   8  13
ENDBRANCH   7   8
ENDBRANCH   1   7
BRANCH   4  20
ATOM     20  C   UNL     1      47.771   7.950  11.801  0.00  0.00    +0.000 C 
BRANCH  20  21
ATOM     21  N   UNL     1      47.055   6.708  11.682  0.00  0.00    +0.000 N 
ATOM     22  C   UNL     1      45.690   6.661  11.794  0.00  0.00    +0.000 C 
ATOM     23  O   UNL     1      45.015   7.672  11.950  0.00  0.00    +0.000 OA
ATOM     24  H   UNL     1      47.594   5.855  11.792  0.00  0.00    +0.000 HD
BRANCH  22  25
ATOM     25  C   UNL     1      45.069   5.339  11.647  0.00  0.00    +0.000 A 
ATOM     26  C   UNL     1      44.423   4.758  12.731  0.00  0.00    +0.000 A 
ATOM     27  S   UNL     1      43.689   3.264  12.370  0.00  0.00    +0.000 S 
ATOM     28  C   UNL     1      44.256   3.311  10.765  0.00  0.00    +0.000 A 
ATOM     29  N   UNL     1      43.983   2.301   9.897  0.00  0.00    +0.000 NA
ATOM     30  C   UNL     1      44.503   2.450   8.723  0.00  0.00    +0.000 A 
ATOM     31  N   UNL     1      45.272   3.520   8.341  0.00  0.00    +0.000 N 
ATOM     32  C   UNL     1      45.555   4.572   9.176  0.00  0.00    +0.000 A 
ATOM     33  O   UNL     1      46.226   5.525   8.795  0.00  0.00    +0.000 OA
ATOM     34  C   UNL     1      44.991   4.455  10.509  0.00  0.00    +0.000 A 
ATOM     35  H   UNL     1      45.653   3.575   7.408  0.00  0.00    +0.000 HD
ENDBRANCH  22  25
ENDBRANCH  20  21
ENDBRANCH   4  20
TORSDOF 8
ENDMDL
MODEL 8
REMARK VINA RESULT:    -7.312      3.595      4.466
REMARK INTER + INTRA:         -11.690
REMARK INTER:                 -10.450
REMARK INTRA:                  -1.240
REMARK UNBOUND:                -1.171
REMARK  Name = 
REMARK  8 active torsions:
REMARK  status: ('A' for Active; 'I' for Inactive)
REMARK    1  A    between atoms: C_2  and  O_3
REMARK    2  A    between atoms: C_2  and  C_4
REMARK    3  A    between atoms: C_7  and  N_8
REMARK    4  A    between atoms: N_8  and  C_9
REMARK    5  A    between atoms: C_9  and  C_10
REMARK    6  A    between atoms: C_13  and  C_14
REMARK    7  A    between atoms: C_14  and  N_15
REMARK    8  A    between atoms: C_16  and  C_18
REMARK                            x       y       z     vdW  Elec       q    Type
REMARK                         _______ _______ _______ _____ _____    ______ ____
ROOT
ATOM      1  C   UNL     1      44.982   4.636  12.090  0.00  0.00    +0.000 A 
ATOM      2  C   UNL     1      46.169   4.684  12.833  0.00  0.00    +0.000 A 
ATOM      3  C   UNL     1      46.746   5.910  13.176  0.00  0.00    +0.000 A 
ATOM      4  C   UNL     1      46.135   7.113  12.798  0.00  0.00    +0.000 A 
ATOM      5  C   UNL     1      44.962   7.066  12.033  0.00  0.00    +0.000 A 
ATOM      6  C   UNL     1      44.386   5.840  11.693  0.00  0.00    +0.000 A 
ENDROOT
BRANCH   1   7
ATOM      7  C   UNL     1      44.346   3.312  11.738  0.00  0.00    +0.000 C 
BRANCH   7   8
ATOM      8  N   UNL     1      43.948   3.310  10.337  0.00  0.00    +0.000 N 
ATOM      9  H   UNL     1      43.079   2.811  10.163  0.00  0.00    +0.000 HD
BRANCH   8  13
ATOM     10  C   UNL     1      46.659   2.625   7.177  0.00  0.00    +0.000 A 
ATOM     11  C   UNL     1      46.201   3.920   7.421  0.00  0.00    +0.000 A 
ATOM     12  C   UNL     1      45.309   4.166   8.472  0.00  0.00    +0.000 A 
ATOM     13  C   UNL     1      44.893   3.139   9.326  0.00  0.00    +0.000 A 
ATOM     14  C   UNL     1      45.365   1.842   9.065  0.00  0.00    +0.000 A 
ATOM     15  C   UNL     1      46.249   1.581   8.008  0.00  0.00    +0.000 A 
BRANCH  10  17
ATOM     16  O   UNL     1      47.229   2.108   4.928  0.00  0.00    +0.000 OA
ATOM     17  C   UNL     1      47.597   2.419   6.046  0.00  0.00    +0.000 C 
BRANCH  17  18
ATOM     18  O   UNL     1      48.895   2.556   6.391  0.00  0.00    +0.000 OA
ATOM     19  H   UNL     1      49.054   3.128   7.164  0.00  0.00    +0.000 HD
ENDBRANCH  17  18
ENDBRANCH  10  17
ENDBRANCH   8  13
ENDBRANCH   7   8
ENDBRANCH   1   7
BRANCH   4  20
ATOM     20  C   UNL     1      46.743   8.441  13.173  0.00  0.00    +0.000 C 
BRANCH  20  21
ATOM     21  N   UNL     1      48.179   8.384  13.116  0.00  0.00    +0.000 N 
ATOM     22  C   UNL     1      48.943   9.505  13.317  0.00  0.00    +0.000 C 
ATOM     23  O   UNL     1      48.445  10.588  13.603  0.00  0.00    +0.000 OA
ATOM     24  H   UNL     1      48.589   7.577  12.657  0.00  0.00    +0.000 HD
BRANCH  22  25
ATOM     25  C   UNL     1      50.398   9.323  13.244  0.00  0.00    +0.000 A 
ATOM     26  C   UNL     1      51.128  10.007  12.279  0.00  0.00    +0.000 A 
ATOM     27  S   UNL     1      52.809   9.748  12.382  0.00  0.00    +0.000 S 
ATOM     28  C   UNL     1      52.618   8.668  13.685  0.00  0.00    +0.000 A 
ATOM     29  N   UNL     1      53.693   8.062  14.254  0.00  0.00    +0.000 NA
ATOM     30  C   UNL     1      53.401   7.242  15.209  0.00  0.00    +0.000 A 
ATOM     31  N   UNL     1      52.128   6.974  15.645  0.00  0.00    +0.000 N 
ATOM     32  C   UNL     1      51.015   7.578  15.115  0.00  0.00    +0.000 A 
ATOM     33  O   UNL     1      49.893   7.333  15.544  0.00  0.00    +0.000 OA
ATOM     34  C   UNL     1      51.289   8.512  14.038  0.00  0.00    +0.000 A 
ATOM     35  H   UNL     1      51.966   6.319  16.395  0.00  0.00    +0.000 HD
ENDBRANCH  22  25
ENDBRANCH  20  21
ENDBRANCH   4  20
TORSDOF 8
ENDMDL
MODEL 9
REMARK VINA RESULT:    -7.277      4.860      5.819
REMARK INTER + INTRA:         -11.639
REMARK INTER:                 -10.275
REMARK INTRA:                  -1.364
REMARK UNBOUND:                -1.171
REMARK  Name = 
REMARK  8 active torsions:
REMARK  status: ('A' for Active; 'I' for Inactive)
REMARK    1  A    between atoms: C_2  and  O_3
REMARK    2  A    between atoms: C_2  and  C_4
REMARK    3  A    between atoms: C_7  and  N_8
REMARK    4  A    between atoms: N_8  and  C_9
REMARK    5  A    between atoms: C_9  and  C_10
REMARK    6  A    between atoms: C_13  and  C_14
REMARK    7  A    between atoms: C_14  and  N_15
REMARK    8  A    between atoms: C_16  and  C_18
REMARK                            x       y       z     vdW  Elec       q    Type
REMARK                         _______ _______ _______ _____ _____    ______ ____
ROOT
ATOM      1  C   UNL     1      44.822   5.082  11.880  0.00  0.00    +0.000 A 
ATOM      2  C   UNL     1      46.044   5.348  12.513  0.00  0.00    +0.000 A 
ATOM      3  C   UNL     1      46.468   6.664  12.718  0.00  0.00    +0.000 A 
ATOM      4  C   UNL     1      45.667   7.740  12.311  0.00  0.00    +0.000 A 
ATOM      5  C   UNL     1      44.458   7.474  11.657  0.00  0.00    +0.000 A 
ATOM      6  C   UNL     1      44.034   6.159  11.454  0.00  0.00    +0.000 A 
ENDROOT
BRANCH   1   7
ATOM      7  C   UNL     1      44.352   3.661  11.679  0.00  0.00    +0.000 C 
BRANCH   7   8
ATOM      8  N   UNL     1      43.863   3.489  10.318  0.00  0.00    +0.000 N 
ATOM      9  H   UNL     1      42.961   3.020  10.267  0.00  0.00    +0.000 HD
BRANCH   8  13
ATOM     10  C   UNL     1      46.650   2.547   7.294  0.00  0.00    +0.000 A 
ATOM     11  C   UNL     1      46.103   1.522   8.068  0.00  0.00    +0.000 A 
ATOM     12  C   UNL     1      45.170   1.817   9.068  0.00  0.00    +0.000 A 
ATOM     13  C   UNL     1      44.729   3.127   9.288  0.00  0.00    +0.000 A 
ATOM     14  C   UNL     1      45.290   4.144   8.498  0.00  0.00    +0.000 A 
ATOM     15  C   UNL     1      46.235   3.864   7.501  0.00  0.00    +0.000 A 
BRANCH  10  17
ATOM     16  O   UNL     1      48.841   2.171   6.453  0.00  0.00    +0.000 OA
ATOM     17  C   UNL     1      47.640   2.180   6.252  0.00  0.00    +0.000 C 
BRANCH  17  18
ATOM     18  O   UNL     1      47.085   1.913   5.051  0.00  0.00    +0.000 OA
ATOM     19  H   UNL     1      46.641   1.048   4.990  0.00  0.00    +0.000 HD
ENDBRANCH  17  18
ENDBRANCH  10  17
ENDBRANCH   8  13
ENDBRANCH   7   8
ENDBRANCH   1   7
BRANCH   4  20
ATOM     20  C   UNL     1      46.111   9.163  12.538  0.00  0.00    +0.000 C 
BRANCH  20  21
ATOM     21  N   UNL     1      47.381   9.414  11.910  0.00  0.00    +0.000 N 
ATOM     22  C   UNL     1      48.418   9.977  12.607  0.00  0.00    +0.000 C 
ATOM     23  O   UNL     1      48.332  10.245  13.799  0.00  0.00    +0.000 OA
ATOM     24  H   UNL     1      47.398   9.424  10.895  0.00  0.00    +0.000 HD
BRANCH  22  25
ATOM     25  C   UNL     1      49.669  10.177  11.863  0.00  0.00    +0.000 A 
ATOM     26  C   UNL     1      50.089  11.467  11.561  0.00  0.00    +0.000 A 
ATOM     27  S   UNL     1      51.596  11.526  10.768  0.00  0.00    +0.000 S 
ATOM     28  C   UNL     1      51.716   9.827  10.750  0.00  0.00    +0.000 A 
ATOM     29  N   UNL     1      52.788   9.208  10.190  0.00  0.00    +0.000 NA
ATOM     30  C   UNL     1      52.732   7.917  10.215  0.00  0.00    +0.000 A 
ATOM     31  N   UNL     1      51.699   7.191  10.750  0.00  0.00    +0.000 N 
ATOM     32  C   UNL     1      50.607   7.774  11.345  0.00  0.00    +0.000 A 
ATOM     33  O   UNL     1      49.711   7.095  11.835  0.00  0.00    +0.000 OA
ATOM     34  C   UNL     1      50.622   9.225  11.346  0.00  0.00    +0.000 A 
ATOM     35  H   UNL     1      51.714   6.182  10.735  0.00  0.00    +0.000 HD
ENDBRANCH  22  25
ENDBRANCH  20  21
ENDBRANCH   4  20
TORSDOF 8
ENDMDL
