MODEL 1
REMARK VINA RESULT:    -8.340      0.000      0.000
REMARK INTER + INTRA:         -13.015
REMARK INTER:                 -11.997
REMARK INTRA:                  -1.018
REMARK UNBOUND:                -1.018
REMARK  Name = 
REMARK  8 active torsions:
REMARK  status: ('A' for Active; 'I' for Inactive)
REMARK    1  A    between atoms: C_2  and  C_21
REMARK    2  A    between atoms: N_3  and  C_4
REMARK    3  A    between atoms: C_4  and  C_5
REMARK    4  A    between atoms: C_8  and  C_9
REMARK    5  A    between atoms: C_9  and  O_10
REMARK    6  A    between atoms: C_9  and  C_11
REMARK    7  A    between atoms: C_11  and  N_12
REMARK    8  A    between atoms: N_12  and  C_13
REMARK                            x       y       z     vdW  Elec       q    Type
REMARK                         _______ _______ _______ _____ _____    ______ ____
ROOT
ATOM      1  C   UNL     1      46.762   5.931  12.808  0.00  0.00    +0.000 A 
ATOM      2  C   UNL     1      46.578   4.704  13.456  0.00  0.00    +0.000 A 
ATOM      3  C   UNL     1      45.722   3.736  12.917  0.00  0.00    +0.000 A 
ATOM      4  C   UNL     1      45.050   3.965  11.706  0.00  0.00    +0.000 A 
ATOM      5  C   UNL     1      45.257   5.192  11.054  0.00  0.00    +0.000 A 
ATOM      6  C   UNL     1      46.108   6.158  11.594  0.00  0.00    +0.000 A 
ENDROOT
BRANCH   1   7
ATOM      7  C   UNL     1      47.654   6.988  13.401  0.00  0.00    +0.000 C 
BRANCH   7  10
ATOM      8  O   UNL     1      50.016   6.839  14.798  0.00  0.00    +0.000 OA
ATOM      9  C   UNL     1      48.973   6.900  15.445  0.00  0.00    +0.000 C 
ATOM     10  N   UNL     1      47.742   6.889  14.836  0.00  0.00    +0.000 N 
ATOM     11  H   UNL     1      46.915   7.136  15.370  0.00  0.00    +0.000 HD
BRANCH   9  12
ATOM     12  C   UNL     1      48.994   6.957  16.910  0.00  0.00    +0.000 A 
ATOM     13  C   UNL     1      48.987   8.189  17.550  0.00  0.00    +0.000 A 
ATOM     14  S   UNL     1      48.999   8.077  19.251  0.00  0.00    +0.000 S 
ATOM     15  C   UNL     1      48.968   6.377  19.193  0.00  0.00    +0.000 A 
ATOM     16  N   UNL     1      48.918   5.639  20.336  0.00  0.00    +0.000 NA
ATOM     17  C   UNL     1      48.862   4.363  20.140  0.00  0.00    +0.000 A 
ATOM     18  N   UNL     1      48.862   3.759  18.912  0.00  0.00    +0.000 N 
ATOM     19  C   UNL     1      48.948   4.461  17.733  0.00  0.00    +0.000 A 
ATOM     20  O   UNL     1      49.002   3.887  16.648  0.00  0.00    +0.000 OA
ATOM     21  C   UNL     1      48.984   5.901  17.892  0.00  0.00    +0.000 A 
ATOM     22  H   UNL     1      48.836   2.753  18.829  0.00  0.00    +0.000 HD
ENDBRANCH   9  12
ENDBRANCH   7  10
ENDBRANCH   1   7
BRANCH   4  23
ATOM     23  C   UNL     1      44.148   2.894  11.123  0.00  0.00    +0.000 C 
BRANCH  23  24
ATOM     24  O   UNL     1      42.780   3.206  11.410  0.00  0.00    +0.000 OA
ATOM     25  H   UNL     1      42.233   2.730  10.762  0.00  0.00    +0.000 HD
ENDBRANCH  23  24
BRANCH  23  26
ATOM     26  C   UNL     1      44.300   2.727   9.588  0.00  0.00    +0.000 C 
BRANCH  26  27
ATOM     27  N   UNL     1      45.218   1.652   9.194  0.00  0.00    +0.000 NA
ATOM     28  H   UNL     1      44.686   0.888   8.778  0.00  0.00    +0.000 HD
BRANCH  27  29
ATOM     29  C   UNL     1      46.275   2.085   8.271  0.00  0.00    +0.000 C 
ATOM     30  C   UNL     1      45.694   3.190   7.370  0.00  0.00    +0.000 C 
ATOM     31  C   UNL     1      46.694   3.654   6.312  0.00  0.00    +0.000 C 
ATOM     32  C   UNL     1      47.207   2.486   5.477  0.00  0.00    +0.000 C 
ATOM     33  C   UNL     1      47.811   1.406   6.361  0.00  0.00    +0.000 C 
ATOM     34  C   UNL     1      46.816   0.926   7.414  0.00  0.00    +0.000 C 
ENDBRANCH  27  29
ENDBRANCH  26  27
ENDBRANCH  23  26
ENDBRANCH   4  23
TORSDOF 8
ENDMDL
MODEL 2
REMARK VINA RESULT:    -8.331      1.107      1.486
REMARK INTER + INTRA:         -13.002
REMARK INTER:                 -12.129
REMARK INTRA:                  -0.874
REMARK UNBOUND:                -1.018
REMARK  Name = 
REMARK  8 active torsions:
REMARK  status: ('A' for Active; 'I' for Inactive)
REMARK    1  A    between atoms: C_2  and  C_21
REMARK    2  A    between atoms: N_3  and  C_4
REMARK    3  A    between atoms: C_4  and  C_5
REMARK    4  A    between atoms: C_8  and  C_9
REMARK    5  A    between atoms: C_9  and  O_10
REMARK    6  A    between atoms: C_9  and  C_11
REMARK    7  A    between atoms: C_11  and  N_12
REMARK    8  A    between atoms: N_12  and  C_13
REMARK                            x       y       z     vdW  Elec       q    Type
REMARK                         _______ _______ _______ _____ _____    ______ ____
ROOT
ATOM      1  C   UNL     1      47.256   6.010  13.166  0.00  0.00    +0.000 A 
ATOM      2  C   UNL     1      46.494   4.936  13.644  0.00  0.00    +0.000 A 
ATOM      3  C   UNL     1      45.389   4.471  12.920  0.00  0.00    +0.000 A 
ATOM      4  C   UNL     1      45.037   5.053  11.693  0.00  0.00    +0.000 A 
ATOM      5  C   UNL     1      45.819   6.117  11.214  0.00  0.00    +0.000 A 
ATOM      6  C   UNL     1      46.918   6.583  11.937  0.00  0.00    +0.000 A 
ENDROOT
BRANCH   1   7
ATOM      7  C   UNL     1      48.423   6.537  13.957  0.00  0.00    +0.000 C 
BRANCH   7  10
ATOM      8  O   UNL     1      50.303   6.269  15.944  0.00  0.00    +0.000 OA
ATOM      9  C   UNL     1      49.157   6.561  16.278  0.00  0.00    +0.000 C 
ATOM     10  N   UNL     1      48.133   6.631  15.365  0.00  0.00    +0.000 N 
ATOM     11  H   UNL     1      47.251   7.060  15.631  0.00  0.00    +0.000 HD
BRANCH   9  12
ATOM     12  C   UNL     1      48.822   6.822  17.681  0.00  0.00    +0.000 A 
ATOM     13  C   UNL     1      48.467   8.105  18.077  0.00  0.00    +0.000 A 
ATOM     14  S   UNL     1      48.094   8.232  19.735  0.00  0.00    +0.000 S 
ATOM     15  C   UNL     1      48.349   6.567  19.975  0.00  0.00    +0.000 A 
ATOM     16  N   UNL     1      48.149   5.998  21.195  0.00  0.00    +0.000 NA
ATOM     17  C   UNL     1      48.345   4.720  21.222  0.00  0.00    +0.000 A 
ATOM     18  N   UNL     1      48.731   3.966  20.148  0.00  0.00    +0.000 N 
ATOM     19  C   UNL     1      48.981   4.502  18.907  0.00  0.00    +0.000 A 
ATOM     20  O   UNL     1      49.380   3.806  17.977  0.00  0.00    +0.000 OA
ATOM     21  C   UNL     1      48.747   5.929  18.812  0.00  0.00    +0.000 A 
ATOM     22  H   UNL     1      48.886   2.972  20.242  0.00  0.00    +0.000 HD
ENDBRANCH   9  12
ENDBRANCH   7  10
ENDBRANCH   1   7
BRANCH   4  23
ATOM     23  C   UNL     1      43.853   4.518  10.909  0.00  0.00    +0.000 C 
BRANCH  23  24
ATOM     24  O   UNL     1      43.194   5.595  10.234  0.00  0.00    +0.000 OA
ATOM     25  H   UNL     1      42.341   5.256   9.912  0.00  0.00    +0.000 HD
ENDBRANCH  23  24
BRANCH  23  26
ATOM     26  C   UNL     1      44.243   3.446   9.857  0.00  0.00    +0.000 C 
BRANCH  26  27
ATOM     27  N   UNL     1      44.647   4.004   8.561  0.00  0.00    +0.000 NA
ATOM     28  H   UNL     1      45.253   4.809   8.714  0.00  0.00    +0.000 HD
BRANCH  27  29
ATOM     29  C   UNL     1      45.315   3.035   7.683  0.00  0.00    +0.000 C 
ATOM     30  C   UNL     1      45.819   1.871   8.557  0.00  0.00    +0.000 C 
ATOM     31  C   UNL     1      46.606   0.843   7.747  0.00  0.00    +0.000 C 
ATOM     32  C   UNL     1      47.759   1.492   6.988  0.00  0.00    +0.000 C 
ATOM     33  C   UNL     1      47.261   2.621   6.099  0.00  0.00    +0.000 C 
ATOM     34  C   UNL     1      46.483   3.661   6.900  0.00  0.00    +0.000 C 
ENDBRANCH  27  29
ENDBRANCH  26  27
ENDBRANCH  23  26
ENDBRANCH   4  23
TORSDOF 8
ENDMDL
MODEL 3
REMARK VINA RESULT:    -8.108      1.525      2.041
REMARK INTER + INTRA:         -12.681
REMARK INTER:                 -11.213
REMARK INTRA:                  -1.468
REMARK UNBOUND:                -1.018
REMARK  Name = 
REMARK  8 active torsions:
REMARK  status: ('A' for Active; 'I' for Inactive)
REMARK    1  A    between atoms: C_2  and  C_21
REMARK    2  A    between atoms: N_3  and  C_4
REMARK    3  A    between atoms: C_4  and  C_5
REMARK    4  A    between atoms: C_8  and  C_9
REMARK    5  A    between atoms: C_9  and  O_10
REMARK    6  A    between atoms: C_9  and  C_11
REMARK    7  A    between atoms: C_11  and  N_12
REMARK    8  A    between atoms: N_12  and  C_13
REMARK                            x       y       z     vdW  Elec       q    Type
REMARK                         _______ _______ _______ _____ _____    ______ ____
ROOT
ATOM      1  C   UNL     1      47.350   6.346  13.287  0.00  0.00    +0.000 A 
ATOM      2  C   UNL     1      46.234   7.110  12.926  0.00  0.00    +0.000 A 
ATOM      3  C   UNL     1      44.976   6.511  12.788  0.00  0.00    +0.000 A 
ATOM      4  C   UNL     1      44.802   5.140  13.033  0.00  0.00    +0.000 A 
ATOM      5  C   UNL     1      45.925   4.386  13.414  0.00  0.00    +0.000 A 
ATOM      6  C   UNL     1      47.180   4.983  13.547  0.00  0.00    +0.000 A 
ENDROOT
BRANCH   1   7
ATOM      7  C   UNL     1      48.711   6.978  13.402  0.00  0.00    +0.000 C 
BRANCH   7  10
ATOM      8  O   UNL     1      48.287   8.666  15.530  0.00  0.00    +0.000 OA
ATOM      9  C   UNL     1      48.954   7.653  15.728  0.00  0.00    +0.000 C 
ATOM     10  N   UNL     1      49.291   6.797  14.708  0.00  0.00    +0.000 N 
ATOM     11  H   UNL     1      49.668   5.879  14.926  0.00  0.00    +0.000 HD
BRANCH   9  12
ATOM     12  C   UNL     1      49.450   7.325  17.068  0.00  0.00    +0.000 A 
ATOM     13  C   UNL     1      50.372   8.162  17.683  0.00  0.00    +0.000 A 
ATOM     14  S   UNL     1      50.833   7.646  19.241  0.00  0.00    +0.000 S 
ATOM     15  C   UNL     1      49.781   6.310  19.168  0.00  0.00    +0.000 A 
ATOM     16  N   UNL     1      49.654   5.462  20.225  0.00  0.00    +0.000 NA
ATOM     17  C   UNL     1      48.794   4.514  20.043  0.00  0.00    +0.000 A 
ATOM     18  N   UNL     1      48.061   4.332  18.901  0.00  0.00    +0.000 N 
ATOM     19  C   UNL     1      48.184   5.141  17.796  0.00  0.00    +0.000 A 
ATOM     20  O   UNL     1      47.551   4.918  16.767  0.00  0.00    +0.000 OA
ATOM     21  C   UNL     1      49.114   6.240  17.956  0.00  0.00    +0.000 A 
ATOM     22  H   UNL     1      47.418   3.558  18.816  0.00  0.00    +0.000 HD
ENDBRANCH   9  12
ENDBRANCH   7  10
ENDBRANCH   1   7
BRANCH   4  23
ATOM     23  C   UNL     1      43.426   4.513  12.907  0.00  0.00    +0.000 C 
BRANCH  23  24
ATOM     24  O   UNL     1      42.439   5.409  13.428  0.00  0.00    +0.000 OA
ATOM     25  H   UNL     1      41.570   4.990  13.298  0.00  0.00    +0.000 HD
ENDBRANCH  23  24
BRANCH  23  26
ATOM     26  C   UNL     1      43.042   4.156  11.447  0.00  0.00    +0.000 C 
BRANCH  26  27
ATOM     27  N   UNL     1      43.574   2.866  10.989  0.00  0.00    +0.000 NA
ATOM     28  H   UNL     1      42.840   2.351  10.506  0.00  0.00    +0.000 HD
BRANCH  27  29
ATOM     29  C   UNL     1      44.754   2.987  10.124  0.00  0.00    +0.000 C 
ATOM     30  C   UNL     1      44.703   4.366   9.441  0.00  0.00    +0.000 C 
ATOM     31  C   UNL     1      45.849   4.559   8.450  0.00  0.00    +0.000 C 
ATOM     32  C   UNL     1      45.888   3.440   7.414  0.00  0.00    +0.000 C 
ATOM     33  C   UNL     1      45.971   2.078   8.085  0.00  0.00    +0.000 C 
ATOM     34  C   UNL     1      44.823   1.869   9.068  0.00  0.00    +0.000 C 
ENDBRANCH  27  29
ENDBRANCH  26  27
ENDBRANCH  23  26
ENDBRANCH   4  23
TORSDOF 8
ENDMDL
MODEL 4
REMARK VINA RESULT:    -7.959      1.712      2.619
REMARK INTER + INTRA:         -12.467
REMARK INTER:                 -11.422
REMARK INTRA:                  -1.044
REMARK UNBOUND:                -1.018
REMARK  Name = 
REMARK  8 active torsions:
REMARK  status: ('A' for Active; 'I' for Inactive)
REMARK    1  A    between atoms: C_2  and  C_21
REMARK    2  A    between atoms: N_3  and  C_4
REMARK    3  A    between atoms: C_4  and  C_5
REMARK    4  A    between atoms: C_8  and  C_9
REMARK    5  A    between atoms: C_9  and  O_10
REMARK    6  A    between atoms: C_9  and  C_11
REMARK    7  A    between atoms: C_11  and  N_12
REMARK    8  A    between atoms: N_12  and  C_13
REMARK                            x       y       z     vdW  Elec       q    Type
REMARK                         _______ _______ _______ _____ _____    ______ ____
ROOT
ATOM      1  C   UNL     1      47.028   6.264  13.301  0.00  0.00    +0.000 A 
ATOM      2  C   UNL     1      46.507   6.993  12.225  0.00  0.00    +0.000 A 
ATOM      3  C   UNL     1      45.442   6.486  11.471  0.00  0.00    +0.000 A 
ATOM      4  C   UNL     1      44.860   5.250  11.791  0.00  0.00    +0.000 A 
ATOM      5  C   UNL     1      45.377   4.535  12.885  0.00  0.00    +0.000 A 
ATOM      6  C   UNL     1      46.441   5.040  13.634  0.00  0.00    +0.000 A 
ENDROOT
BRANCH   1   7
ATOM      7  C   UNL     1      48.195   6.789  14.093  0.00  0.00    +0.000 C 
BRANCH   7  10
ATOM      8  O   UNL     1      50.337   6.346  15.758  0.00  0.00    +0.000 OA
ATOM      9  C   UNL     1      49.216   6.366  16.262  0.00  0.00    +0.000 C 
ATOM     10  N   UNL     1      48.081   6.493  15.499  0.00  0.00    +0.000 N 
ATOM     11  H   UNL     1      47.195   6.702  15.947  0.00  0.00    +0.000 HD
BRANCH   9  12
ATOM     12  C   UNL     1      49.036   6.223  17.710  0.00  0.00    +0.000 A 
ATOM     13  C   UNL     1      49.461   5.063  18.345  0.00  0.00    +0.000 A 
ATOM     14  S   UNL     1      49.193   5.066  20.028  0.00  0.00    +0.000 S 
ATOM     15  C   UNL     1      48.540   6.637  19.975  0.00  0.00    +0.000 A 
ATOM     16  N   UNL     1      48.144   7.267  21.115  0.00  0.00    +0.000 NA
ATOM     17  C   UNL     1      47.703   8.468  20.929  0.00  0.00    +0.000 A 
ATOM     18  N   UNL     1      47.612   9.089  19.713  0.00  0.00    +0.000 N 
ATOM     19  C   UNL     1      47.965   8.478  18.533  0.00  0.00    +0.000 A 
ATOM     20  O   UNL     1      47.821   9.043  17.451  0.00  0.00    +0.000 OA
ATOM     21  C   UNL     1      48.496   7.138  18.685  0.00  0.00    +0.000 A 
ATOM     22  H   UNL     1      47.239  10.024  19.635  0.00  0.00    +0.000 HD
ENDBRANCH   9  12
ENDBRANCH   7  10
ENDBRANCH   1   7
BRANCH   4  23
ATOM     23  C   UNL     1      43.688   4.728  10.980  0.00  0.00    +0.000 C 
BRANCH  23  24
ATOM     24  O   UNL     1      43.051   5.815  10.299  0.00  0.00    +0.000 OA
ATOM     25  H   UNL     1      43.747   6.446  10.047  0.00  0.00    +0.000 HD
ENDBRANCH  23  24
BRANCH  23  26
ATOM     26  C   UNL     1      44.091   3.660   9.930  0.00  0.00    +0.000 C 
BRANCH  26  27
ATOM     27  N   UNL     1      44.626   4.223   8.684  0.00  0.00    +0.000 NA
ATOM     28  H   UNL     1      45.298   4.957   8.906  0.00  0.00    +0.000 HD
BRANCH  27  29
ATOM     29  C   UNL     1      45.246   3.226   7.803  0.00  0.00    +0.000 C 
ATOM     30  C   UNL     1      45.707   2.044   8.676  0.00  0.00    +0.000 C 
ATOM     31  C   UNL     1      46.445   0.982   7.862  0.00  0.00    +0.000 C 
ATOM     32  C   UNL     1      47.619   1.581   7.094  0.00  0.00    +0.000 C 
ATOM     33  C   UNL     1      47.162   2.729   6.206  0.00  0.00    +0.000 C 
ATOM     34  C   UNL     1      46.434   3.802   7.011  0.00  0.00    +0.000 C 
ENDBRANCH  27  29
ENDBRANCH  26  27
ENDBRANCH  23  26
ENDBRANCH   4  23
TORSDOF 8
ENDMDL
MODEL 5
REMARK VINA RESULT:    -7.357      3.729      9.354
REMARK INTER + INTRA:         -11.601
REMARK INTER:                  -9.639
REMARK INTRA:                  -1.962
REMARK UNBOUND:                -1.018
REMARK  Name = 
REMARK  8 active torsions:
REMARK  status: ('A' for Active; 'I' for Inactive)
REMARK    1  A    between atoms: C_2  and  C_21
REMARK    2  A    between atoms: N_3  and  C_4
REMARK    3  A    between atoms: C_4  and  C_5
REMARK    4  A    between atoms: C_8  and  C_9
REMARK    5  A    between atoms: C_9  and  O_10
REMARK    6  A    between atoms: C_9  and  C_11
REMARK    7  A    between atoms: C_11  and  N_12
REMARK    8  A    between atoms: N_12  and  C_13
REMARK                            x       y       z     vdW  Elec       q    Type
REMARK                         _______ _______ _______ _____ _____    ______ ____
ROOT
ATOM      1  C   UNL     1      48.520   6.079  16.235  0.00  0.00    +0.000 A 
ATOM      2  C   UNL     1      48.980   6.980  17.204  0.00  0.00    +0.000 A 
ATOM      3  C   UNL     1      48.998   6.620  18.557  0.00  0.00    +0.000 A 
ATOM      4  C   UNL     1      48.579   5.345  18.968  0.00  0.00    +0.000 A 
ATOM      5  C   UNL     1      48.138   4.443  17.986  0.00  0.00    +0.000 A 
ATOM      6  C   UNL     1      48.117   4.803  16.638  0.00  0.00    +0.000 A 
ENDROOT
BRANCH   1   7
ATOM      7  C   UNL     1      48.466   6.473  14.784  0.00  0.00    +0.000 C 
BRANCH   7  10
ATOM      8  O   UNL     1      47.851   6.925  12.143  0.00  0.00    +0.000 OA
ATOM      9  C   UNL     1      46.973   6.452  12.862  0.00  0.00    +0.000 C 
ATOM     10  N   UNL     1      47.159   6.273  14.211  0.00  0.00    +0.000 N 
ATOM     11  H   UNL     1      46.502   5.706  14.738  0.00  0.00    +0.000 HD
BRANCH   9  12
ATOM     12  C   UNL     1      45.665   6.082  12.312  0.00  0.00    +0.000 A 
ATOM     13  C   UNL     1      44.885   7.045  11.686  0.00  0.00    +0.000 A 
ATOM     14  S   UNL     1      43.404   6.446  11.090  0.00  0.00    +0.000 S 
ATOM     15  C   UNL     1      43.773   4.867  11.607  0.00  0.00    +0.000 A 
ATOM     16  N   UNL     1      42.922   3.834  11.360  0.00  0.00    +0.000 NA
ATOM     17  C   UNL     1      43.348   2.687  11.776  0.00  0.00    +0.000 A 
ATOM     18  N   UNL     1      44.536   2.482  12.424  0.00  0.00    +0.000 N 
ATOM     19  C   UNL     1      45.409   3.499  12.727  0.00  0.00    +0.000 A 
ATOM     20  O   UNL     1      46.442   3.290  13.359  0.00  0.00    +0.000 OA
ATOM     21  C   UNL     1      44.995   4.806  12.256  0.00  0.00    +0.000 A 
ATOM     22  H   UNL     1      44.801   1.560  12.741  0.00  0.00    +0.000 HD
ENDBRANCH   9  12
ENDBRANCH   7  10
ENDBRANCH   1   7
BRANCH   4  23
ATOM     23  C   UNL     1      48.632   4.963  20.436  0.00  0.00    +0.000 C 
BRANCH  23  24
ATOM     24  O   UNL     1      48.425   3.554  20.575  0.00  0.00    +0.000 OA
ATOM     25  H   UNL     1      48.077   3.399  21.470  0.00  0.00    +0.000 HD
ENDBRANCH  23  24
BRANCH  23  26
ATOM     26  C   UNL     1      49.974   5.332  21.122  0.00  0.00    +0.000 C 
BRANCH  26  27
ATOM     27  N   UNL     1      51.034   4.334  20.930  0.00  0.00    +0.000 NA
ATOM     28  H   UNL     1      50.618   3.452  20.633  0.00  0.00    +0.000 HD
BRANCH  27  29
ATOM     29  C   UNL     1      52.068   4.747  19.974  0.00  0.00    +0.000 C 
ATOM     30  C   UNL     1      52.128   6.285  19.975  0.00  0.00    +0.000 C 
ATOM     31  C   UNL     1      53.122   6.822  18.946  0.00  0.00    +0.000 C 
ATOM     32  C   UNL     1      52.822   6.291  17.548  0.00  0.00    +0.000 C 
ATOM     33  C   UNL     1      52.793   4.770  17.536  0.00  0.00    +0.000 C 
ATOM     34  C   UNL     1      51.795   4.223  18.552  0.00  0.00    +0.000 C 
ENDBRANCH  27  29
ENDBRANCH  26  27
ENDBRANCH  23  26
ENDBRANCH   4  23
TORSDOF 8
ENDMDL
MODEL 6
REMARK VINA RESULT:    -7.320      3.448      8.692
REMARK INTER + INTRA:         -11.547
REMARK INTER:                  -9.861
REMARK INTRA:                  -1.687
REMARK UNBOUND:                -1.018
REMARK  Name = 
REMARK  8 active torsions:
REMARK  status: ('A' for Active; 'I' for Inactive)
REMARK    1  A    between atoms: C_2  and  C_21
REMARK    2  A    between atoms: N_3  and  C_4
REMARK    3  A    between atoms: C_4  and  C_5
REMARK    4  A    between atoms: C_8  and  C_9
REMARK    5  A    between atoms: C_9  and  O_10
REMARK    6  A    between atoms: C_9  and  C_11
REMARK    7  A    between atoms: C_11  and  N_12
REMARK    8  A    between atoms: N_12  and  C_13
REMARK                            x       y       z     vdW  Elec       q    Type
REMARK                         _______ _______ _______ _____ _____    ______ ____
ROOT
ATOM      1  C   UNL     1      48.471   7.989  13.631  0.00  0.00    +0.000 A 
ATOM      2  C   UNL     1      48.951   6.874  14.328  0.00  0.00    +0.000 A 
ATOM      3  C   UNL     1      49.064   6.903  15.724  0.00  0.00    +0.000 A 
ATOM      4  C   UNL     1      48.678   8.038  16.453  0.00  0.00    +0.000 A 
ATOM      5  C   UNL     1      48.180   9.144  15.745  0.00  0.00    +0.000 A 
ATOM      6  C   UNL     1      48.071   9.117  14.354  0.00  0.00    +0.000 A 
ENDROOT
BRANCH   1   7
ATOM      7  C   UNL     1      48.381   7.977  12.129  0.00  0.00    +0.000 C 
BRANCH   7  10
ATOM      8  O   UNL     1      45.647   7.832  11.880  0.00  0.00    +0.000 OA
ATOM      9  C   UNL     1      46.309   6.880  11.472  0.00  0.00    +0.000 C 
ATOM     10  N   UNL     1      47.672   6.824  11.632  0.00  0.00    +0.000 N 
ATOM     11  H   UNL     1      48.211   6.133  11.119  0.00  0.00    +0.000 HD
BRANCH   9  12
ATOM     12  C   UNL     1      45.665   5.737  10.816  0.00  0.00    +0.000 A 
ATOM     13  C   UNL     1      45.869   5.519   9.459  0.00  0.00    +0.000 A 
ATOM     14  S   UNL     1      45.063   4.143   8.859  0.00  0.00    +0.000 S 
ATOM     15  C   UNL     1      44.449   3.764  10.400  0.00  0.00    +0.000 A 
ATOM     16  N   UNL     1      43.694   2.648  10.597  0.00  0.00    +0.000 NA
ATOM     17  C   UNL     1      43.328   2.466  11.823  0.00  0.00    +0.000 A 
ATOM     18  N   UNL     1      43.636   3.300  12.863  0.00  0.00    +0.000 N 
ATOM     19  C   UNL     1      44.363   4.457  12.705  0.00  0.00    +0.000 A 
ATOM     20  O   UNL     1      44.576   5.213  13.650  0.00  0.00    +0.000 OA
ATOM     21  C   UNL     1      44.826   4.695  11.353  0.00  0.00    +0.000 A 
ATOM     22  H   UNL     1      43.300   3.110  13.796  0.00  0.00    +0.000 HD
ENDBRANCH   9  12
ENDBRANCH   7  10
ENDBRANCH   1   7
BRANCH   4  23
ATOM     23  C   UNL     1      48.781   8.041  17.967  0.00  0.00    +0.000 C 
BRANCH  23  24
ATOM     24  O   UNL     1      47.469   8.018  18.540  0.00  0.00    +0.000 OA
ATOM     25  H   UNL     1      47.213   8.941  18.714  0.00  0.00    +0.000 HD
ENDBRANCH  23  24
BRANCH  23  26
ATOM     26  C   UNL     1      49.584   6.840  18.533  0.00  0.00    +0.000 C 
BRANCH  26  27
ATOM     27  N   UNL     1      48.808   5.977  19.433  0.00  0.00    +0.000 NA
ATOM     28  H   UNL     1      47.906   6.411  19.624  0.00  0.00    +0.000 HD
BRANCH  27  29
ATOM     29  C   UNL     1      48.609   4.615  18.920  0.00  0.00    +0.000 C 
ATOM     30  C   UNL     1      49.883   4.205  18.158  0.00  0.00    +0.000 C 
ATOM     31  C   UNL     1      49.747   2.828  17.510  0.00  0.00    +0.000 C 
ATOM     32  C   UNL     1      48.524   2.756  16.602  0.00  0.00    +0.000 C 
ATOM     33  C   UNL     1      47.258   3.130  17.359  0.00  0.00    +0.000 C 
ATOM     34  C   UNL     1      47.379   4.510  18.000  0.00  0.00    +0.000 C 
ENDBRANCH  27  29
ENDBRANCH  26  27
ENDBRANCH  23  26
ENDBRANCH   4  23
TORSDOF 8
ENDMDL
MODEL 7
REMARK VINA RESULT:    -7.311      1.709      2.240
REMARK INTER + INTRA:         -11.535
REMARK INTER:                 -10.562
REMARK INTRA:                  -0.973
REMARK UNBOUND:                -1.018
REMARK  Name = 
REMARK  8 active torsions:
REMARK  status: ('A' for Active; 'I' for Inactive)
REMARK    1  A    between atoms: C_2  and  C_21
REMARK    2  A    between atoms: N_3  and  C_4
REMARK    3  A    between atoms: C_4  and  C_5
REMARK    4  A    between atoms: C_8  and  C_9
REMARK    5  A    between atoms: C_9  and  O_10
REMARK    6  A    between atoms: C_9  and  C_11
REMARK    7  A    between atoms: C_11  and  N_12
REMARK    8  A    between atoms: N_12  and  C_13
REMARK                            x       y       z     vdW  Elec       q    Type
REMARK                         _______ _______ _______ _____ _____    ______ ____
ROOT
ATOM      1  C   UNL     1      45.470   7.065  12.220  0.00  0.00    +0.000 A 
ATOM      2  C   UNL     1      44.232   6.873  11.596  0.00  0.00    +0.000 A 
ATOM      3  C   UNL     1      43.831   5.594  11.191  0.00  0.00    +0.000 A 
ATOM      4  C   UNL     1      44.648   4.477  11.423  0.00  0.00    +0.000 A 
ATOM      5  C   UNL     1      45.880   4.679  12.067  0.00  0.00    +0.000 A 
ATOM      6  C   UNL     1      46.281   5.954  12.467  0.00  0.00    +0.000 A 
ENDROOT
BRANCH   1   7
ATOM      7  C   UNL     1      45.922   8.442  12.625  0.00  0.00    +0.000 C 
BRANCH   7  10
ATOM      8  O   UNL     1      48.603   9.020  12.808  0.00  0.00    +0.000 OA
ATOM      9  C   UNL     1      47.990   8.814  13.853  0.00  0.00    +0.000 C 
ATOM     10  N   UNL     1      46.671   8.434  13.856  0.00  0.00    +0.000 N 
ATOM     11  H   UNL     1      46.141   8.462  14.723  0.00  0.00    +0.000 HD
BRANCH   9  12
ATOM     12  C   UNL     1      48.655   8.938  15.155  0.00  0.00    +0.000 A 
ATOM     13  C   UNL     1      48.969  10.197  15.649  0.00  0.00    +0.000 A 
ATOM     14  S   UNL     1      49.723  10.164  17.177  0.00  0.00    +0.000 S 
ATOM     15  C   UNL     1      49.614   8.467  17.254  0.00  0.00    +0.000 A 
ATOM     16  N   UNL     1      50.047   7.788  18.351  0.00  0.00    +0.000 NA
ATOM     17  C   UNL     1      49.869   6.509  18.286  0.00  0.00    +0.000 A 
ATOM     18  N   UNL     1      49.310   5.850  17.225  0.00  0.00    +0.000 N 
ATOM     19  C   UNL     1      48.893   6.490  16.082  0.00  0.00    +0.000 A 
ATOM     20  O   UNL     1      48.446   5.863  15.124  0.00  0.00    +0.000 OA
ATOM     21  C   UNL     1      49.042   7.931  16.112  0.00  0.00    +0.000 A 
ATOM     22  H   UNL     1      49.218   4.844  17.230  0.00  0.00    +0.000 HD
ENDBRANCH   9  12
ENDBRANCH   7  10
ENDBRANCH   1   7
BRANCH   4  23
ATOM     23  C   UNL     1      44.185   3.095  11.003  0.00  0.00    +0.000 C 
BRANCH  23  24
ATOM     24  O   UNL     1      42.815   2.912  11.375  0.00  0.00    +0.000 OA
ATOM     25  H   UNL     1      42.806   2.424  12.217  0.00  0.00    +0.000 HD
ENDBRANCH  23  24
BRANCH  23  26
ATOM     26  C   UNL     1      44.317   2.836   9.479  0.00  0.00    +0.000 C 
BRANCH  26  27
ATOM     27  N   UNL     1      45.291   3.707   8.809  0.00  0.00    +0.000 NA
ATOM     28  H   UNL     1      45.698   4.346   9.492  0.00  0.00    +0.000 HD
BRANCH  27  29
ATOM     29  C   UNL     1      46.356   2.977   8.111  0.00  0.00    +0.000 C 
ATOM     30  C   UNL     1      46.386   3.464   6.650  0.00  0.00    +0.000 C 
ATOM     31  C   UNL     1      47.410   2.702   5.812  0.00  0.00    +0.000 C 
ATOM     32  C   UNL     1      47.180   1.196   5.878  0.00  0.00    +0.000 C 
ATOM     33  C   UNL     1      47.182   0.706   7.318  0.00  0.00    +0.000 C 
ATOM     34  C   UNL     1      46.153   1.452   8.163  0.00  0.00    +0.000 C 
ENDBRANCH  27  29
ENDBRANCH  26  27
ENDBRANCH  23  26
ENDBRANCH   4  23
TORSDOF 8
ENDMDL
MODEL 8
REMARK VINA RESULT:    -7.060      3.027      9.071
REMARK INTER + INTRA:         -11.174
REMARK INTER:                  -9.391
REMARK INTRA:                  -1.782
REMARK UNBOUND:                -1.018
REMARK  Name = 
REMARK  8 active torsions:
REMARK  status: ('A' for Active; 'I' for Inactive)
REMARK    1  A    between atoms: C_2  and  C_21
REMARK    2  A    between atoms: N_3  and  C_4
REMARK    3  A    between atoms: C_4  and  C_5
REMARK    4  A    between atoms: C_8  and  C_9
REMARK    5  A    between atoms: C_9  and  O_10
REMARK    6  A    between atoms: C_9  and  C_11
REMARK    7  A    between atoms: C_11  and  N_12
REMARK    8  A    between atoms: N_12  and  C_13
REMARK                            x       y       z     vdW  Elec       q    Type
REMARK                         _______ _______ _______ _____ _____    ______ ____
ROOT
ATOM      1  C   UNL     1      48.126   7.874  13.697  0.00  0.00    +0.000 A 
ATOM      2  C   UNL     1      47.811   8.936  14.553  0.00  0.00    +0.000 A 
ATOM      3  C   UNL     1      48.340   8.986  15.849  0.00  0.00    +0.000 A 
ATOM      4  C   UNL     1      49.214   7.988  16.307  0.00  0.00    +0.000 A 
ATOM      5  C   UNL     1      49.538   6.938  15.432  0.00  0.00    +0.000 A 
ATOM      6  C   UNL     1      49.008   6.886  14.143  0.00  0.00    +0.000 A 
ENDROOT
BRANCH   1   7
ATOM      7  C   UNL     1      47.532   7.798  12.316  0.00  0.00    +0.000 C 
BRANCH   7  10
ATOM      8  O   UNL     1      44.870   7.249  12.728  0.00  0.00    +0.000 OA
ATOM      9  C   UNL     1      45.563   6.370  12.218  0.00  0.00    +0.000 C 
ATOM     10  N   UNL     1      46.918   6.521  12.053  0.00  0.00    +0.000 N 
ATOM     11  H   UNL     1      47.427   5.874  11.459  0.00  0.00    +0.000 HD
BRANCH   9  12
ATOM     12  C   UNL     1      44.973   5.100  11.785  0.00  0.00    +0.000 A 
ATOM     13  C   UNL     1      44.214   4.354  12.678  0.00  0.00    +0.000 A 
ATOM     14  S   UNL     1      43.590   2.915  12.011  0.00  0.00    +0.000 S 
ATOM     15  C   UNL     1      44.275   3.259  10.491  0.00  0.00    +0.000 A 
ATOM     16  N   UNL     1      44.076   2.428   9.432  0.00  0.00    +0.000 NA
ATOM     17  C   UNL     1      44.623   2.832   8.332  0.00  0.00    +0.000 A 
ATOM     18  N   UNL     1      45.357   3.980   8.200  0.00  0.00    +0.000 N 
ATOM     19  C   UNL     1      45.615   4.829   9.250  0.00  0.00    +0.000 A 
ATOM     20  O   UNL     1      46.323   5.823   9.111  0.00  0.00    +0.000 OA
ATOM     21  C   UNL     1      44.998   4.439  10.503  0.00  0.00    +0.000 A 
ATOM     22  H   UNL     1      45.775   4.229   7.315  0.00  0.00    +0.000 HD
ENDBRANCH   9  12
ENDBRANCH   7  10
ENDBRANCH   1   7
BRANCH   4  23
ATOM     23  C   UNL     1      49.800   8.073  17.704  0.00  0.00    +0.000 C 
BRANCH  23  24
ATOM     24  O   UNL     1      48.842   8.657  18.594  0.00  0.00    +0.000 OA
ATOM     25  H   UNL     1      48.173   9.104  18.046  0.00  0.00    +0.000 HD
ENDBRANCH  23  24
BRANCH  23  26
ATOM     26  C   UNL     1      50.227   6.697  18.279  0.00  0.00    +0.000 C 
BRANCH  26  27
ATOM     27  N   UNL     1      49.223   6.079  19.153  0.00  0.00    +0.000 NA
ATOM     28  H   UNL     1      48.409   6.689  19.216  0.00  0.00    +0.000 HD
BRANCH  27  29
ATOM     29  C   UNL     1      48.810   4.737  18.723  0.00  0.00    +0.000 C 
ATOM     30  C   UNL     1      49.977   4.111  17.937  0.00  0.00    +0.000 C 
ATOM     31  C   UNL     1      49.618   2.739  17.371  0.00  0.00    +0.000 C 
ATOM     32  C   UNL     1      48.357   2.798  16.516  0.00  0.00    +0.000 C 
ATOM     33  C   UNL     1      47.193   3.387  17.299  0.00  0.00    +0.000 C 
ATOM     34  C   UNL     1      47.537   4.764  17.859  0.00  0.00    +0.000 C 
ENDBRANCH  27  29
ENDBRANCH  26  27
ENDBRANCH  23  26
ENDBRANCH   4  23
TORSDOF 8
ENDMDL
MODEL 9
REMARK VINA RESULT:    -7.002      3.855      8.751
REMARK INTER + INTRA:         -11.090
REMARK INTER:                  -8.913
REMARK INTRA:                  -2.177
REMARK UNBOUND:                -1.018
REMARK  Name = 
REMARK  8 active torsions:
REMARK  status: ('A' for Active; 'I' for Inactive)
REMARK    1  A    between atoms: C_2  and  C_21
REMARK    2  A    between atoms: N_3  and  C_4
REMARK    3  A    between atoms: C_4  and  C_5
REMARK    4  A    between atoms: C_8  and  C_9
REMARK    5  A    between atoms: C_9  and  O_10
REMARK    6  A    between atoms: C_9  and  C_11
REMARK    7  A    between atoms: C_11  and  N_12
REMARK    8  A    between atoms: N_12  and  C_13
REMARK                            x       y       z     vdW  Elec       q    Type
REMARK                         _______ _______ _______ _____ _____    ______ ____
ROOT
ATOM      1  C   UNL     1      49.077   7.834  15.828  0.00  0.00    +0.000 A 
ATOM      2  C   UNL     1      48.515   8.311  17.018  0.00  0.00    +0.000 A 
ATOM      3  C   UNL     1      48.953   7.826  18.257  0.00  0.00    +0.000 A 
ATOM      4  C   UNL     1      49.979   6.872  18.332  0.00  0.00    +0.000 A 
ATOM      5  C   UNL     1      50.549   6.414  17.133  0.00  0.00    +0.000 A 
ATOM      6  C   UNL     1      50.110   6.894  15.899  0.00  0.00    +0.000 A 
ENDROOT
BRANCH   1   7
ATOM      7  C   UNL     1      48.585   8.325  14.494  0.00  0.00    +0.000 C 
BRANCH   7  10
ATOM      8  O   UNL     1      48.849   6.206  12.764  0.00  0.00    +0.000 OA
ATOM      9  C   UNL     1      47.725   6.454  13.196  0.00  0.00    +0.000 C 
ATOM     10  N   UNL     1      47.481   7.544  13.995  0.00  0.00    +0.000 N 
ATOM     11  H   UNL     1      46.599   7.615  14.492  0.00  0.00    +0.000 HD
BRANCH   9  12
ATOM     12  C   UNL     1      46.579   5.607  12.850  0.00  0.00    +0.000 A 
ATOM     13  C   UNL     1      46.609   4.252  13.152  0.00  0.00    +0.000 A 
ATOM     14  S   UNL     1      45.194   3.418  12.698  0.00  0.00    +0.000 S 
ATOM     15  C   UNL     1      44.471   4.847  12.123  0.00  0.00    +0.000 A 
ATOM     16  N   UNL     1      43.203   4.839  11.629  0.00  0.00    +0.000 NA
ATOM     17  C   UNL     1      42.770   6.000  11.263  0.00  0.00    +0.000 A 
ATOM     18  N   UNL     1      43.491   7.162  11.335  0.00  0.00    +0.000 N 
ATOM     19  C   UNL     1      44.787   7.212  11.791  0.00  0.00    +0.000 A 
ATOM     20  O   UNL     1      45.425   8.261  11.791  0.00  0.00    +0.000 OA
ATOM     21  C   UNL     1      45.313   5.940  12.244  0.00  0.00    +0.000 A 
ATOM     22  H   UNL     1      43.099   8.035  11.013  0.00  0.00    +0.000 HD
ENDBRANCH   9  12
ENDBRANCH   7  10
ENDBRANCH   1   7
BRANCH   4  23
ATOM     23  C   UNL     1      50.461   6.379  19.684  0.00  0.00    +0.000 C 
BRANCH  23  24
ATOM     24  O   UNL     1      49.642   6.932  20.719  0.00  0.00    +0.000 OA
ATOM     25  H   UNL     1      48.797   7.191  20.312  0.00  0.00    +0.000 HD
ENDBRANCH  23  24
BRANCH  23  26
ATOM     26  C   UNL     1      50.445   4.833  19.819  0.00  0.00    +0.000 C 
BRANCH  26  27
ATOM     27  N   UNL     1      49.124   4.278  20.139  0.00  0.00    +0.000 NA
ATOM     28  H   UNL     1      48.516   5.024  20.476  0.00  0.00    +0.000 HD
BRANCH  27  29
ATOM     29  C   UNL     1      48.486   3.583  19.013  0.00  0.00    +0.000 C 
ATOM     30  C   UNL     1      49.599   3.075  18.078  0.00  0.00    +0.000 C 
ATOM     31  C   UNL     1      49.036   2.406  16.825  0.00  0.00    +0.000 C 
ATOM     32  C   UNL     1      48.079   3.331  16.079  0.00  0.00    +0.000 C 
ATOM     33  C   UNL     1      46.960   3.810  16.991  0.00  0.00    +0.000 C 
ATOM     34  C   UNL     1      47.512   4.491  18.241  0.00  0.00    +0.000 C 
ENDBRANCH  27  29
ENDBRANCH  26  27
ENDBRANCH  23  26
ENDBRANCH   4  23
TORSDOF 8
ENDMDL
