MODEL 1
REMARK VINA RESULT:    -8.260      0.000      0.000
REMARK INTER + INTRA:         -11.704
REMARK INTER:                 -10.675
REMARK INTRA:                  -1.029
REMARK UNBOUND:                -1.029
REMARK  Name = 
REMARK  6 active torsions:
REMARK  status: ('A' for Active; 'I' for Inactive)
REMARK    1  A    between atoms: C_1  and  C_2
REMARK    2  A    between atoms: C_4  and  O_5
REMARK    3  A    between atoms: O_5  and  C_6
REMARK    4  A    between atoms: C_6  and  C_7
REMARK    5  A    between atoms: C_7  and  C_10
REMARK    6  A    between atoms: C_14  and  C_15
REMARK                            x       y       z     vdW  Elec       q    Type
REMARK                         _______ _______ _______ _____ _____    ______ ____
ROOT
ATOM      1  C   UNL     1      43.748   4.531  12.353  0.00  0.00    +0.000 C 
ATOM      2  F   UNL     1      42.799   5.310  12.947  0.00  0.00    +0.000 F 
ATOM      3  F   UNL     1      43.542   3.269  12.835  0.00  0.00    +0.000 F 
ENDROOT
BRANCH   1   4
ATOM      4  C   UNL     1      45.143   5.015  12.662  0.00  0.00    +0.000 A 
ATOM      5  C   UNL     1      46.046   4.206  13.331  0.00  0.00    +0.000 A 
ATOM      6  N   UNL     1      47.297   4.593  13.653  0.00  0.00    +0.000 NA
ATOM      7  C   UNL     1      47.676   5.840  13.272  0.00  0.00    +0.000 A 
ATOM      8  C   UNL     1      46.865   6.755  12.600  0.00  0.00    +0.000 A 
ATOM      9  C   UNL     1      45.568   6.306  12.306  0.00  0.00    +0.000 A 
BRANCH   8  10
ATOM     10  C   UNL     1      47.332   8.106  12.221  0.00  0.00    +0.000 A 
ATOM     11  C   UNL     1      48.647   8.350  11.791  0.00  0.00    +0.000 A 
ATOM     12  C   UNL     1      49.054   9.633  11.426  0.00  0.00    +0.000 A 
ATOM     13  C   UNL     1      48.136  10.662  11.509  0.00  0.00    +0.000 A 
ATOM     14  N   UNL     1      46.865  10.489  11.918  0.00  0.00    +0.000 NA
ATOM     15  C   UNL     1      46.498   9.227  12.258  0.00  0.00    +0.000 A 
ENDBRANCH   8  10
ENDBRANCH   1   4
BRANCH   1  16
ATOM     16  C   UNL     1      43.510   4.528  10.835  0.00  0.00    +0.000 C 
BRANCH  16  17
ATOM     17  O   UNL     1      43.613   3.202  10.297  0.00  0.00    +0.000 OA
BRANCH  17  21
ATOM     18  C   UNL     1      46.711   0.284   7.728  0.00  0.00    +0.000 C 
ATOM     19  C   UNL     1      46.170   1.644   8.071  0.00  0.00    +0.000 A 
ATOM     20  C   UNL     1      45.140   1.750   9.025  0.00  0.00    +0.000 A 
ATOM     21  C   UNL     1      44.607   2.992   9.378  0.00  0.00    +0.000 A 
ATOM     22  C   UNL     1      45.105   4.144   8.768  0.00  0.00    +0.000 A 
ATOM     23  C   UNL     1      46.127   4.059   7.820  0.00  0.00    +0.000 A 
ATOM     24  C   UNL     1      46.657   2.814   7.473  0.00  0.00    +0.000 A 
ATOM     25 CL   UNL     1      47.922   2.767   6.298  0.00  0.00    +0.000 Cl
ENDBRANCH  17  21
ENDBRANCH  16  17
ENDBRANCH   1  16
TORSDOF 5
ENDMDL
MODEL 2
REMARK VINA RESULT:    -8.198      2.073      3.731
REMARK INTER + INTRA:         -11.623
REMARK INTER:                 -10.629
REMARK INTRA:                  -0.994
REMARK UNBOUND:                -1.029
REMARK  Name = 
REMARK  6 active torsions:
REMARK  status: ('A' for Active; 'I' for Inactive)
REMARK    1  A    between atoms: C_1  and  C_2
REMARK    2  A    between atoms: C_4  and  O_5
REMARK    3  A    between atoms: O_5  and  C_6
REMARK    4  A    between atoms: C_6  and  C_7
REMARK    5  A    between atoms: C_7  and  C_10
REMARK    6  A    between atoms: C_14  and  C_15
REMARK                            x       y       z     vdW  Elec       q    Type
REMARK                         _______ _______ _______ _____ _____    ______ ____
ROOT
ATOM      1  C   UNL     1      43.929   4.120  12.351  0.00  0.00    +0.000 C 
ATOM      2  F   UNL     1      42.871   4.566  13.087  0.00  0.00    +0.000 F 
ATOM      3  F   UNL     1      43.975   2.770  12.555  0.00  0.00    +0.000 F 
ENDROOT
BRANCH   1   4
ATOM      4  C   UNL     1      45.220   4.782  12.768  0.00  0.00    +0.000 A 
ATOM      5  C   UNL     1      45.842   5.709  11.948  0.00  0.00    +0.000 A 
ATOM      6  N   UNL     1      47.007   6.314  12.258  0.00  0.00    +0.000 NA
ATOM      7  C   UNL     1      47.569   5.998  13.452  0.00  0.00    +0.000 A 
ATOM      8  C   UNL     1      47.051   5.079  14.366  0.00  0.00    +0.000 A 
ATOM      9  C   UNL     1      45.848   4.465  13.984  0.00  0.00    +0.000 A 
BRANCH   8  10
ATOM     10  C   UNL     1      47.718   4.767  15.649  0.00  0.00    +0.000 A 
ATOM     11  C   UNL     1      47.612   3.508  16.260  0.00  0.00    +0.000 A 
ATOM     12  C   UNL     1      48.264   3.239  17.464  0.00  0.00    +0.000 A 
ATOM     13  C   UNL     1      49.009   4.246  18.046  0.00  0.00    +0.000 A 
ATOM     14  N   UNL     1      49.143   5.474  17.509  0.00  0.00    +0.000 NA
ATOM     15  C   UNL     1      48.502   5.700  16.333  0.00  0.00    +0.000 A 
ENDBRANCH   8  10
ENDBRANCH   1   4
BRANCH   1  16
ATOM     16  C   UNL     1      43.650   4.389  10.864  0.00  0.00    +0.000 C 
BRANCH  16  17
ATOM     17  O   UNL     1      43.595   3.165  10.118  0.00  0.00    +0.000 OA
BRANCH  17  21
ATOM     18  C   UNL     1      46.753   0.182   7.701  0.00  0.00    +0.000 C 
ATOM     19  C   UNL     1      46.223   1.553   8.019  0.00  0.00    +0.000 A 
ATOM     20  C   UNL     1      45.151   1.681   8.921  0.00  0.00    +0.000 A 
ATOM     21  C   UNL     1      44.627   2.934   9.249  0.00  0.00    +0.000 A 
ATOM     22  C   UNL     1      45.178   4.076   8.664  0.00  0.00    +0.000 A 
ATOM     23  C   UNL     1      46.243   3.968   7.766  0.00  0.00    +0.000 A 
ATOM     24  C   UNL     1      46.764   2.712   7.444  0.00  0.00    +0.000 A 
ATOM     25 CL   UNL     1      48.082   2.638   6.333  0.00  0.00    +0.000 Cl
ENDBRANCH  17  21
ENDBRANCH  16  17
ENDBRANCH   1  16
TORSDOF 5
ENDMDL
MODEL 3
REMARK VINA RESULT:    -7.843      3.912      7.188
REMARK INTER + INTRA:         -11.164
REMARK INTER:                 -10.427
REMARK INTRA:                  -0.737
REMARK UNBOUND:                -1.029
REMARK  Name = 
REMARK  6 active torsions:
REMARK  status: ('A' for Active; 'I' for Inactive)
REMARK    1  A    between atoms: C_1  and  C_2
REMARK    2  A    between atoms: C_4  and  O_5
REMARK    3  A    between atoms: O_5  and  C_6
REMARK    4  A    between atoms: C_6  and  C_7
REMARK    5  A    between atoms: C_7  and  C_10
REMARK    6  A    between atoms: C_14  and  C_15
REMARK                            x       y       z     vdW  Elec       q    Type
REMARK                         _______ _______ _______ _____ _____    ______ ____
ROOT
ATOM      1  C   UNL     1      44.844   6.302  11.402  0.00  0.00    +0.000 C 
ATOM      2  F   UNL     1      43.685   7.021  11.401  0.00  0.00    +0.000 F 
ATOM      3  F   UNL     1      45.727   7.028  10.654  0.00  0.00    +0.000 F 
ENDROOT
BRANCH   1   4
ATOM      4  C   UNL     1      44.647   4.920  10.831  0.00  0.00    +0.000 A 
ATOM      5  C   UNL     1      43.738   4.040  11.394  0.00  0.00    +0.000 A 
ATOM      6  N   UNL     1      43.536   2.786  10.940  0.00  0.00    +0.000 NA
ATOM      7  C   UNL     1      44.258   2.396   9.859  0.00  0.00    +0.000 A 
ATOM      8  C   UNL     1      45.208   3.180   9.203  0.00  0.00    +0.000 A 
ATOM      9  C   UNL     1      45.391   4.468   9.729  0.00  0.00    +0.000 A 
BRANCH   8  10
ATOM     10  C   UNL     1      45.973   2.693   8.034  0.00  0.00    +0.000 A 
ATOM     11  C   UNL     1      46.211   3.498   6.908  0.00  0.00    +0.000 A 
ATOM     12  C   UNL     1      46.949   3.016   5.827  0.00  0.00    +0.000 A 
ATOM     13  C   UNL     1      47.431   1.723   5.885  0.00  0.00    +0.000 A 
ATOM     14  N   UNL     1      47.229   0.904   6.935  0.00  0.00    +0.000 NA
ATOM     15  C   UNL     1      46.515   1.406   7.974  0.00  0.00    +0.000 A 
ENDBRANCH   8  10
ENDBRANCH   1   4
BRANCH   1  16
ATOM     16  C   UNL     1      45.372   6.212  12.843  0.00  0.00    +0.000 C 
BRANCH  16  17
ATOM     17  O   UNL     1      46.675   5.613  12.881  0.00  0.00    +0.000 OA
BRANCH  17  21
ATOM     18  C   UNL     1      47.345   3.289  17.224  0.00  0.00    +0.000 C 
ATOM     19  C   UNL     1      47.646   4.418  16.279  0.00  0.00    +0.000 A 
ATOM     20  C   UNL     1      47.006   4.454  15.026  0.00  0.00    +0.000 A 
ATOM     21  C   UNL     1      47.252   5.485  14.116  0.00  0.00    +0.000 A 
ATOM     22  C   UNL     1      48.154   6.493  14.459  0.00  0.00    +0.000 A 
ATOM     23  C   UNL     1      48.800   6.475  15.698  0.00  0.00    +0.000 A 
ATOM     24  C   UNL     1      48.547   5.442  16.604  0.00  0.00    +0.000 A 
ATOM     25 CL   UNL     1      49.369   5.473  18.121  0.00  0.00    +0.000 Cl
ENDBRANCH  17  21
ENDBRANCH  16  17
ENDBRANCH   1  16
TORSDOF 5
ENDMDL
MODEL 4
REMARK VINA RESULT:    -7.709      1.714      2.281
REMARK INTER + INTRA:         -10.992
REMARK INTER:                 -10.085
REMARK INTRA:                  -0.907
REMARK UNBOUND:                -1.029
REMARK  Name = 
REMARK  6 active torsions:
REMARK  status: ('A' for Active; 'I' for Inactive)
REMARK    1  A    between atoms: C_1  and  C_2
REMARK    2  A    between atoms: C_4  and  O_5
REMARK    3  A    between atoms: O_5  and  C_6
REMARK    4  A    between atoms: C_6  and  C_7
REMARK    5  A    between atoms: C_7  and  C_10
REMARK    6  A    between atoms: C_14  and  C_15
REMARK                            x       y       z     vdW  Elec       q    Type
REMARK                         _______ _______ _______ _____ _____    ______ ____
ROOT
ATOM      1  C   UNL     1      44.416   4.188  12.205  0.00  0.00    +0.000 C 
ATOM      2  F   UNL     1      43.560   4.097  13.263  0.00  0.00    +0.000 F 
ATOM      3  F   UNL     1      45.238   3.102  12.303  0.00  0.00    +0.000 F 
ENDROOT
BRANCH   1   4
ATOM      4  C   UNL     1      45.202   5.475  12.230  0.00  0.00    +0.000 A 
ATOM      5  C   UNL     1      46.535   5.488  12.605  0.00  0.00    +0.000 A 
ATOM      6  N   UNL     1      47.281   6.610  12.668  0.00  0.00    +0.000 NA
ATOM      7  C   UNL     1      46.677   7.774  12.320  0.00  0.00    +0.000 A 
ATOM      8  C   UNL     1      45.343   7.901  11.930  0.00  0.00    +0.000 A 
ATOM      9  C   UNL     1      44.609   6.705  11.901  0.00  0.00    +0.000 A 
BRANCH   8  10
ATOM     10  C   UNL     1      44.737   9.202  11.573  0.00  0.00    +0.000 A 
ATOM     11  C   UNL     1      43.604   9.299  10.749  0.00  0.00    +0.000 A 
ATOM     12  C   UNL     1      43.046  10.540  10.441  0.00  0.00    +0.000 A 
ATOM     13  C   UNL     1      43.642  11.674  10.958  0.00  0.00    +0.000 A 
ATOM     14  N   UNL     1      44.732  11.643  11.748  0.00  0.00    +0.000 NA
ATOM     15  C   UNL     1      45.244  10.420  12.036  0.00  0.00    +0.000 A 
ENDBRANCH   8  10
ENDBRANCH   1   4
BRANCH   1  16
ATOM     16  C   UNL     1      43.608   4.083  10.901  0.00  0.00    +0.000 C 
BRANCH  16  17
ATOM     17  O   UNL     1      43.764   2.791  10.299  0.00  0.00    +0.000 OA
BRANCH  17  21
ATOM     18  C   UNL     1      46.959   0.230   7.480  0.00  0.00    +0.000 C 
ATOM     19  C   UNL     1      46.296   1.521   7.871  0.00  0.00    +0.000 A 
ATOM     20  C   UNL     1      45.340   1.515   8.903  0.00  0.00    +0.000 A 
ATOM     21  C   UNL     1      44.699   2.690   9.303  0.00  0.00    +0.000 A 
ATOM     22  C   UNL     1      45.014   3.889   8.661  0.00  0.00    +0.000 A 
ATOM     23  C   UNL     1      45.961   3.915   7.634  0.00  0.00    +0.000 A 
ATOM     24  C   UNL     1      46.600   2.736   7.241  0.00  0.00    +0.000 A 
ATOM     25 CL   UNL     1      47.764   2.827   5.970  0.00  0.00    +0.000 Cl
ENDBRANCH  17  21
ENDBRANCH  16  17
ENDBRANCH   1  16
TORSDOF 5
ENDMDL
MODEL 5
REMARK VINA RESULT:    -7.621      3.369      6.817
REMARK INTER + INTRA:         -10.878
REMARK INTER:                  -9.946
REMARK INTRA:                  -0.932
REMARK UNBOUND:                -1.029
REMARK  Name = 
REMARK  6 active torsions:
REMARK  status: ('A' for Active; 'I' for Inactive)
REMARK    1  A    between atoms: C_1  and  C_2
REMARK    2  A    between atoms: C_4  and  O_5
REMARK    3  A    between atoms: O_5  and  C_6
REMARK    4  A    between atoms: C_6  and  C_7
REMARK    5  A    between atoms: C_7  and  C_10
REMARK    6  A    between atoms: C_14  and  C_15
REMARK                            x       y       z     vdW  Elec       q    Type
REMARK                         _______ _______ _______ _____ _____    ______ ____
ROOT
ATOM      1  C   UNL     1      44.343   6.284  11.398  0.00  0.00    +0.000 C 
ATOM      2  F   UNL     1      43.118   6.883  11.386  0.00  0.00    +0.000 F 
ATOM      3  F   UNL     1      45.141   7.065  10.611  0.00  0.00    +0.000 F 
ENDROOT
BRANCH   1   4
ATOM      4  C   UNL     1      44.280   4.868  10.881  0.00  0.00    +0.000 A 
ATOM      5  C   UNL     1      43.455   3.929  11.477  0.00  0.00    +0.000 A 
ATOM      6  N   UNL     1      43.374   2.645  11.073  0.00  0.00    +0.000 NA
ATOM      7  C   UNL     1      44.136   2.282  10.010  0.00  0.00    +0.000 A 
ATOM      8  C   UNL     1      45.012   3.126   9.325  0.00  0.00    +0.000 A 
ATOM      9  C   UNL     1      45.070   4.446   9.800  0.00  0.00    +0.000 A 
BRANCH   8  10
ATOM     10  C   UNL     1      45.827   2.668   8.179  0.00  0.00    +0.000 A 
ATOM     11  C   UNL     1      46.156   3.516   7.109  0.00  0.00    +0.000 A 
ATOM     12  C   UNL     1      46.939   3.060   6.048  0.00  0.00    +0.000 A 
ATOM     13  C   UNL     1      47.372   1.748   6.069  0.00  0.00    +0.000 A 
ATOM     14  N   UNL     1      47.083   0.888   7.064  0.00  0.00    +0.000 NA
ATOM     15  C   UNL     1      46.327   1.366   8.085  0.00  0.00    +0.000 A 
ENDBRANCH   8  10
ENDBRANCH   1   4
BRANCH   1  16
ATOM     16  C   UNL     1      44.892   6.303  12.834  0.00  0.00    +0.000 C 
BRANCH  16  17
ATOM     17  O   UNL     1      46.070   5.491  12.948  0.00  0.00    +0.000 OA
BRANCH  17  21
ATOM     18  C   UNL     1      49.937   8.240  11.464  0.00  0.00    +0.000 C 
ATOM     19  C   UNL     1      49.187   7.499  12.535  0.00  0.00    +0.000 A 
ATOM     20  C   UNL     1      47.978   6.857  12.207  0.00  0.00    +0.000 A 
ATOM     21  C   UNL     1      47.248   6.154  13.168  0.00  0.00    +0.000 A 
ATOM     22  C   UNL     1      47.728   6.094  14.478  0.00  0.00    +0.000 A 
ATOM     23  C   UNL     1      48.926   6.725  14.823  0.00  0.00    +0.000 A 
ATOM     24  C   UNL     1      49.652   7.424  13.856  0.00  0.00    +0.000 A 
ATOM     25 CL   UNL     1      51.128   8.180  14.337  0.00  0.00    +0.000 Cl
ENDBRANCH  17  21
ENDBRANCH  16  17
ENDBRANCH   1  16
TORSDOF 5
ENDMDL
MODEL 6
REMARK VINA RESULT:    -7.154      3.178      6.901
REMARK INTER + INTRA:         -10.274
REMARK INTER:                  -9.534
REMARK INTRA:                  -0.740
REMARK UNBOUND:                -1.029
REMARK  Name = 
REMARK  6 active torsions:
REMARK  status: ('A' for Active; 'I' for Inactive)
REMARK    1  A    between atoms: C_1  and  C_2
REMARK    2  A    between atoms: C_4  and  O_5
REMARK    3  A    between atoms: O_5  and  C_6
REMARK    4  A    between atoms: C_6  and  C_7
REMARK    5  A    between atoms: C_7  and  C_10
REMARK    6  A    between atoms: C_14  and  C_15
REMARK                            x       y       z     vdW  Elec       q    Type
REMARK                         _______ _______ _______ _____ _____    ______ ____
ROOT
ATOM      1  C   UNL     1      43.650   3.731  11.582  0.00  0.00    +0.000 C 
ATOM      2  F   UNL     1      43.488   2.378  11.630  0.00  0.00    +0.000 F 
ATOM      3  F   UNL     1      42.395   4.244  11.416  0.00  0.00    +0.000 F 
ENDROOT
BRANCH   1   4
ATOM      4  C   UNL     1      44.565   4.146  10.456  0.00  0.00    +0.000 A 
ATOM      5  C   UNL     1      44.971   5.463  10.318  0.00  0.00    +0.000 A 
ATOM      6  N   UNL     1      45.770   5.895   9.320  0.00  0.00    +0.000 NA
ATOM      7  C   UNL     1      46.202   4.968   8.428  0.00  0.00    +0.000 A 
ATOM      8  C   UNL     1      45.863   3.614   8.450  0.00  0.00    +0.000 A 
ATOM      9  C   UNL     1      45.016   3.223   9.498  0.00  0.00    +0.000 A 
BRANCH   8  10
ATOM     10  C   UNL     1      46.358   2.653   7.441  0.00  0.00    +0.000 A 
ATOM     11  C   UNL     1      46.595   3.023   6.107  0.00  0.00    +0.000 A 
ATOM     12  C   UNL     1      47.076   2.097   5.182  0.00  0.00    +0.000 A 
ATOM     13  C   UNL     1      47.302   0.802   5.605  0.00  0.00    +0.000 A 
ATOM     14  N   UNL     1      47.088   0.388   6.869  0.00  0.00    +0.000 NA
ATOM     15  C   UNL     1      46.628   1.316   7.747  0.00  0.00    +0.000 A 
ENDBRANCH   8  10
ENDBRANCH   1   4
BRANCH   1  16
ATOM     16  C   UNL     1      44.210   4.214  12.929  0.00  0.00    +0.000 C 
BRANCH  16  17
ATOM     17  O   UNL     1      45.521   3.682  13.165  0.00  0.00    +0.000 OA
BRANCH  17  21
ATOM     18  C   UNL     1      48.534   7.618  12.780  0.00  0.00    +0.000 C 
ATOM     19  C   UNL     1      47.967   6.471  13.568  0.00  0.00    +0.000 A 
ATOM     20  C   UNL     1      47.006   5.636  12.968  0.00  0.00    +0.000 A 
ATOM     21  C   UNL     1      46.453   4.555  13.661  0.00  0.00    +0.000 A 
ATOM     22  C   UNL     1      46.861   4.308  14.972  0.00  0.00    +0.000 A 
ATOM     23  C   UNL     1      47.814   5.126  15.585  0.00  0.00    +0.000 A 
ATOM     24  C   UNL     1      48.365   6.203  14.886  0.00  0.00    +0.000 A 
ATOM     25 CL   UNL     1      49.541   7.177  15.689  0.00  0.00    +0.000 Cl
ENDBRANCH  17  21
ENDBRANCH  16  17
ENDBRANCH   1  16
TORSDOF 5
ENDMDL
MODEL 7
REMARK VINA RESULT:    -7.150      3.213      6.849
REMARK INTER + INTRA:         -10.269
REMARK INTER:                  -9.505
REMARK INTRA:                  -0.764
REMARK UNBOUND:                -1.029
REMARK  Name = 
REMARK  6 active torsions:
REMARK  status: ('A' for Active; 'I' for Inactive)
REMARK    1  A    between atoms: C_1  and  C_2
REMARK    2  A    between atoms: C_4  and  O_5
REMARK    3  A    between atoms: O_5  and  C_6
REMARK    4  A    between atoms: C_6  and  C_7
REMARK    5  A    between atoms: C_7  and  C_10
REMARK    6  A    between atoms: C_14  and  C_15
REMARK                            x       y       z     vdW  Elec       q    Type
REMARK                         _______ _______ _______ _____ _____    ______ ____
ROOT
ATOM      1  C   UNL     1      44.847   6.049  12.086  0.00  0.00    +0.000 C 
ATOM      2  F   UNL     1      44.127   6.153  13.239  0.00  0.00    +0.000 F 
ATOM      3  F   UNL     1      44.491   7.132  11.332  0.00  0.00    +0.000 F 
ENDROOT
BRANCH   1   4
ATOM      4  C   UNL     1      44.562   4.758  11.361  0.00  0.00    +0.000 A 
ATOM      5  C   UNL     1      43.573   3.896  11.804  0.00  0.00    +0.000 A 
ATOM      6  N   UNL     1      43.289   2.719  11.210  0.00  0.00    +0.000 NA
ATOM      7  C   UNL     1      44.010   2.392  10.108  0.00  0.00    +0.000 A 
ATOM      8  C   UNL     1      45.036   3.166   9.562  0.00  0.00    +0.000 A 
ATOM      9  C   UNL     1      45.301   4.371  10.231  0.00  0.00    +0.000 A 
BRANCH   8  10
ATOM     10  C   UNL     1      45.796   2.750   8.363  0.00  0.00    +0.000 A 
ATOM     11  C   UNL     1      46.116   3.648   7.332  0.00  0.00    +0.000 A 
ATOM     12  C   UNL     1      46.847   3.230   6.220  0.00  0.00    +0.000 A 
ATOM     13  C   UNL     1      47.238   1.907   6.151  0.00  0.00    +0.000 A 
ATOM     14  N   UNL     1      46.956   1.000   7.106  0.00  0.00    +0.000 NA
ATOM     15  C   UNL     1      46.251   1.441   8.178  0.00  0.00    +0.000 A 
ENDBRANCH   8  10
ENDBRANCH   1   4
BRANCH   1  16
ATOM     16  C   UNL     1      46.344   6.150  12.424  0.00  0.00    +0.000 C 
BRANCH  16  17
ATOM     17  O   UNL     1      46.655   7.417  13.021  0.00  0.00    +0.000 OA
BRANCH  17  21
ATOM     18  C   UNL     1      51.194   7.887  11.049  0.00  0.00    +0.000 C 
ATOM     19  C   UNL     1      49.868   8.472  11.447  0.00  0.00    +0.000 A 
ATOM     20  C   UNL     1      48.902   7.640  12.041  0.00  0.00    +0.000 A 
ATOM     21  C   UNL     1      47.656   8.140  12.430  0.00  0.00    +0.000 A 
ATOM     22  C   UNL     1      47.370   9.490  12.219  0.00  0.00    +0.000 A 
ATOM     23  C   UNL     1      48.316  10.332  11.630  0.00  0.00    +0.000 A 
ATOM     24  C   UNL     1      49.561   9.826  11.246  0.00  0.00    +0.000 A 
ATOM     25 CL   UNL     1      50.694  10.911  10.528  0.00  0.00    +0.000 Cl
ENDBRANCH  17  21
ENDBRANCH  16  17
ENDBRANCH   1  16
TORSDOF 5
ENDMDL
MODEL 8
REMARK VINA RESULT:    -7.078      3.138      6.956
REMARK INTER + INTRA:         -10.176
REMARK INTER:                  -9.244
REMARK INTRA:                  -0.932
REMARK UNBOUND:                -1.029
REMARK  Name = 
REMARK  6 active torsions:
REMARK  status: ('A' for Active; 'I' for Inactive)
REMARK    1  A    between atoms: C_1  and  C_2
REMARK    2  A    between atoms: C_4  and  O_5
REMARK    3  A    between atoms: O_5  and  C_6
REMARK    4  A    between atoms: C_6  and  C_7
REMARK    5  A    between atoms: C_7  and  C_10
REMARK    6  A    between atoms: C_14  and  C_15
REMARK                            x       y       z     vdW  Elec       q    Type
REMARK                         _______ _______ _______ _____ _____    ______ ____
ROOT
ATOM      1  C   UNL     1      45.014   3.747  12.705  0.00  0.00    +0.000 C 
ATOM      2  F   UNL     1      45.902   2.745  12.967  0.00  0.00    +0.000 F 
ATOM      3  F   UNL     1      43.870   3.406  13.368  0.00  0.00    +0.000 F 
ENDROOT
BRANCH   1   4
ATOM      4  C   UNL     1      44.765   3.902  11.225  0.00  0.00    +0.000 A 
ATOM      5  C   UNL     1      43.783   4.757  10.754  0.00  0.00    +0.000 A 
ATOM      6  N   UNL     1      43.501   4.919   9.444  0.00  0.00    +0.000 NA
ATOM      7  C   UNL     1      44.246   4.210   8.559  0.00  0.00    +0.000 A 
ATOM      8  C   UNL     1      45.258   3.311   8.900  0.00  0.00    +0.000 A 
ATOM      9  C   UNL     1      45.497   3.169  10.276  0.00  0.00    +0.000 A 
BRANCH   8  10
ATOM     10  C   UNL     1      46.030   2.557   7.888  0.00  0.00    +0.000 A 
ATOM     11  C   UNL     1      46.473   3.147   6.693  0.00  0.00    +0.000 A 
ATOM     12  C   UNL     1      47.211   2.414   5.764  0.00  0.00    +0.000 A 
ATOM     13  C   UNL     1      47.486   1.089   6.042  0.00  0.00    +0.000 A 
ATOM     14  N   UNL     1      47.082   0.469   7.167  0.00  0.00    +0.000 NA
ATOM     15  C   UNL     1      46.374   1.213   8.054  0.00  0.00    +0.000 A 
ENDBRANCH   8  10
ENDBRANCH   1   4
BRANCH   1  16
ATOM     16  C   UNL     1      45.557   5.059  13.293  0.00  0.00    +0.000 C 
BRANCH  16  17
ATOM     17  O   UNL     1      46.704   5.518  12.563  0.00  0.00    +0.000 OA
BRANCH  17  21
ATOM     18  C   UNL     1      49.314   9.665  11.724  0.00  0.00    +0.000 C 
ATOM     19  C   UNL     1      48.010   8.965  11.990  0.00  0.00    +0.000 A 
ATOM     20  C   UNL     1      48.002   7.566  12.141  0.00  0.00    +0.000 A 
ATOM     21  C   UNL     1      46.816   6.872  12.392  0.00  0.00    +0.000 A 
ATOM     22  C   UNL     1      45.619   7.585  12.489  0.00  0.00    +0.000 A 
ATOM     23  C   UNL     1      45.607   8.974  12.341  0.00  0.00    +0.000 A 
ATOM     24  C   UNL     1      46.798   9.662  12.093  0.00  0.00    +0.000 A 
ATOM     25 CL   UNL     1      46.725  11.378  11.924  0.00  0.00    +0.000 Cl
ENDBRANCH  17  21
ENDBRANCH  16  17
ENDBRANCH   1  16
TORSDOF 5
ENDMDL
MODEL 9
REMARK VINA RESULT:    -6.564      3.548      5.047
REMARK INTER + INTRA:          -9.512
REMARK INTER:                  -8.738
REMARK INTRA:                  -0.774
REMARK UNBOUND:                -1.029
REMARK  Name = 
REMARK  6 active torsions:
REMARK  status: ('A' for Active; 'I' for Inactive)
REMARK    1  A    between atoms: C_1  and  C_2
REMARK    2  A    between atoms: C_4  and  O_5
REMARK    3  A    between atoms: O_5  and  C_6
REMARK    4  A    between atoms: C_6  and  C_7
REMARK    5  A    between atoms: C_7  and  C_10
REMARK    6  A    between atoms: C_14  and  C_15
REMARK                            x       y       z     vdW  Elec       q    Type
REMARK                         _______ _______ _______ _____ _____    ______ ____
ROOT
ATOM      1  C   UNL     1      46.724   6.587  12.955  0.00  0.00    +0.000 C 
ATOM      2  F   UNL     1      47.388   6.481  11.769  0.00  0.00    +0.000 F 
ATOM      3  F   UNL     1      47.063   7.812  13.458  0.00  0.00    +0.000 F 
ENDROOT
BRANCH   1   4
ATOM      4  C   UNL     1      47.101   5.480  13.909  0.00  0.00    +0.000 A 
ATOM      5  C   UNL     1      46.933   4.151  13.559  0.00  0.00    +0.000 A 
ATOM      6  N   UNL     1      47.231   3.121  14.378  0.00  0.00    +0.000 NA
ATOM      7  C   UNL     1      47.740   3.429  15.597  0.00  0.00    +0.000 A 
ATOM      8  C   UNL     1      47.952   4.723  16.076  0.00  0.00    +0.000 A 
ATOM      9  C   UNL     1      47.608   5.755  15.189  0.00  0.00    +0.000 A 
BRANCH   8  10
ATOM     10  C   UNL     1      48.501   4.995  17.422  0.00  0.00    +0.000 A 
ATOM     11  C   UNL     1      49.881   5.017  17.677  0.00  0.00    +0.000 A 
ATOM     12  C   UNL     1      50.369   5.291  18.955  0.00  0.00    +0.000 A 
ATOM     13  C   UNL     1      49.460   5.529  19.968  0.00  0.00    +0.000 A 
ATOM     14  N   UNL     1      48.126   5.516  19.784  0.00  0.00    +0.000 NA
ATOM     15  C   UNL     1      47.685   5.255  18.527  0.00  0.00    +0.000 A 
ENDBRANCH   8  10
ENDBRANCH   1   4
BRANCH   1  16
ATOM     16  C   UNL     1      45.212   6.563  12.683  0.00  0.00    +0.000 C 
BRANCH  16  17
ATOM     17  O   UNL     1      44.938   6.610  11.275  0.00  0.00    +0.000 OA
BRANCH  17  21
ATOM     18  C   UNL     1      46.165   3.651   7.474  0.00  0.00    +0.000 C 
ATOM     19  C   UNL     1      45.480   3.880   8.792  0.00  0.00    +0.000 A 
ATOM     20  C   UNL     1      45.555   5.150   9.392  0.00  0.00    +0.000 A 
ATOM     21  C   UNL     1      44.931   5.410  10.615  0.00  0.00    +0.000 A 
ATOM     22  C   UNL     1      44.226   4.386  11.251  0.00  0.00    +0.000 A 
ATOM     23  C   UNL     1      44.141   3.119  10.670  0.00  0.00    +0.000 A 
ATOM     24  C   UNL     1      44.764   2.866   9.445  0.00  0.00    +0.000 A 
ATOM     25 CL   UNL     1      44.622   1.283   8.772  0.00  0.00    +0.000 Cl
ENDBRANCH  17  21
ENDBRANCH  16  17
ENDBRANCH   1  16
TORSDOF 5
ENDMDL
