MODEL 1
REMARK VINA RESULT:    -8.382      0.000      0.000
REMARK INTER + INTRA:         -11.309
REMARK INTER:                 -10.833
REMARK INTRA:                  -0.476
REMARK UNBOUND:                -0.476
REMARK  Name = 
REMARK  5 active torsions:
REMARK  status: ('A' for Active; 'I' for Inactive)
REMARK    1  A    between atoms: C_2  and  C_4
REMARK    2  A    between atoms: C_7  and  C_8
REMARK    3  A    between atoms: C_8  and  O_9
REMARK    4  A    between atoms: O_9  and  C_10
REMARK    5  A    between atoms: C_15  and  C_16
REMARK                            x       y       z     vdW  Elec       q    Type
REMARK                         _______ _______ _______ _____ _____    ______ ____
ROOT
ATOM      1  C   UNL     1      45.158   5.151  11.761  0.00  0.00    +0.000 A 
ATOM      2  C   UNL     1      45.635   4.057  12.476  0.00  0.00    +0.000 A 
ATOM      3  C   UNL     1      46.571   4.257  13.477  0.00  0.00    +0.000 A 
ATOM      4  F   UNL     1      47.009   3.206  14.183  0.00  0.00    +0.000 F 
ATOM      5  C   UNL     1      47.087   5.517  13.744  0.00  0.00    +0.000 A 
ATOM      6  C   UNL     1      46.725   6.615  12.954  0.00  0.00    +0.000 A 
ATOM      7  C   UNL     1      45.706   6.418  11.999  0.00  0.00    +0.000 A 
ENDROOT
BRANCH   6   8
ATOM      8  C   UNL     1      47.415   7.973  13.046  0.00  0.00    +0.000 C 
ATOM      9  C   UNL     1      48.395   8.179  11.868  0.00  0.00    +0.000 C 
ATOM     10  C   UNL     1      49.652   7.323  12.030  0.00  0.00    +0.000 C 
ATOM     11  N   UNL     1      50.366   7.647  13.265  0.00  0.00    +0.000 NA
ATOM     12  C   UNL     1      49.516   7.471  14.440  0.00  0.00    +0.000 C 
ATOM     13  C   UNL     1      48.202   8.258  14.346  0.00  0.00    +0.000 C 
ATOM     14  H   UNL     1      50.685   8.614  13.223  0.00  0.00    +0.000 HD
ENDBRANCH   6   8
BRANCH   1  15
ATOM     15  O   UNL     1      44.208   5.094  10.777  0.00  0.00    +0.000 OA
BRANCH  15  16
ATOM     16  C   UNL     1      43.856   3.771  10.365  0.00  0.00    +0.000 C 
BRANCH  16  20
ATOM     17  C   UNL     1      46.587   2.382   7.327  0.00  0.00    +0.000 A 
ATOM     18  C   UNL     1      46.173   3.719   7.327  0.00  0.00    +0.000 A 
ATOM     19  C   UNL     1      45.263   4.169   8.286  0.00  0.00    +0.000 A 
ATOM     20  C   UNL     1      44.745   3.287   9.244  0.00  0.00    +0.000 A 
ATOM     21  C   UNL     1      45.153   1.946   9.228  0.00  0.00    +0.000 A 
ATOM     22  C   UNL     1      46.059   1.489   8.269  0.00  0.00    +0.000 A 
BRANCH  17  24
ATOM     23  N   UNL     1      48.772   2.552   6.274  0.00  0.00    +0.000 N 
ATOM     24  C   UNL     1      47.587   1.873   6.356  0.00  0.00    +0.000 C 
ATOM     25  O   UNL     1      47.391   0.862   5.695  0.00  0.00    +0.000 OA
ATOM     26  H   UNL     1      49.492   2.124   5.707  0.00  0.00    +0.000 HD
ATOM     27  H   UNL     1      49.063   3.209   6.984  0.00  0.00    +0.000 HD
ENDBRANCH  17  24
ENDBRANCH  16  20
ENDBRANCH  15  16
ENDBRANCH   1  15
TORSDOF 5
ENDMDL
MODEL 2
REMARK VINA RESULT:    -7.726      1.795      2.367
REMARK INTER + INTRA:         -10.460
REMARK INTER:                 -10.012
REMARK INTRA:                  -0.448
REMARK UNBOUND:                -0.476
REMARK  Name = 
REMARK  5 active torsions:
REMARK  status: ('A' for Active; 'I' for Inactive)
REMARK    1  A    between atoms: C_2  and  C_4
REMARK    2  A    between atoms: C_7  and  C_8
REMARK    3  A    between atoms: C_8  and  O_9
REMARK    4  A    between atoms: O_9  and  C_10
REMARK    5  A    between atoms: C_15  and  C_16
REMARK                            x       y       z     vdW  Elec       q    Type
REMARK                         _______ _______ _______ _____ _____    ______ ____
ROOT
ATOM      1  C   UNL     1      45.148   5.749  11.712  0.00  0.00    +0.000 A 
ATOM      2  C   UNL     1      44.433   6.941  11.654  0.00  0.00    +0.000 A 
ATOM      3  C   UNL     1      45.111   8.144  11.750  0.00  0.00    +0.000 A 
ATOM      4  F   UNL     1      44.425   9.292  11.666  0.00  0.00    +0.000 F 
ATOM      5  C   UNL     1      46.483   8.187  11.961  0.00  0.00    +0.000 A 
ATOM      6  C   UNL     1      47.208   7.006  12.155  0.00  0.00    +0.000 A 
ATOM      7  C   UNL     1      46.525   5.787  11.965  0.00  0.00    +0.000 A 
ENDROOT
BRANCH   6   8
ATOM      8  C   UNL     1      48.665   6.987  12.609  0.00  0.00    +0.000 C 
ATOM      9  C   UNL     1      48.766   6.872  14.147  0.00  0.00    +0.000 C 
ATOM     10  C   UNL     1      48.377   8.182  14.833  0.00  0.00    +0.000 C 
ATOM     11  N   UNL     1      49.241   9.286  14.412  0.00  0.00    +0.000 NA
ATOM     12  C   UNL     1      49.202   9.476  12.963  0.00  0.00    +0.000 C 
ATOM     13  C   UNL     1      49.533   8.195  12.186  0.00  0.00    +0.000 C 
ATOM     14  H   UNL     1      50.199   9.089  14.699  0.00  0.00    +0.000 HD
ENDBRANCH   6   8
BRANCH   1  15
ATOM     15  O   UNL     1      44.604   4.499  11.592  0.00  0.00    +0.000 OA
BRANCH  15  16
ATOM     16  C   UNL     1      43.894   4.272  10.373  0.00  0.00    +0.000 C 
BRANCH  16  20
ATOM     17  C   UNL     1      46.613   2.475   7.546  0.00  0.00    +0.000 A 
ATOM     18  C   UNL     1      46.444   3.864   7.556  0.00  0.00    +0.000 A 
ATOM     19  C   UNL     1      45.540   4.451   8.445  0.00  0.00    +0.000 A 
ATOM     20  C   UNL     1      44.786   3.658   9.321  0.00  0.00    +0.000 A 
ATOM     21  C   UNL     1      44.951   2.266   9.293  0.00  0.00    +0.000 A 
ATOM     22  C   UNL     1      45.849   1.673   8.404  0.00  0.00    +0.000 A 
BRANCH  17  24
ATOM     23  N   UNL     1      48.717   2.527   6.328  0.00  0.00    +0.000 N 
ATOM     24  C   UNL     1      47.596   1.813   6.652  0.00  0.00    +0.000 C 
ATOM     25  O   UNL     1      47.445   0.664   6.262  0.00  0.00    +0.000 OA
ATOM     26  H   UNL     1      49.437   2.023   5.826  0.00  0.00    +0.000 HD
ATOM     27  H   UNL     1      48.994   3.353   6.841  0.00  0.00    +0.000 HD
ENDBRANCH  17  24
ENDBRANCH  16  20
ENDBRANCH  15  16
ENDBRANCH   1  15
TORSDOF 5
ENDMDL
MODEL 3
REMARK VINA RESULT:    -7.626      4.630      7.901
REMARK INTER + INTRA:         -10.330
REMARK INTER:                 -10.123
REMARK INTRA:                  -0.208
REMARK UNBOUND:                -0.476
REMARK  Name = 
REMARK  5 active torsions:
REMARK  status: ('A' for Active; 'I' for Inactive)
REMARK    1  A    between atoms: C_2  and  C_4
REMARK    2  A    between atoms: C_7  and  C_8
REMARK    3  A    between atoms: C_8  and  O_9
REMARK    4  A    between atoms: O_9  and  C_10
REMARK    5  A    between atoms: C_15  and  C_16
REMARK                            x       y       z     vdW  Elec       q    Type
REMARK                         _______ _______ _______ _____ _____    ______ ____
ROOT
ATOM      1  C   UNL     1      46.571   4.954  14.007  0.00  0.00    +0.000 A 
ATOM      2  C   UNL     1      47.614   5.753  13.549  0.00  0.00    +0.000 A 
ATOM      3  C   UNL     1      47.450   6.479  12.382  0.00  0.00    +0.000 A 
ATOM      4  F   UNL     1      48.444   7.269  11.957  0.00  0.00    +0.000 F 
ATOM      5  C   UNL     1      46.289   6.382  11.627  0.00  0.00    +0.000 A 
ATOM      6  C   UNL     1      45.277   5.486  11.992  0.00  0.00    +0.000 A 
ATOM      7  C   UNL     1      45.415   4.821  13.228  0.00  0.00    +0.000 A 
ENDROOT
BRANCH   6   8
ATOM      8  C   UNL     1      44.083   5.166  11.097  0.00  0.00    +0.000 C 
ATOM      9  C   UNL     1      43.022   4.340  11.859  0.00  0.00    +0.000 C 
ATOM     10  C   UNL     1      43.483   2.898  12.073  0.00  0.00    +0.000 C 
ATOM     11  N   UNL     1      43.742   2.223  10.800  0.00  0.00    +0.000 NA
ATOM     12  C   UNL     1      44.746   2.933  10.010  0.00  0.00    +0.000 C 
ATOM     13  C   UNL     1      44.392   4.409   9.784  0.00  0.00    +0.000 C 
ATOM     14  H   UNL     1      42.874   2.168  10.269  0.00  0.00    +0.000 HD
ENDBRANCH   6   8
BRANCH   1  15
ATOM     15  O   UNL     1      46.592   4.219  15.162  0.00  0.00    +0.000 OA
BRANCH  15  16
ATOM     16  C   UNL     1      47.339   4.806  16.229  0.00  0.00    +0.000 C 
BRANCH  16  20
ATOM     17  C   UNL     1      50.673   2.309  17.352  0.00  0.00    +0.000 A 
ATOM     18  C   UNL     1      49.582   1.746  16.680  0.00  0.00    +0.000 A 
ATOM     19  C   UNL     1      48.484   2.540  16.343  0.00  0.00    +0.000 A 
ATOM     20  C   UNL     1      48.456   3.899  16.686  0.00  0.00    +0.000 A 
ATOM     21  C   UNL     1      49.546   4.451  17.374  0.00  0.00    +0.000 A 
ATOM     22  C   UNL     1      50.645   3.662  17.717  0.00  0.00    +0.000 A 
BRANCH  17  24
ATOM     23  N   UNL     1      51.677   0.230  18.116  0.00  0.00    +0.000 N 
ATOM     24  C   UNL     1      51.880   1.513  17.688  0.00  0.00    +0.000 C 
ATOM     25  O   UNL     1      53.010   1.959  17.541  0.00  0.00    +0.000 OA
ATOM     26  H   UNL     1      52.505  -0.342  18.219  0.00  0.00    +0.000 HD
ATOM     27  H   UNL     1      50.793  -0.243  17.991  0.00  0.00    +0.000 HD
ENDBRANCH  17  24
ENDBRANCH  16  20
ENDBRANCH  15  16
ENDBRANCH   1  15
TORSDOF 5
ENDMDL
MODEL 4
REMARK VINA RESULT:    -6.984      4.536      8.651
REMARK INTER + INTRA:          -9.502
REMARK INTER:                  -9.310
REMARK INTRA:                  -0.192
REMARK UNBOUND:                -0.476
REMARK  Name = 
REMARK  5 active torsions:
REMARK  status: ('A' for Active; 'I' for Inactive)
REMARK    1  A    between atoms: C_2  and  C_4
REMARK    2  A    between atoms: C_7  and  C_8
REMARK    3  A    between atoms: C_8  and  O_9
REMARK    4  A    between atoms: O_9  and  C_10
REMARK    5  A    between atoms: C_15  and  C_16
REMARK                            x       y       z     vdW  Elec       q    Type
REMARK                         _______ _______ _______ _____ _____    ______ ____
ROOT
ATOM      1  C   UNL     1      46.324   5.058  13.710  0.00  0.00    +0.000 A 
ATOM      2  C   UNL     1      47.397   5.833  13.280  0.00  0.00    +0.000 A 
ATOM      3  C   UNL     1      47.319   6.481  12.060  0.00  0.00    +0.000 A 
ATOM      4  F   UNL     1      48.341   7.250  11.659  0.00  0.00    +0.000 F 
ATOM      5  C   UNL     1      46.218   6.328  11.228  0.00  0.00    +0.000 A 
ATOM      6  C   UNL     1      45.184   5.451  11.574  0.00  0.00    +0.000 A 
ATOM      7  C   UNL     1      45.230   4.867  12.857  0.00  0.00    +0.000 A 
ENDROOT
BRANCH   6   8
ATOM      8  C   UNL     1      44.060   5.066  10.615  0.00  0.00    +0.000 C 
ATOM      9  C   UNL     1      42.993   4.203  11.327  0.00  0.00    +0.000 C 
ATOM     10  C   UNL     1      43.503   2.786  11.591  0.00  0.00    +0.000 C 
ATOM     11  N   UNL     1      43.867   2.106  10.346  0.00  0.00    +0.000 NA
ATOM     12  C   UNL     1      44.884   2.849   9.606  0.00  0.00    +0.000 C 
ATOM     13  C   UNL     1      44.480   4.305   9.335  0.00  0.00    +0.000 C 
ATOM     14  H   UNL     1      43.036   2.005   9.766  0.00  0.00    +0.000 HD
ENDBRANCH   6   8
BRANCH   1  15
ATOM     15  O   UNL     1      46.260   4.399  14.908  0.00  0.00    +0.000 OA
BRANCH  15  16
ATOM     16  C   UNL     1      47.429   3.645  15.237  0.00  0.00    +0.000 C 
BRANCH  16  20
ATOM     17  C   UNL     1      48.669   4.333  19.312  0.00  0.00    +0.000 A 
ATOM     18  C   UNL     1      47.730   5.185  18.721  0.00  0.00    +0.000 A 
ATOM     19  C   UNL     1      47.348   4.991  17.391  0.00  0.00    +0.000 A 
ATOM     20  C   UNL     1      47.911   3.954  16.634  0.00  0.00    +0.000 A 
ATOM     21  C   UNL     1      48.863   3.113  17.229  0.00  0.00    +0.000 A 
ATOM     22  C   UNL     1      49.251   3.306  18.556  0.00  0.00    +0.000 A 
BRANCH  17  24
ATOM     23  N   UNL     1      50.408   4.561  20.996  0.00  0.00    +0.000 N 
ATOM     24  C   UNL     1      49.068   4.474  20.734  0.00  0.00    +0.000 C 
ATOM     25  O   UNL     1      48.242   4.563  21.632  0.00  0.00    +0.000 OA
ATOM     26  H   UNL     1      50.662   4.785  21.949  0.00  0.00    +0.000 HD
ATOM     27  H   UNL     1      51.084   4.760  20.271  0.00  0.00    +0.000 HD
ENDBRANCH  17  24
ENDBRANCH  16  20
ENDBRANCH  15  16
ENDBRANCH   1  15
TORSDOF 5
ENDMDL
MODEL 5
REMARK VINA RESULT:    -6.786      4.346      6.106
REMARK INTER + INTRA:          -9.246
REMARK INTER:                  -8.357
REMARK INTRA:                  -0.888
REMARK UNBOUND:                -0.476
REMARK  Name = 
REMARK  5 active torsions:
REMARK  status: ('A' for Active; 'I' for Inactive)
REMARK    1  A    between atoms: C_2  and  C_4
REMARK    2  A    between atoms: C_7  and  C_8
REMARK    3  A    between atoms: C_8  and  O_9
REMARK    4  A    between atoms: O_9  and  C_10
REMARK    5  A    between atoms: C_15  and  C_16
REMARK                            x       y       z     vdW  Elec       q    Type
REMARK                         _______ _______ _______ _____ _____    ______ ____
ROOT
ATOM      1  C   UNL     1      48.721   8.021  14.612  0.00  0.00    +0.000 A 
ATOM      2  C   UNL     1      48.257   9.203  15.183  0.00  0.00    +0.000 A 
ATOM      3  C   UNL     1      48.283   9.347  16.559  0.00  0.00    +0.000 A 
ATOM      4  F   UNL     1      47.863  10.495  17.106  0.00  0.00    +0.000 F 
ATOM      5  C   UNL     1      48.707   8.315  17.386  0.00  0.00    +0.000 A 
ATOM      6  C   UNL     1      49.053   7.070  16.848  0.00  0.00    +0.000 A 
ATOM      7  C   UNL     1      49.110   6.964  15.443  0.00  0.00    +0.000 A 
ENDROOT
BRANCH   6   8
ATOM      8  C   UNL     1      49.311   5.834  17.706  0.00  0.00    +0.000 C 
ATOM      9  C   UNL     1      48.898   4.545  16.960  0.00  0.00    +0.000 C 
ATOM     10  C   UNL     1      47.377   4.404  16.886  0.00  0.00    +0.000 C 
ATOM     11  N   UNL     1      46.778   4.357  18.221  0.00  0.00    +0.000 NA
ATOM     12  C   UNL     1      47.109   5.547  19.001  0.00  0.00    +0.000 C 
ATOM     13  C   UNL     1      48.620   5.800  19.089  0.00  0.00    +0.000 C 
ATOM     14  H   UNL     1      47.117   3.530  18.711  0.00  0.00    +0.000 HD
ENDBRANCH   6   8
BRANCH   1  15
ATOM     15  O   UNL     1      48.783   7.769  13.268  0.00  0.00    +0.000 OA
BRANCH  15  16
ATOM     16  C   UNL     1      48.556   6.405  12.906  0.00  0.00    +0.000 C 
BRANCH  16  20
ATOM     17  C   UNL     1      44.461   5.446  11.945  0.00  0.00    +0.000 A 
ATOM     18  C   UNL     1      45.229   6.187  11.040  0.00  0.00    +0.000 A 
ATOM     19  C   UNL     1      46.545   6.532  11.358  0.00  0.00    +0.000 A 
ATOM     20  C   UNL     1      47.102   6.153  12.587  0.00  0.00    +0.000 A 
ATOM     21  C   UNL     1      46.321   5.423  13.494  0.00  0.00    +0.000 A 
ATOM     22  C   UNL     1      45.004   5.080  13.184  0.00  0.00    +0.000 A 
BRANCH  17  24
ATOM     23  N   UNL     1      42.089   5.955  11.778  0.00  0.00    +0.000 N 
ATOM     24  C   UNL     1      43.076   5.018  11.628  0.00  0.00    +0.000 C 
ATOM     25  O   UNL     1      42.825   3.899  11.202  0.00  0.00    +0.000 OA
ATOM     26  H   UNL     1      41.172   5.693  11.439  0.00  0.00    +0.000 HD
ATOM     27  H   UNL     1      42.294   6.940  11.863  0.00  0.00    +0.000 HD
ENDBRANCH  17  24
ENDBRANCH  16  20
ENDBRANCH  15  16
ENDBRANCH   1  15
TORSDOF 5
ENDMDL
MODEL 6
REMARK VINA RESULT:    -6.772      4.226      7.556
REMARK INTER + INTRA:          -9.227
REMARK INTER:                  -8.890
REMARK INTRA:                  -0.337
REMARK UNBOUND:                -0.476
REMARK  Name = 
REMARK  5 active torsions:
REMARK  status: ('A' for Active; 'I' for Inactive)
REMARK    1  A    between atoms: C_2  and  C_4
REMARK    2  A    between atoms: C_7  and  C_8
REMARK    3  A    between atoms: C_8  and  O_9
REMARK    4  A    between atoms: O_9  and  C_10
REMARK    5  A    between atoms: C_15  and  C_16
REMARK                            x       y       z     vdW  Elec       q    Type
REMARK                         _______ _______ _______ _____ _____    ______ ____
ROOT
ATOM      1  C   UNL     1      47.176   7.552  12.351  0.00  0.00    +0.000 A 
ATOM      2  C   UNL     1      46.687   8.854  12.294  0.00  0.00    +0.000 A 
ATOM      3  C   UNL     1      45.369   9.068  11.930  0.00  0.00    +0.000 A 
ATOM      4  F   UNL     1      44.891  10.319  11.902  0.00  0.00    +0.000 F 
ATOM      5  C   UNL     1      44.540   8.016  11.563  0.00  0.00    +0.000 A 
ATOM      6  C   UNL     1      45.041   6.711  11.484  0.00  0.00    +0.000 A 
ATOM      7  C   UNL     1      46.356   6.493  11.943  0.00  0.00    +0.000 A 
ENDROOT
BRANCH   6   8
ATOM      8  C   UNL     1      44.255   5.551  10.879  0.00  0.00    +0.000 C 
ATOM      9  C   UNL     1      42.860   5.425  11.533  0.00  0.00    +0.000 C 
ATOM     10  C   UNL     1      42.956   4.862  12.951  0.00  0.00    +0.000 C 
ATOM     11  N   UNL     1      43.574   3.536  12.962  0.00  0.00    +0.000 NA
ATOM     12  C   UNL     1      44.908   3.560  12.368  0.00  0.00    +0.000 C 
ATOM     13  C   UNL     1      44.920   4.157  10.954  0.00  0.00    +0.000 C 
ATOM     14  H   UNL     1      42.985   2.889  12.439  0.00  0.00    +0.000 HD
ENDBRANCH   6   8
BRANCH   1  15
ATOM     15  O   UNL     1      48.444   7.205  12.732  0.00  0.00    +0.000 OA
BRANCH  15  16
ATOM     16  C   UNL     1      48.779   7.552  14.077  0.00  0.00    +0.000 C 
BRANCH  16  20
ATOM     17  C   UNL     1      47.961   4.336  16.834  0.00  0.00    +0.000 A 
ATOM     18  C   UNL     1      48.933   5.290  17.153  0.00  0.00    +0.000 A 
ATOM     19  C   UNL     1      49.229   6.315  16.251  0.00  0.00    +0.000 A 
ATOM     20  C   UNL     1      48.569   6.390  15.017  0.00  0.00    +0.000 A 
ATOM     21  C   UNL     1      47.606   5.420  14.699  0.00  0.00    +0.000 A 
ATOM     22  C   UNL     1      47.310   4.391  15.594  0.00  0.00    +0.000 A 
BRANCH  17  24
ATOM     23  N   UNL     1      48.370   3.102  18.889  0.00  0.00    +0.000 N 
ATOM     24  C   UNL     1      47.582   3.258  17.781  0.00  0.00    +0.000 C 
ATOM     25  O   UNL     1      46.583   2.572  17.615  0.00  0.00    +0.000 OA
ATOM     26  H   UNL     1      48.032   2.454  19.588  0.00  0.00    +0.000 HD
ATOM     27  H   UNL     1      49.025   3.812  19.185  0.00  0.00    +0.000 HD
ENDBRANCH  17  24
ENDBRANCH  16  20
ENDBRANCH  15  16
ENDBRANCH   1  15
TORSDOF 5
ENDMDL
MODEL 7
REMARK VINA RESULT:    -6.692      4.921      8.148
REMARK INTER + INTRA:          -9.124
REMARK INTER:                  -9.054
REMARK INTRA:                  -0.070
REMARK UNBOUND:                -0.476
REMARK  Name = 
REMARK  5 active torsions:
REMARK  status: ('A' for Active; 'I' for Inactive)
REMARK    1  A    between atoms: C_2  and  C_4
REMARK    2  A    between atoms: C_7  and  C_8
REMARK    3  A    between atoms: C_8  and  O_9
REMARK    4  A    between atoms: O_9  and  C_10
REMARK    5  A    between atoms: C_15  and  C_16
REMARK                            x       y       z     vdW  Elec       q    Type
REMARK                         _______ _______ _______ _____ _____    ______ ____
ROOT
ATOM      1  C   UNL     1      47.743   5.876  14.436  0.00  0.00    +0.000 A 
ATOM      2  C   UNL     1      48.287   6.637  13.406  0.00  0.00    +0.000 A 
ATOM      3  C   UNL     1      47.610   6.731  12.202  0.00  0.00    +0.000 A 
ATOM      4  F   UNL     1      48.121   7.485  11.220  0.00  0.00    +0.000 F 
ATOM      5  C   UNL     1      46.429   6.035  11.980  0.00  0.00    +0.000 A 
ATOM      6  C   UNL     1      45.928   5.160  12.950  0.00  0.00    +0.000 A 
ATOM      7  C   UNL     1      46.574   5.141  14.203  0.00  0.00    +0.000 A 
ENDROOT
BRANCH   6   8
ATOM      8  C   UNL     1      44.767   4.203  12.690  0.00  0.00    +0.000 C 
ATOM      9  C   UNL     1      44.898   3.535  11.302  0.00  0.00    +0.000 C 
ATOM     10  C   UNL     1      44.581   4.519  10.175  0.00  0.00    +0.000 C 
ATOM     11  N   UNL     1      43.220   5.045  10.289  0.00  0.00    +0.000 NA
ATOM     12  C   UNL     1      43.006   5.706  11.574  0.00  0.00    +0.000 C 
ATOM     13  C   UNL     1      43.346   4.808  12.771  0.00  0.00    +0.000 C 
ATOM     14  H   UNL     1      42.556   4.278  10.192  0.00  0.00    +0.000 HD
ENDBRANCH   6   8
BRANCH   1  15
ATOM     15  O   UNL     1      48.291   5.734  15.682  0.00  0.00    +0.000 OA
BRANCH  15  16
ATOM     16  C   UNL     1      47.928   4.529  16.359  0.00  0.00    +0.000 C 
BRANCH  16  20
ATOM     17  C   UNL     1      51.523   2.529  17.663  0.00  0.00    +0.000 A 
ATOM     18  C   UNL     1      50.442   1.774  17.194  0.00  0.00    +0.000 A 
ATOM     19  C   UNL     1      49.262   2.411  16.803  0.00  0.00    +0.000 A 
ATOM     20  C   UNL     1      49.143   3.805  16.888  0.00  0.00    +0.000 A 
ATOM     21  C   UNL     1      50.227   4.553  17.373  0.00  0.00    +0.000 A 
ATOM     22  C   UNL     1      51.406   3.922  17.770  0.00  0.00    +0.000 A 
BRANCH  17  24
ATOM     23  N   UNL     1      53.356   2.279  19.241  0.00  0.00    +0.000 N 
ATOM     24  C   UNL     1      52.811   1.898  18.045  0.00  0.00    +0.000 C 
ATOM     25  O   UNL     1      53.340   1.038  17.354  0.00  0.00    +0.000 OA
ATOM     26  H   UNL     1      54.163   1.752  19.550  0.00  0.00    +0.000 HD
ATOM     27  H   UNL     1      52.820   2.771  19.941  0.00  0.00    +0.000 HD
ENDBRANCH  17  24
ENDBRANCH  16  20
ENDBRANCH  15  16
ENDBRANCH   1  15
TORSDOF 5
ENDMDL
MODEL 8
REMARK VINA RESULT:    -6.688      4.441      7.131
REMARK INTER + INTRA:          -9.119
REMARK INTER:                  -8.428
REMARK INTRA:                  -0.691
REMARK UNBOUND:                -0.476
REMARK  Name = 
REMARK  5 active torsions:
REMARK  status: ('A' for Active; 'I' for Inactive)
REMARK    1  A    between atoms: C_2  and  C_4
REMARK    2  A    between atoms: C_7  and  C_8
REMARK    3  A    between atoms: C_8  and  O_9
REMARK    4  A    between atoms: O_9  and  C_10
REMARK    5  A    between atoms: C_15  and  C_16
REMARK                            x       y       z     vdW  Elec       q    Type
REMARK                         _______ _______ _______ _____ _____    ______ ____
ROOT
ATOM      1  C   UNL     1      46.497   4.745  13.816  0.00  0.00    +0.000 A 
ATOM      2  C   UNL     1      45.401   4.844  12.966  0.00  0.00    +0.000 A 
ATOM      3  C   UNL     1      45.464   5.692  11.873  0.00  0.00    +0.000 A 
ATOM      4  F   UNL     1      44.419   5.767  11.040  0.00  0.00    +0.000 F 
ATOM      5  C   UNL     1      46.577   6.490  11.641  0.00  0.00    +0.000 A 
ATOM      6  C   UNL     1      47.640   6.508  12.551  0.00  0.00    +0.000 A 
ATOM      7  C   UNL     1      47.605   5.576  13.609  0.00  0.00    +0.000 A 
ENDROOT
BRANCH   6   8
ATOM      8  C   UNL     1      48.784   7.516  12.477  0.00  0.00    +0.000 C 
ATOM      9  C   UNL     1      49.334   7.836  13.885  0.00  0.00    +0.000 C 
ATOM     10  C   UNL     1      48.367   8.715  14.678  0.00  0.00    +0.000 C 
ATOM     11  N   UNL     1      48.117   9.987  13.998  0.00  0.00    +0.000 NA
ATOM     12  C   UNL     1      47.583   9.782  12.654  0.00  0.00    +0.000 C 
ATOM     13  C   UNL     1      48.467   8.867  11.795  0.00  0.00    +0.000 C 
ATOM     14  H   UNL     1      48.990  10.510  13.937  0.00  0.00    +0.000 HD
ENDBRANCH   6   8
BRANCH   1  15
ATOM     15  O   UNL     1      46.575   3.918  14.905  0.00  0.00    +0.000 OA
BRANCH  15  16
ATOM     16  C   UNL     1      47.099   4.533  16.084  0.00  0.00    +0.000 C 
BRANCH  16  20
ATOM     17  C   UNL     1      50.665   2.489  17.397  0.00  0.00    +0.000 A 
ATOM     18  C   UNL     1      49.642   1.766  16.773  0.00  0.00    +0.000 A 
ATOM     19  C   UNL     1      48.470   2.413  16.376  0.00  0.00    +0.000 A 
ATOM     20  C   UNL     1      48.300   3.784  16.610  0.00  0.00    +0.000 A 
ATOM     21  C   UNL     1      49.324   4.499  17.249  0.00  0.00    +0.000 A 
ATOM     22  C   UNL     1      50.495   3.857  17.653  0.00  0.00    +0.000 A 
BRANCH  17  24
ATOM     23  N   UNL     1      51.917   0.506  18.040  0.00  0.00    +0.000 N 
ATOM     24  C   UNL     1      51.945   1.852  17.793  0.00  0.00    +0.000 C 
ATOM     25  O   UNL     1      52.993   2.482  17.847  0.00  0.00    +0.000 OA
ATOM     26  H   UNL     1      52.814   0.060  18.183  0.00  0.00    +0.000 HD
ATOM     27  H   UNL     1      51.145  -0.076  17.746  0.00  0.00    +0.000 HD
ENDBRANCH  17  24
ENDBRANCH  16  20
ENDBRANCH  15  16
ENDBRANCH   1  15
TORSDOF 5
ENDMDL
MODEL 9
REMARK VINA RESULT:    -6.408      3.849      6.037
REMARK INTER + INTRA:          -8.756
REMARK INTER:                  -8.122
REMARK INTRA:                  -0.634
REMARK UNBOUND:                -0.476
REMARK  Name = 
REMARK  5 active torsions:
REMARK  status: ('A' for Active; 'I' for Inactive)
REMARK    1  A    between atoms: C_2  and  C_4
REMARK    2  A    between atoms: C_7  and  C_8
REMARK    3  A    between atoms: C_8  and  O_9
REMARK    4  A    between atoms: O_9  and  C_10
REMARK    5  A    between atoms: C_15  and  C_16
REMARK                            x       y       z     vdW  Elec       q    Type
REMARK                         _______ _______ _______ _____ _____    ______ ____
ROOT
ATOM      1  C   UNL     1      49.241   6.996  15.131  0.00  0.00    +0.000 A 
ATOM      2  C   UNL     1      50.453   7.641  14.904  0.00  0.00    +0.000 A 
ATOM      3  C   UNL     1      51.558   7.294  15.662  0.00  0.00    +0.000 A 
ATOM      4  F   UNL     1      52.731   7.896  15.424  0.00  0.00    +0.000 F 
ATOM      5  C   UNL     1      51.470   6.358  16.684  0.00  0.00    +0.000 A 
ATOM      6  C   UNL     1      50.236   5.791  17.022  0.00  0.00    +0.000 A 
ATOM      7  C   UNL     1      49.137   6.082  16.187  0.00  0.00    +0.000 A 
ENDROOT
BRANCH   6   8
ATOM      8  C   UNL     1      50.025   4.932  18.266  0.00  0.00    +0.000 C 
ATOM      9  C   UNL     1      51.325   4.191  18.656  0.00  0.00    +0.000 C 
ATOM     10  C   UNL     1      51.628   3.045  17.691  0.00  0.00    +0.000 C 
ATOM     11  N   UNL     1      50.545   2.061  17.670  0.00  0.00    +0.000 NA
ATOM     12  C   UNL     1      49.270   2.673  17.299  0.00  0.00    +0.000 C 
ATOM     13  C   UNL     1      48.904   3.870  18.186  0.00  0.00    +0.000 C 
ATOM     14  H   UNL     1      50.459   1.639  18.594  0.00  0.00    +0.000 HD
ENDBRANCH   6   8
BRANCH   1  15
ATOM     15  O   UNL     1      48.088   7.219  14.428  0.00  0.00    +0.000 OA
BRANCH  15  16
ATOM     16  C   UNL     1      48.185   6.959  13.026  0.00  0.00    +0.000 C 
BRANCH  16  20
ATOM     17  C   UNL     1      45.059   4.375  11.555  0.00  0.00    +0.000 A 
ATOM     18  C   UNL     1      45.373   5.547  10.858  0.00  0.00    +0.000 A 
ATOM     19  C   UNL     1      46.360   6.407  11.346  0.00  0.00    +0.000 A 
ATOM     20  C   UNL     1      47.032   6.113  12.540  0.00  0.00    +0.000 A 
ATOM     21  C   UNL     1      46.701   4.944  13.240  0.00  0.00    +0.000 A 
ATOM     22  C   UNL     1      45.713   4.083  12.760  0.00  0.00    +0.000 A 
BRANCH  17  24
ATOM     23  N   UNL     1      44.520   2.350  10.321  0.00  0.00    +0.000 N 
ATOM     24  C   UNL     1      44.051   3.410  11.049  0.00  0.00    +0.000 C 
ATOM     25  O   UNL     1      42.861   3.520  11.310  0.00  0.00    +0.000 OA
ATOM     26  H   UNL     1      43.843   1.634  10.091  0.00  0.00    +0.000 HD
ATOM     27  H   UNL     1      45.496   2.090  10.320  0.00  0.00    +0.000 HD
ENDBRANCH  17  24
ENDBRANCH  16  20
ENDBRANCH  15  16
ENDBRANCH   1  15
TORSDOF 5
ENDMDL
