MODEL 1
REMARK VINA RESULT:    -8.532      0.000      0.000
REMARK INTER + INTRA:         -12.764
REMARK INTER:                 -11.525
REMARK INTRA:                  -1.239
REMARK UNBOUND:                -1.239
REMARK  Name = 
REMARK  6 active torsions:
REMARK  status: ('A' for Active; 'I' for Inactive)
REMARK    1  A    between atoms: C_2  and  C_25
REMARK    2  A    between atoms: N_3  and  C_4
REMARK    3  A    between atoms: C_4  and  C_5
REMARK    4  A    between atoms: C_8  and  C_9
REMARK    5  A    between atoms: C_9  and  N_10
REMARK    6  A    between atoms: C_11  and  C_13
REMARK                            x       y       z     vdW  Elec       q    Type
REMARK                         _______ _______ _______ _____ _____    ______ ____
ROOT
ATOM      1  C   UNL     1      44.907   5.755  10.831  0.00  0.00    +0.000 A 
ATOM      2  C   UNL     1      44.328   6.254  12.006  0.00  0.00    +0.000 A 
ATOM      3  C   UNL     1      45.065   7.066  12.876  0.00  0.00    +0.000 A 
ATOM      4  C   UNL     1      46.389   7.415  12.577  0.00  0.00    +0.000 A 
ATOM      5  C   UNL     1      46.963   6.924  11.397  0.00  0.00    +0.000 A 
ATOM      6  C   UNL     1      46.227   6.112  10.527  0.00  0.00    +0.000 A 
ENDROOT
BRANCH   1   7
ATOM      7  C   UNL     1      44.131   4.832   9.926  0.00  0.00    +0.000 C 
BRANCH   7  10
ATOM      8  O   UNL     1      45.119   2.241   9.837  0.00  0.00    +0.000 OA
ATOM      9  C   UNL     1      45.360   2.990   8.898  0.00  0.00    +0.000 C 
ATOM     10  N   UNL     1      44.934   4.304   8.848  0.00  0.00    +0.000 N 
ATOM     11  H   UNL     1      44.961   4.810   7.973  0.00  0.00    +0.000 HD
BRANCH   9  12
ATOM     12  C   UNL     1      46.118   2.492   7.719  0.00  0.00    +0.000 A 
ATOM     13  C   UNL     1      46.234   3.323   6.595  0.00  0.00    +0.000 A 
ATOM     14  C   UNL     1      46.923   2.882   5.464  0.00  0.00    +0.000 A 
ATOM     15  C   UNL     1      47.487   1.608   5.447  0.00  0.00    +0.000 A 
ATOM     16  C   UNL     1      47.358   0.768   6.553  0.00  0.00    +0.000 A 
ATOM     17  C   UNL     1      46.673   1.207   7.689  0.00  0.00    +0.000 A 
ENDBRANCH   9  12
ENDBRANCH   7  10
ENDBRANCH   1   7
BRANCH   4  18
ATOM     18  C   UNL     1      47.199   8.264  13.525  0.00  0.00    +0.000 C 
BRANCH  18  19
ATOM     19  N   UNL     1      47.599   7.520  14.694  0.00  0.00    +0.000 N 
ATOM     20  C   UNL     1      48.812   6.878  14.742  0.00  0.00    +0.000 C 
ATOM     21  O   UNL     1      49.614   6.942  13.813  0.00  0.00    +0.000 OA
ATOM     22  H   UNL     1      46.874   7.271  15.360  0.00  0.00    +0.000 HD
BRANCH  20  23
ATOM     23  C   UNL     1      49.135   6.160  15.982  0.00  0.00    +0.000 A 
ATOM     24  C   UNL     1      50.220   6.569  16.746  0.00  0.00    +0.000 A 
ATOM     25  S   UNL     1      50.427   5.671  18.180  0.00  0.00    +0.000 S 
ATOM     26  C   UNL     1      49.107   4.664  17.804  0.00  0.00    +0.000 A 
ATOM     27  N   UNL     1      48.751   3.642  18.627  0.00  0.00    +0.000 NA
ATOM     28  C   UNL     1      47.757   2.937  18.202  0.00  0.00    +0.000 A 
ATOM     29  N   UNL     1      47.084   3.165  17.030  0.00  0.00    +0.000 N 
ATOM     30  C   UNL     1      47.385   4.206  16.183  0.00  0.00    +0.000 A 
ATOM     31  O   UNL     1      46.734   4.409  15.164  0.00  0.00    +0.000 OA
ATOM     32  C   UNL     1      48.507   5.021  16.608  0.00  0.00    +0.000 A 
ATOM     33  H   UNL     1      46.308   2.579  16.757  0.00  0.00    +0.000 HD
ENDBRANCH  20  23
ENDBRANCH  18  19
ENDBRANCH   4  18
TORSDOF 6
ENDMDL
MODEL 2
REMARK VINA RESULT:    -8.176      2.423      2.784
REMARK INTER + INTRA:         -12.283
REMARK INTER:                 -11.313
REMARK INTRA:                  -0.970
REMARK UNBOUND:                -1.239
REMARK  Name = 
REMARK  6 active torsions:
REMARK  status: ('A' for Active; 'I' for Inactive)
REMARK    1  A    between atoms: C_2  and  C_25
REMARK    2  A    between atoms: N_3  and  C_4
REMARK    3  A    between atoms: C_4  and  C_5
REMARK    4  A    between atoms: C_8  and  C_9
REMARK    5  A    between atoms: C_9  and  N_10
REMARK    6  A    between atoms: C_11  and  C_13
REMARK                            x       y       z     vdW  Elec       q    Type
REMARK                         _______ _______ _______ _____ _____    ______ ____
ROOT
ATOM      1  C   UNL     1      45.291   4.516  11.788  0.00  0.00    +0.000 A 
ATOM      2  C   UNL     1      45.880   3.909  12.905  0.00  0.00    +0.000 A 
ATOM      3  C   UNL     1      46.806   4.606  13.691  0.00  0.00    +0.000 A 
ATOM      4  C   UNL     1      47.143   5.932  13.389  0.00  0.00    +0.000 A 
ATOM      5  C   UNL     1      46.545   6.541  12.278  0.00  0.00    +0.000 A 
ATOM      6  C   UNL     1      45.620   5.845  11.492  0.00  0.00    +0.000 A 
ENDROOT
BRANCH   1   7
ATOM      7  C   UNL     1      44.340   3.744  10.908  0.00  0.00    +0.000 C 
BRANCH   7  10
ATOM      8  O   UNL     1      44.998   4.665   8.375  0.00  0.00    +0.000 OA
ATOM      9  C   UNL     1      45.316   3.522   8.681  0.00  0.00    +0.000 C 
ATOM     10  N   UNL     1      45.022   2.956   9.907  0.00  0.00    +0.000 N 
ATOM     11  H   UNL     1      45.490   2.108  10.197  0.00  0.00    +0.000 HD
BRANCH   9  12
ATOM     12  C   UNL     1      46.086   2.678   7.727  0.00  0.00    +0.000 A 
ATOM     13  C   UNL     1      46.439   3.222   6.484  0.00  0.00    +0.000 A 
ATOM     14  C   UNL     1      47.146   2.454   5.558  0.00  0.00    +0.000 A 
ATOM     15  C   UNL     1      47.490   1.139   5.864  0.00  0.00    +0.000 A 
ATOM     16  C   UNL     1      47.124   0.585   7.090  0.00  0.00    +0.000 A 
ATOM     17  C   UNL     1      46.420   1.352   8.023  0.00  0.00    +0.000 A 
ENDBRANCH   9  12
ENDBRANCH   7  10
ENDBRANCH   1   7
BRANCH   4  18
ATOM     18  C   UNL     1      48.163   6.678  14.213  0.00  0.00    +0.000 C 
BRANCH  18  19
ATOM     19  N   UNL     1      48.004   6.412  15.622  0.00  0.00    +0.000 N 
ATOM     20  C   UNL     1      49.089   6.130  16.414  0.00  0.00    +0.000 C 
ATOM     21  O   UNL     1      50.234   6.132  15.967  0.00  0.00    +0.000 OA
ATOM     22  H   UNL     1      47.071   6.186  15.951  0.00  0.00    +0.000 HD
BRANCH  20  23
ATOM     23  C   UNL     1      48.827   5.889  17.839  0.00  0.00    +0.000 A 
ATOM     24  C   UNL     1      49.077   4.634  18.378  0.00  0.00    +0.000 A 
ATOM     25  S   UNL     1      48.775   4.535  20.053  0.00  0.00    +0.000 S 
ATOM     26  C   UNL     1      48.244   6.150  20.108  0.00  0.00    +0.000 A 
ATOM     27  N   UNL     1      47.807   6.703  21.272  0.00  0.00    +0.000 NA
ATOM     28  C   UNL     1      47.400   7.923  21.163  0.00  0.00    +0.000 A 
ATOM     29  N   UNL     1      47.394   8.642  19.995  0.00  0.00    +0.000 N 
ATOM     30  C   UNL     1      47.858   8.137  18.803  0.00  0.00    +0.000 A 
ATOM     31  O   UNL     1      47.881   8.822  17.786  0.00  0.00    +0.000 OA
ATOM     32  C   UNL     1      48.314   6.762  18.868  0.00  0.00    +0.000 A 
ATOM     33  H   UNL     1      47.068   9.597  19.978  0.00  0.00    +0.000 HD
ENDBRANCH  20  23
ENDBRANCH  18  19
ENDBRANCH   4  18
TORSDOF 6
ENDMDL
MODEL 3
REMARK VINA RESULT:    -8.123      1.673      2.027
REMARK INTER + INTRA:         -12.211
REMARK INTER:                 -11.318
REMARK INTRA:                  -0.893
REMARK UNBOUND:                -1.239
REMARK  Name = 
REMARK  6 active torsions:
REMARK  status: ('A' for Active; 'I' for Inactive)
REMARK    1  A    between atoms: C_2  and  C_25
REMARK    2  A    between atoms: N_3  and  C_4
REMARK    3  A    between atoms: C_4  and  C_5
REMARK    4  A    between atoms: C_8  and  C_9
REMARK    5  A    between atoms: C_9  and  N_10
REMARK    6  A    between atoms: C_11  and  C_13
REMARK                            x       y       z     vdW  Elec       q    Type
REMARK                         _______ _______ _______ _____ _____    ______ ____
ROOT
ATOM      1  C   UNL     1      45.364   4.578  11.824  0.00  0.00    +0.000 A 
ATOM      2  C   UNL     1      45.986   4.264  13.040  0.00  0.00    +0.000 A 
ATOM      3  C   UNL     1      46.842   5.181  13.662  0.00  0.00    +0.000 A 
ATOM      4  C   UNL     1      47.073   6.440  13.092  0.00  0.00    +0.000 A 
ATOM      5  C   UNL     1      46.442   6.757  11.883  0.00  0.00    +0.000 A 
ATOM      6  C   UNL     1      45.587   5.841  11.260  0.00  0.00    +0.000 A 
ENDROOT
BRANCH   1   7
ATOM      7  C   UNL     1      44.491   3.567  11.125  0.00  0.00    +0.000 C 
BRANCH   7  10
ATOM      8  O   UNL     1      44.430   4.260   8.440  0.00  0.00    +0.000 OA
ATOM      9  C   UNL     1      45.104   3.294   8.778  0.00  0.00    +0.000 C 
ATOM     10  N   UNL     1      45.191   2.851  10.084  0.00  0.00    +0.000 N 
ATOM     11  H   UNL     1      45.921   2.204  10.350  0.00  0.00    +0.000 HD
BRANCH   9  12
ATOM     12  C   UNL     1      45.911   2.555   7.770  0.00  0.00    +0.000 A 
ATOM     13  C   UNL     1      46.321   1.248   8.067  0.00  0.00    +0.000 A 
ATOM     14  C   UNL     1      47.094   0.530   7.153  0.00  0.00    +0.000 A 
ATOM     15  C   UNL     1      47.470   1.119   5.947  0.00  0.00    +0.000 A 
ATOM     16  C   UNL     1      47.083   2.427   5.655  0.00  0.00    +0.000 A 
ATOM     17  C   UNL     1      46.306   3.147   6.565  0.00  0.00    +0.000 A 
ENDBRANCH   9  12
ENDBRANCH   7  10
ENDBRANCH   1   7
BRANCH   4  18
ATOM     18  C   UNL     1      48.018   7.422  13.741  0.00  0.00    +0.000 C 
BRANCH  18  19
ATOM     19  N   UNL     1      48.009   7.296  15.178  0.00  0.00    +0.000 N 
ATOM     20  C   UNL     1      49.148   6.955  15.865  0.00  0.00    +0.000 C 
ATOM     21  O   UNL     1      50.221   6.782  15.292  0.00  0.00    +0.000 OA
ATOM     22  H   UNL     1      47.105   7.211  15.633  0.00  0.00    +0.000 HD
BRANCH  20  23
ATOM     23  C   UNL     1      49.041   6.868  17.327  0.00  0.00    +0.000 A 
ATOM     24  C   UNL     1      49.045   8.033  18.084  0.00  0.00    +0.000 A 
ATOM     25  S   UNL     1      48.857   7.764  19.757  0.00  0.00    +0.000 S 
ATOM     26  C   UNL     1      48.820   6.077  19.537  0.00  0.00    +0.000 A 
ATOM     27  N   UNL     1      48.702   5.236  20.600  0.00  0.00    +0.000 NA
ATOM     28  C   UNL     1      48.725   3.983  20.292  0.00  0.00    +0.000 A 
ATOM     29  N   UNL     1      48.850   3.494  19.017  0.00  0.00    +0.000 N 
ATOM     30  C   UNL     1      48.938   4.305  17.910  0.00  0.00    +0.000 A 
ATOM     31  O   UNL     1      49.003   3.836  16.779  0.00  0.00    +0.000 OA
ATOM     32  C   UNL     1      48.932   5.726  18.203  0.00  0.00    +0.000 A 
ATOM     33  H   UNL     1      48.854   2.500  18.843  0.00  0.00    +0.000 HD
ENDBRANCH  20  23
ENDBRANCH  18  19
ENDBRANCH   4  18
TORSDOF 6
ENDMDL
MODEL 4
REMARK VINA RESULT:    -8.041      2.255      3.838
REMARK INTER + INTRA:         -12.101
REMARK INTER:                 -11.009
REMARK INTRA:                  -1.092
REMARK UNBOUND:                -1.239
REMARK  Name = 
REMARK  6 active torsions:
REMARK  status: ('A' for Active; 'I' for Inactive)
REMARK    1  A    between atoms: C_2  and  C_25
REMARK    2  A    between atoms: N_3  and  C_4
REMARK    3  A    between atoms: C_4  and  C_5
REMARK    4  A    between atoms: C_8  and  C_9
REMARK    5  A    between atoms: C_9  and  N_10
REMARK    6  A    between atoms: C_11  and  C_13
REMARK                            x       y       z     vdW  Elec       q    Type
REMARK                         _______ _______ _______ _____ _____    ______ ____
ROOT
ATOM      1  C   UNL     1      44.847   4.496  11.230  0.00  0.00    +0.000 A 
ATOM      2  C   UNL     1      45.206   5.736  11.774  0.00  0.00    +0.000 A 
ATOM      3  C   UNL     1      45.912   5.809  12.981  0.00  0.00    +0.000 A 
ATOM      4  C   UNL     1      46.294   4.641  13.656  0.00  0.00    +0.000 A 
ATOM      5  C   UNL     1      45.943   3.402  13.105  0.00  0.00    +0.000 A 
ATOM      6  C   UNL     1      45.237   3.329  11.899  0.00  0.00    +0.000 A 
ENDROOT
BRANCH   1   7
ATOM      7  C   UNL     1      44.034   4.421   9.962  0.00  0.00    +0.000 C 
BRANCH   7  10
ATOM      8  O   UNL     1      46.174   5.075   8.323  0.00  0.00    +0.000 OA
ATOM      9  C   UNL     1      45.689   3.954   8.229  0.00  0.00    +0.000 C 
ATOM     10  N   UNL     1      44.611   3.530   8.982  0.00  0.00    +0.000 N 
ATOM     11  H   UNL     1      44.388   2.545   9.035  0.00  0.00    +0.000 HD
BRANCH   9  12
ATOM     12  C   UNL     1      46.279   2.959   7.294  0.00  0.00    +0.000 A 
ATOM     13  C   UNL     1      46.594   1.683   7.782  0.00  0.00    +0.000 A 
ATOM     14  C   UNL     1      47.165   0.729   6.938  0.00  0.00    +0.000 A 
ATOM     15  C   UNL     1      47.434   1.050   5.609  0.00  0.00    +0.000 A 
ATOM     16  C   UNL     1      47.143   2.324   5.122  0.00  0.00    +0.000 A 
ATOM     17  C   UNL     1      46.567   3.281   5.963  0.00  0.00    +0.000 A 
ENDBRANCH   9  12
ENDBRANCH   7  10
ENDBRANCH   1   7
BRANCH   4  18
ATOM     18  C   UNL     1      47.028   4.713  14.972  0.00  0.00    +0.000 C 
BRANCH  18  19
ATOM     19  N   UNL     1      47.716   5.971  15.128  0.00  0.00    +0.000 N 
ATOM     20  C   UNL     1      48.817   6.078  15.942  0.00  0.00    +0.000 C 
ATOM     21  O   UNL     1      49.279   5.106  16.534  0.00  0.00    +0.000 OA
ATOM     22  H   UNL     1      47.225   6.810  14.837  0.00  0.00    +0.000 HD
BRANCH  20  23
ATOM     23  C   UNL     1      49.457   7.397  16.023  0.00  0.00    +0.000 A 
ATOM     24  C   UNL     1      49.652   7.988  17.264  0.00  0.00    +0.000 A 
ATOM     25  S   UNL     1      50.458   9.489  17.190  0.00  0.00    +0.000 S 
ATOM     26  C   UNL     1      50.525   9.431  15.491  0.00  0.00    +0.000 A 
ATOM     27  N   UNL     1      51.080  10.447  14.778  0.00  0.00    +0.000 NA
ATOM     28  C   UNL     1      51.031  10.290  13.498  0.00  0.00    +0.000 A 
ATOM     29  N   UNL     1      50.480   9.205  12.866  0.00  0.00    +0.000 N 
ATOM     30  C   UNL     1      49.939   8.139  13.545  0.00  0.00    +0.000 A 
ATOM     31  O   UNL     1      49.495   7.162  12.950  0.00  0.00    +0.000 OA
ATOM     32  C   UNL     1      49.956   8.273  14.989  0.00  0.00    +0.000 A 
ATOM     33  H   UNL     1      50.479   9.139  11.859  0.00  0.00    +0.000 HD
ENDBRANCH  20  23
ENDBRANCH  18  19
ENDBRANCH   4  18
TORSDOF 6
ENDMDL
MODEL 5
REMARK VINA RESULT:    -7.406      2.377      2.660
REMARK INTER + INTRA:         -11.243
REMARK INTER:                 -10.399
REMARK INTRA:                  -0.843
REMARK UNBOUND:                -1.239
REMARK  Name = 
REMARK  6 active torsions:
REMARK  status: ('A' for Active; 'I' for Inactive)
REMARK    1  A    between atoms: C_2  and  C_25
REMARK    2  A    between atoms: N_3  and  C_4
REMARK    3  A    between atoms: C_4  and  C_5
REMARK    4  A    between atoms: C_8  and  C_9
REMARK    5  A    between atoms: C_9  and  N_10
REMARK    6  A    between atoms: C_11  and  C_13
REMARK                            x       y       z     vdW  Elec       q    Type
REMARK                         _______ _______ _______ _____ _____    ______ ____
ROOT
ATOM      1  C   UNL     1      45.359   6.664  11.803  0.00  0.00    +0.000 A 
ATOM      2  C   UNL     1      46.537   6.151  12.361  0.00  0.00    +0.000 A 
ATOM      3  C   UNL     1      47.383   6.969  13.121  0.00  0.00    +0.000 A 
ATOM      4  C   UNL     1      47.054   8.310  13.357  0.00  0.00    +0.000 A 
ATOM      5  C   UNL     1      45.871   8.819  12.807  0.00  0.00    +0.000 A 
ATOM      6  C   UNL     1      45.026   8.003  12.048  0.00  0.00    +0.000 A 
ENDROOT
BRANCH   1   7
ATOM      7  C   UNL     1      44.481   5.799  10.935  0.00  0.00    +0.000 C 
BRANCH   7  10
ATOM      8  O   UNL     1      43.851   3.212  10.155  0.00  0.00    +0.000 OA
ATOM      9  C   UNL     1      44.820   3.757   9.640  0.00  0.00    +0.000 C 
ATOM     10  N   UNL     1      45.233   5.034   9.968  0.00  0.00    +0.000 N 
ATOM     11  H   UNL     1      45.887   5.523   9.370  0.00  0.00    +0.000 HD
BRANCH   9  12
ATOM     12  C   UNL     1      45.597   3.058   8.582  0.00  0.00    +0.000 A 
ATOM     13  C   UNL     1      46.045   3.798   7.479  0.00  0.00    +0.000 A 
ATOM     14  C   UNL     1      46.762   3.172   6.458  0.00  0.00    +0.000 A 
ATOM     15  C   UNL     1      47.022   1.805   6.529  0.00  0.00    +0.000 A 
ATOM     16  C   UNL     1      46.560   1.058   7.613  0.00  0.00    +0.000 A 
ATOM     17  C   UNL     1      45.846   1.682   8.639  0.00  0.00    +0.000 A 
ENDBRANCH   9  12
ENDBRANCH   7  10
ENDBRANCH   1   7
BRANCH   4  18
ATOM     18  C   UNL     1      47.976   9.205  14.149  0.00  0.00    +0.000 C 
BRANCH  18  19
ATOM     19  N   UNL     1      47.702   9.131  15.563  0.00  0.00    +0.000 N 
ATOM     20  C   UNL     1      48.623   8.607  16.435  0.00  0.00    +0.000 C 
ATOM     21  O   UNL     1      49.725   8.218  16.054  0.00  0.00    +0.000 OA
ATOM     22  H   UNL     1      46.735   9.232  15.856  0.00  0.00    +0.000 HD
BRANCH  20  23
ATOM     23  C   UNL     1      48.257   8.590  17.857  0.00  0.00    +0.000 A 
ATOM     24  C   UNL     1      48.151   9.789  18.551  0.00  0.00    +0.000 A 
ATOM     25  S   UNL     1      47.664   9.602  20.174  0.00  0.00    +0.000 S 
ATOM     26  C   UNL     1      47.633   7.907  20.025  0.00  0.00    +0.000 A 
ATOM     27  N   UNL     1      47.312   7.119  21.086  0.00  0.00    +0.000 NA
ATOM     28  C   UNL     1      47.363   5.852  20.844  0.00  0.00    +0.000 A 
ATOM     29  N   UNL     1      47.703   5.302  19.634  0.00  0.00    +0.000 N 
ATOM     30  C   UNL     1      48.001   6.059  18.526  0.00  0.00    +0.000 A 
ATOM     31  O   UNL     1      48.256   5.536  17.446  0.00  0.00    +0.000 OA
ATOM     32  C   UNL     1      47.972   7.492  18.749  0.00  0.00    +0.000 A 
ATOM     33  H   UNL     1      47.717   4.301  19.508  0.00  0.00    +0.000 HD
ENDBRANCH  20  23
ENDBRANCH  18  19
ENDBRANCH   4  18
TORSDOF 6
ENDMDL
MODEL 6
REMARK VINA RESULT:    -6.801      3.380      4.391
REMARK INTER + INTRA:         -10.425
REMARK INTER:                  -9.395
REMARK INTRA:                  -1.030
REMARK UNBOUND:                -1.239
REMARK  Name = 
REMARK  6 active torsions:
REMARK  status: ('A' for Active; 'I' for Inactive)
REMARK    1  A    between atoms: C_2  and  C_25
REMARK    2  A    between atoms: N_3  and  C_4
REMARK    3  A    between atoms: C_4  and  C_5
REMARK    4  A    between atoms: C_8  and  C_9
REMARK    5  A    between atoms: C_9  and  N_10
REMARK    6  A    between atoms: C_11  and  C_13
REMARK                            x       y       z     vdW  Elec       q    Type
REMARK                         _______ _______ _______ _____ _____    ______ ____
ROOT
ATOM      1  C   UNL     1      45.052   6.109  11.242  0.00  0.00    +0.000 A 
ATOM      2  C   UNL     1      44.626   7.430  11.436  0.00  0.00    +0.000 A 
ATOM      3  C   UNL     1      45.322   8.286  12.298  0.00  0.00    +0.000 A 
ATOM      4  C   UNL     1      46.472   7.845  12.966  0.00  0.00    +0.000 A 
ATOM      5  C   UNL     1      46.903   6.527  12.763  0.00  0.00    +0.000 A 
ATOM      6  C   UNL     1      46.208   5.672  11.902  0.00  0.00    +0.000 A 
ENDROOT
BRANCH   1   7
ATOM      7  C   UNL     1      44.267   5.171  10.360  0.00  0.00    +0.000 C 
BRANCH   7  10
ATOM      8  O   UNL     1      44.453   2.437   9.929  0.00  0.00    +0.000 OA
ATOM      9  C   UNL     1      45.084   3.188   9.194  0.00  0.00    +0.000 C 
ATOM     10  N   UNL     1      45.079   4.563   9.332  0.00  0.00    +0.000 N 
ATOM     11  H   UNL     1      45.425   5.146   8.582  0.00  0.00    +0.000 HD
BRANCH   9  12
ATOM     12  C   UNL     1      45.882   2.635   8.067  0.00  0.00    +0.000 A 
ATOM     13  C   UNL     1      46.107   3.444   6.944  0.00  0.00    +0.000 A 
ATOM     14  C   UNL     1      46.837   2.953   5.860  0.00  0.00    +0.000 A 
ATOM     15  C   UNL     1      47.332   1.650   5.889  0.00  0.00    +0.000 A 
ATOM     16  C   UNL     1      47.094   0.834   6.994  0.00  0.00    +0.000 A 
ATOM     17  C   UNL     1      46.368   1.323   8.083  0.00  0.00    +0.000 A 
ENDBRANCH   9  12
ENDBRANCH   7  10
ENDBRANCH   1   7
BRANCH   4  18
ATOM     18  C   UNL     1      47.209   8.752  13.920  0.00  0.00    +0.000 C 
BRANCH  18  19
ATOM     19  N   UNL     1      48.638   8.636  13.766  0.00  0.00    +0.000 N 
ATOM     20  C   UNL     1      49.454   9.733  13.893  0.00  0.00    +0.000 C 
ATOM     21  O   UNL     1      49.007  10.841  14.179  0.00  0.00    +0.000 OA
ATOM     22  H   UNL     1      48.992   7.798  13.315  0.00  0.00    +0.000 HD
BRANCH  20  23
ATOM     23  C   UNL     1      50.897   9.509  13.735  0.00  0.00    +0.000 A 
ATOM     24  C   UNL     1      51.780  10.067  14.650  0.00  0.00    +0.000 A 
ATOM     25  S   UNL     1      53.412   9.668  14.359  0.00  0.00    +0.000 S 
ATOM     26  C   UNL     1      53.003   8.782  12.965  0.00  0.00    +0.000 A 
ATOM     27  N   UNL     1      53.964   8.184  12.210  0.00  0.00    +0.000 NA
ATOM     28  C   UNL     1      53.518   7.577  11.163  0.00  0.00    +0.000 A 
ATOM     29  N   UNL     1      52.196   7.509  10.805  0.00  0.00    +0.000 N 
ATOM     30  C   UNL     1      51.187   8.067  11.554  0.00  0.00    +0.000 A 
ATOM     31  O   UNL     1      50.010   7.949  11.230  0.00  0.00    +0.000 OA
ATOM     32  C   UNL     1      51.638   8.775  12.737  0.00  0.00    +0.000 A 
ATOM     33  H   UNL     1      51.911   7.010   9.974  0.00  0.00    +0.000 HD
ENDBRANCH  20  23
ENDBRANCH  18  19
ENDBRANCH   4  18
TORSDOF 6
ENDMDL
MODEL 7
REMARK VINA RESULT:    -6.780      3.681      8.470
REMARK INTER + INTRA:         -10.397
REMARK INTER:                  -9.478
REMARK INTRA:                  -0.919
REMARK UNBOUND:                -1.239
REMARK  Name = 
REMARK  6 active torsions:
REMARK  status: ('A' for Active; 'I' for Inactive)
REMARK    1  A    between atoms: C_2  and  C_25
REMARK    2  A    between atoms: N_3  and  C_4
REMARK    3  A    between atoms: C_4  and  C_5
REMARK    4  A    between atoms: C_8  and  C_9
REMARK    5  A    between atoms: C_9  and  N_10
REMARK    6  A    between atoms: C_11  and  C_13
REMARK                            x       y       z     vdW  Elec       q    Type
REMARK                         _______ _______ _______ _____ _____    ______ ____
ROOT
ATOM      1  C   UNL     1      50.146   7.146  15.842  0.00  0.00    +0.000 A 
ATOM      2  C   UNL     1      48.858   6.707  15.504  0.00  0.00    +0.000 A 
ATOM      3  C   UNL     1      48.315   6.989  14.245  0.00  0.00    +0.000 A 
ATOM      4  C   UNL     1      49.058   7.695  13.289  0.00  0.00    +0.000 A 
ATOM      5  C   UNL     1      50.348   8.124  13.624  0.00  0.00    +0.000 A 
ATOM      6  C   UNL     1      50.892   7.843  14.883  0.00  0.00    +0.000 A 
ENDROOT
BRANCH   1   7
ATOM      7  C   UNL     1      50.706   6.895  17.219  0.00  0.00    +0.000 C 
BRANCH   7  10
ATOM      8  O   UNL     1      49.647   4.542  18.238  0.00  0.00    +0.000 OA
ATOM      9  C   UNL     1      50.798   4.530  17.818  0.00  0.00    +0.000 C 
ATOM     10  N   UNL     1      51.429   5.648  17.307  0.00  0.00    +0.000 N 
ATOM     11  H   UNL     1      52.283   5.546  16.775  0.00  0.00    +0.000 HD
BRANCH   9  12
ATOM     12  C   UNL     1      51.578   3.263  17.809  0.00  0.00    +0.000 A 
ATOM     13  C   UNL     1      52.936   3.309  18.154  0.00  0.00    +0.000 A 
ATOM     14  C   UNL     1      53.704   2.143  18.140  0.00  0.00    +0.000 A 
ATOM     15  C   UNL     1      53.121   0.933  17.769  0.00  0.00    +0.000 A 
ATOM     16  C   UNL     1      51.776   0.884  17.404  0.00  0.00    +0.000 A 
ATOM     17  C   UNL     1      51.003   2.047  17.421  0.00  0.00    +0.000 A 
ENDBRANCH   9  12
ENDBRANCH   7  10
ENDBRANCH   1   7
BRANCH   4  18
ATOM     18  C   UNL     1      48.467   8.028  11.942  0.00  0.00    +0.000 C 
BRANCH  18  19
ATOM     19  N   UNL     1      47.740   6.912  11.390  0.00  0.00    +0.000 N 
ATOM     20  C   UNL     1      46.367   6.905  11.367  0.00  0.00    +0.000 C 
ATOM     21  O   UNL     1      45.709   7.859  11.777  0.00  0.00    +0.000 OA
ATOM     22  H   UNL     1      48.247   6.042  11.263  0.00  0.00    +0.000 HD
BRANCH  20  23
ATOM     23  C   UNL     1      45.718   5.730  10.771  0.00  0.00    +0.000 A 
ATOM     24  C   UNL     1      45.846   5.496   9.408  0.00  0.00    +0.000 A 
ATOM     25  S   UNL     1      45.084   4.064   8.883  0.00  0.00    +0.000 S 
ATOM     26  C   UNL     1      44.505   3.735  10.449  0.00  0.00    +0.000 A 
ATOM     27  N   UNL     1      43.737   2.639  10.693  0.00  0.00    +0.000 NA
ATOM     28  C   UNL     1      43.337   2.531  11.915  0.00  0.00    +0.000 A 
ATOM     29  N   UNL     1      43.639   3.417  12.917  0.00  0.00    +0.000 N 
ATOM     30  C   UNL     1      44.440   4.519  12.725  0.00  0.00    +0.000 A 
ATOM     31  O   UNL     1      44.728   5.268  13.652  0.00  0.00    +0.000 OA
ATOM     32  C   UNL     1      44.905   4.695  11.362  0.00  0.00    +0.000 A 
ATOM     33  H   UNL     1      43.300   3.272  13.856  0.00  0.00    +0.000 HD
ENDBRANCH  20  23
ENDBRANCH  18  19
ENDBRANCH   4  18
TORSDOF 6
ENDMDL
MODEL 8
REMARK VINA RESULT:    -6.667      3.293      8.816
REMARK INTER + INTRA:         -10.244
REMARK INTER:                  -9.283
REMARK INTRA:                  -0.961
REMARK UNBOUND:                -1.239
REMARK  Name = 
REMARK  6 active torsions:
REMARK  status: ('A' for Active; 'I' for Inactive)
REMARK    1  A    between atoms: C_2  and  C_25
REMARK    2  A    between atoms: N_3  and  C_4
REMARK    3  A    between atoms: C_4  and  C_5
REMARK    4  A    between atoms: C_8  and  C_9
REMARK    5  A    between atoms: C_9  and  N_10
REMARK    6  A    between atoms: C_11  and  C_13
REMARK                            x       y       z     vdW  Elec       q    Type
REMARK                         _______ _______ _______ _____ _____    ______ ____
ROOT
ATOM      1  C   UNL     1      50.189   7.359  15.448  0.00  0.00    +0.000 A 
ATOM      2  C   UNL     1      49.068   6.523  15.356  0.00  0.00    +0.000 A 
ATOM      3  C   UNL     1      48.171   6.645  14.287  0.00  0.00    +0.000 A 
ATOM      4  C   UNL     1      48.391   7.591  13.277  0.00  0.00    +0.000 A 
ATOM      5  C   UNL     1      49.517   8.419  13.364  0.00  0.00    +0.000 A 
ATOM      6  C   UNL     1      50.413   8.297  14.432  0.00  0.00    +0.000 A 
ENDROOT
BRANCH   1   7
ATOM      7  C   UNL     1      51.120   7.266  16.630  0.00  0.00    +0.000 C 
BRANCH   7  10
ATOM      8  O   UNL     1      50.224   5.380  18.456  0.00  0.00    +0.000 OA
ATOM      9  C   UNL     1      51.156   5.081  17.718  0.00  0.00    +0.000 C 
ATOM     10  N   UNL     1      51.693   5.949  16.787  0.00  0.00    +0.000 N 
ATOM     11  H   UNL     1      52.298   5.596  16.058  0.00  0.00    +0.000 HD
BRANCH   9  12
ATOM     12  C   UNL     1      51.746   3.717  17.773  0.00  0.00    +0.000 A 
ATOM     13  C   UNL     1      50.949   2.626  17.397  0.00  0.00    +0.000 A 
ATOM     14  C   UNL     1      51.464   1.329  17.452  0.00  0.00    +0.000 A 
ATOM     15  C   UNL     1      52.768   1.118  17.894  0.00  0.00    +0.000 A 
ATOM     16  C   UNL     1      53.559   2.196  18.289  0.00  0.00    +0.000 A 
ATOM     17  C   UNL     1      53.049   3.496  18.232  0.00  0.00    +0.000 A 
ENDBRANCH   9  12
ENDBRANCH   7  10
ENDBRANCH   1   7
BRANCH   4  18
ATOM     18  C   UNL     1      47.412   7.749  12.139  0.00  0.00    +0.000 C 
BRANCH  18  19
ATOM     19  N   UNL     1      46.765   6.501  11.818  0.00  0.00    +0.000 N 
ATOM     20  C   UNL     1      45.404   6.362  11.929  0.00  0.00    +0.000 C 
ATOM     21  O   UNL     1      44.683   7.299  12.267  0.00  0.00    +0.000 OA
ATOM     22  H   UNL     1      47.350   5.673  11.762  0.00  0.00    +0.000 HD
BRANCH  20  23
ATOM     23  C   UNL     1      44.837   5.057  11.564  0.00  0.00    +0.000 A 
ATOM     24  C   UNL     1      44.117   4.336  12.508  0.00  0.00    +0.000 A 
ATOM     25  S   UNL     1      43.479   2.871  11.911  0.00  0.00    +0.000 S 
ATOM     26  C   UNL     1      44.190   3.121  10.385  0.00  0.00    +0.000 A 
ATOM     27  N   UNL     1      44.050   2.204   9.390  0.00  0.00    +0.000 NA
ATOM     28  C   UNL     1      44.671   2.503   8.299  0.00  0.00    +0.000 A 
ATOM     29  N   UNL     1      45.415   3.639   8.110  0.00  0.00    +0.000 N 
ATOM     30  C   UNL     1      45.556   4.610   9.073  0.00  0.00    +0.000 A 
ATOM     31  O   UNL     1      46.192   5.636   8.857  0.00  0.00    +0.000 OA
ATOM     32  C   UNL     1      44.889   4.315  10.327  0.00  0.00    +0.000 A 
ATOM     33  H   UNL     1      45.871   3.817   7.227  0.00  0.00    +0.000 HD
ENDBRANCH  20  23
ENDBRANCH  18  19
ENDBRANCH   4  18
TORSDOF 6
ENDMDL
MODEL 9
REMARK VINA RESULT:    -6.432      6.129      9.859
REMARK INTER + INTRA:          -9.927
REMARK INTER:                  -9.274
REMARK INTRA:                  -0.653
REMARK UNBOUND:                -1.239
REMARK  Name = 
REMARK  6 active torsions:
REMARK  status: ('A' for Active; 'I' for Inactive)
REMARK    1  A    between atoms: C_2  and  C_25
REMARK    2  A    between atoms: N_3  and  C_4
REMARK    3  A    between atoms: C_4  and  C_5
REMARK    4  A    between atoms: C_8  and  C_9
REMARK    5  A    between atoms: C_9  and  N_10
REMARK    6  A    between atoms: C_11  and  C_13
REMARK                            x       y       z     vdW  Elec       q    Type
REMARK                         _______ _______ _______ _____ _____    ______ ____
ROOT
ATOM      1  C   UNL     1      45.791   6.560  12.637  0.00  0.00    +0.000 A 
ATOM      2  C   UNL     1      46.246   7.759  13.203  0.00  0.00    +0.000 A 
ATOM      3  C   UNL     1      45.745   8.991  12.766  0.00  0.00    +0.000 A 
ATOM      4  C   UNL     1      44.762   9.048  11.769  0.00  0.00    +0.000 A 
ATOM      5  C   UNL     1      44.301   7.849  11.211  0.00  0.00    +0.000 A 
ATOM      6  C   UNL     1      44.801   6.618  11.647  0.00  0.00    +0.000 A 
ENDROOT
BRANCH   1   7
ATOM      7  C   UNL     1      46.375   5.239  13.066  0.00  0.00    +0.000 C 
BRANCH   7  10
ATOM      8  O   UNL     1      47.360   3.014  14.400  0.00  0.00    +0.000 OA
ATOM      9  C   UNL     1      47.295   4.077  15.007  0.00  0.00    +0.000 C 
ATOM     10  N   UNL     1      46.804   5.240  14.446  0.00  0.00    +0.000 N 
ATOM     11  H   UNL     1      46.974   6.129  14.897  0.00  0.00    +0.000 HD
BRANCH   9  12
ATOM     12  C   UNL     1      47.789   4.171  16.406  0.00  0.00    +0.000 A 
ATOM     13  C   UNL     1      47.911   2.992  17.156  0.00  0.00    +0.000 A 
ATOM     14  C   UNL     1      48.355   3.044  18.478  0.00  0.00    +0.000 A 
ATOM     15  C   UNL     1      48.664   4.272  19.059  0.00  0.00    +0.000 A 
ATOM     16  C   UNL     1      48.525   5.450  18.327  0.00  0.00    +0.000 A 
ATOM     17  C   UNL     1      48.086   5.403  17.001  0.00  0.00    +0.000 A 
ENDBRANCH   9  12
ENDBRANCH   7  10
ENDBRANCH   1   7
BRANCH   4  18
ATOM     18  C   UNL     1      44.241  10.373  11.271  0.00  0.00    +0.000 C 
BRANCH  18  19
ATOM     19  N   UNL     1      42.799  10.396  11.233  0.00  0.00    +0.000 N 
ATOM     20  C   UNL     1      42.101  11.530  11.568  0.00  0.00    +0.000 C 
ATOM     21  O   UNL     1      42.673  12.574  11.874  0.00  0.00    +0.000 OA
ATOM     22  H   UNL     1      42.320   9.502  11.207  0.00  0.00    +0.000 HD
BRANCH  20  23
ATOM     23  C   UNL     1      40.637  11.458  11.482  0.00  0.00    +0.000 A 
ATOM     24  C   UNL     1      40.041  11.019  10.307  0.00  0.00    +0.000 A 
ATOM     25  S   UNL     1      38.340  10.940  10.389  0.00  0.00    +0.000 S 
ATOM     26  C   UNL     1      38.334  11.545  11.979  0.00  0.00    +0.000 A 
ATOM     27  N   UNL     1      37.166  11.749  12.645  0.00  0.00    +0.000 NA
ATOM     28  C   UNL     1      37.306  12.246  13.828  0.00  0.00    +0.000 A 
ATOM     29  N   UNL     1      38.510  12.551  14.408  0.00  0.00    +0.000 N 
ATOM     30  C   UNL     1      39.717  12.330  13.788  0.00  0.00    +0.000 A 
ATOM     31  O   UNL     1      40.779  12.572  14.352  0.00  0.00    +0.000 OA
ATOM     32  C   UNL     1      39.615  11.786  12.447  0.00  0.00    +0.000 A 
ATOM     33  H   UNL     1      38.552  12.932  15.342  0.00  0.00    +0.000 HD
ENDBRANCH  20  23
ENDBRANCH  18  19
ENDBRANCH   4  18
TORSDOF 6
ENDMDL
