MODEL 1
REMARK VINA RESULT:    -6.753      0.000      0.000
REMARK INTER + INTRA:          -8.834
REMARK INTER:                  -8.332
REMARK INTRA:                  -0.501
REMARK UNBOUND:                -0.501
REMARK  Name = 
REMARK  4 active torsions:
REMARK  status: ('A' for Active; 'I' for Inactive)
REMARK    1  A    between atoms: C_2  and  C_5
REMARK    2  A    between atoms: C_9  and  C_10
REMARK    3  A    between atoms: C_11  and  C_12
REMARK    4  A    between atoms: C_14  and  N_15
REMARK                            x       y       z     vdW  Elec       q    Type
REMARK                         _______ _______ _______ _____ _____    ______ ____
ROOT
ATOM      1  C   UNL     1      46.011   4.474  13.894  0.00  0.00    +0.000 C 
ATOM      2  C   UNL     1      46.742   4.261  14.827  0.00  0.00    +0.000 C 
ENDROOT
BRANCH   1   7
ATOM      3  C   UNL     1      44.658   4.547  10.414  0.00  0.00    +0.000 A 
ATOM      4  C   UNL     1      43.412   5.094  10.694  0.00  0.00    +0.000 A 
ATOM      5  N   UNL     1      43.001   5.431  11.936  0.00  0.00    +0.000 NA
ATOM      6  C   UNL     1      43.872   5.219  12.952  0.00  0.00    +0.000 A 
ATOM      7  C   UNL     1      45.139   4.682  12.782  0.00  0.00    +0.000 A 
ATOM      8  C   UNL     1      45.533   4.337  11.489  0.00  0.00    +0.000 A 
BRANCH   3  10
ATOM      9  F   UNL     1      44.019   4.293   8.120  0.00  0.00    +0.000 F 
ATOM     10  C   UNL     1      45.044   4.199   9.011  0.00  0.00    +0.000 C 
ATOM     11  F   UNL     1      45.517   2.926   8.902  0.00  0.00    +0.000 F 
ATOM     12  F   UNL     1      46.031   5.004   8.530  0.00  0.00    +0.000 F 
ENDBRANCH   3  10
ENDBRANCH   1   7
BRANCH   2  13
ATOM     13  C   UNL     1      47.604   3.940  15.920  0.00  0.00    +0.000 A 
ATOM     14  C   UNL     1      47.772   4.822  16.963  0.00  0.00    +0.000 A 
ATOM     15  C   UNL     1      48.687   4.480  17.941  0.00  0.00    +0.000 A 
ATOM     16  N   UNL     1      49.341   3.307  17.871  0.00  0.00    +0.000 NA
ATOM     17  C   UNL     1      49.095   2.515  16.812  0.00  0.00    +0.000 A 
ATOM     18  N   UNL     1      48.252   2.774  15.809  0.00  0.00    +0.000 NA
BRANCH  15  19
ATOM     19  N   UNL     1      48.920   5.315  19.015  0.00  0.00    +0.000 N 
ATOM     20  C   UNL     1      49.920   5.016  20.047  0.00  0.00    +0.000 C 
ATOM     21  C   UNL     1      49.254   4.847  21.426  0.00  0.00    +0.000 C 
ATOM     22  O   UNL     1      48.408   5.958  21.755  0.00  0.00    +0.000 OA
ATOM     23  C   UNL     1      47.363   6.087  20.775  0.00  0.00    +0.000 C 
ATOM     24  C   UNL     1      47.940   6.346  19.378  0.00  0.00    +0.000 C 
ENDBRANCH  15  19
ENDBRANCH   2  13
TORSDOF 4
ENDMDL
MODEL 2
REMARK VINA RESULT:    -6.619      0.724      0.952
REMARK INTER + INTRA:          -8.668
REMARK INTER:                  -8.171
REMARK INTRA:                  -0.496
REMARK UNBOUND:                -0.501
REMARK  Name = 
REMARK  4 active torsions:
REMARK  status: ('A' for Active; 'I' for Inactive)
REMARK    1  A    between atoms: C_2  and  C_5
REMARK    2  A    between atoms: C_9  and  C_10
REMARK    3  A    between atoms: C_11  and  C_12
REMARK    4  A    between atoms: C_14  and  N_15
REMARK                            x       y       z     vdW  Elec       q    Type
REMARK                         _______ _______ _______ _____ _____    ______ ____
ROOT
ATOM      1  C   UNL     1      46.133   4.284  13.835  0.00  0.00    +0.000 C 
ATOM      2  C   UNL     1      46.870   4.068  14.761  0.00  0.00    +0.000 C 
ENDROOT
BRANCH   1   7
ATOM      3  C   UNL     1      44.477   4.193  10.488  0.00  0.00    +0.000 A 
ATOM      4  C   UNL     1      43.435   5.072  10.756  0.00  0.00    +0.000 A 
ATOM      5  N   UNL     1      43.249   5.678  11.949  0.00  0.00    +0.000 NA
ATOM      6  C   UNL     1      44.146   5.401  12.926  0.00  0.00    +0.000 A 
ATOM      7  C   UNL     1      45.224   4.543  12.764  0.00  0.00    +0.000 A 
ATOM      8  C   UNL     1      45.384   3.926  11.523  0.00  0.00    +0.000 A 
BRANCH   3  10
ATOM      9  F   UNL     1      44.038   4.272   8.135  0.00  0.00    +0.000 F 
ATOM     10  C   UNL     1      44.618   3.560   9.140  0.00  0.00    +0.000 C 
ATOM     11  F   UNL     1      44.061   2.318   9.088  0.00  0.00    +0.000 F 
ATOM     12  F   UNL     1      45.921   3.398   8.778  0.00  0.00    +0.000 F 
ENDBRANCH   3  10
ENDBRANCH   1   7
BRANCH   2  13
ATOM     13  C   UNL     1      47.690   3.810  15.903  0.00  0.00    +0.000 A 
ATOM     14  C   UNL     1      47.793   4.736  16.916  0.00  0.00    +0.000 A 
ATOM     15  C   UNL     1      48.670   4.453  17.946  0.00  0.00    +0.000 A 
ATOM     16  N   UNL     1      49.351   3.293  17.952  0.00  0.00    +0.000 NA
ATOM     17  C   UNL     1      49.167   2.455  16.917  0.00  0.00    +0.000 A 
ATOM     18  N   UNL     1      48.365   2.655  15.868  0.00  0.00    +0.000 NA
BRANCH  15  19
ATOM     19  N   UNL     1      48.838   5.335  18.994  0.00  0.00    +0.000 N 
ATOM     20  C   UNL     1      48.575   4.964  20.390  0.00  0.00    +0.000 C 
ATOM     21  C   UNL     1      47.440   5.819  20.983  0.00  0.00    +0.000 C 
ATOM     22  O   UNL     1      47.671   7.223  20.798  0.00  0.00    +0.000 OA
ATOM     23  C   UNL     1      47.763   7.526  19.396  0.00  0.00    +0.000 C 
ATOM     24  C   UNL     1      48.931   6.778  18.742  0.00  0.00    +0.000 C 
ENDBRANCH  15  19
ENDBRANCH   2  13
TORSDOF 4
ENDMDL
MODEL 3
REMARK VINA RESULT:    -6.384      2.113      2.670
REMARK INTER + INTRA:          -8.378
REMARK INTER:                  -7.895
REMARK INTRA:                  -0.483
REMARK UNBOUND:                -0.501
REMARK  Name = 
REMARK  4 active torsions:
REMARK  status: ('A' for Active; 'I' for Inactive)
REMARK    1  A    between atoms: C_2  and  C_5
REMARK    2  A    between atoms: C_9  and  C_10
REMARK    3  A    between atoms: C_11  and  C_12
REMARK    4  A    between atoms: C_14  and  N_15
REMARK                            x       y       z     vdW  Elec       q    Type
REMARK                         _______ _______ _______ _____ _____    ______ ____
ROOT
ATOM      1  C   UNL     1      45.972   4.693  13.901  0.00  0.00    +0.000 C 
ATOM      2  C   UNL     1      46.687   4.584  14.862  0.00  0.00    +0.000 C 
ENDROOT
BRANCH   1   7
ATOM      3  C   UNL     1      44.657   4.540  10.408  0.00  0.00    +0.000 A 
ATOM      4  C   UNL     1      43.365   4.983  10.661  0.00  0.00    +0.000 A 
ATOM      5  N   UNL     1      42.911   5.321  11.887  0.00  0.00    +0.000 NA
ATOM      6  C   UNL     1      43.786   5.217  12.917  0.00  0.00    +0.000 A 
ATOM      7  C   UNL     1      45.098   4.790  12.775  0.00  0.00    +0.000 A 
ATOM      8  C   UNL     1      45.535   4.441  11.497  0.00  0.00    +0.000 A 
BRANCH   3  10
ATOM      9  F   UNL     1      46.064   4.993   8.524  0.00  0.00    +0.000 F 
ATOM     10  C   UNL     1      45.088   4.184   9.020  0.00  0.00    +0.000 C 
ATOM     11  F   UNL     1      44.062   4.245   8.126  0.00  0.00    +0.000 F 
ATOM     12  F   UNL     1      45.578   2.917   8.938  0.00  0.00    +0.000 F 
ENDBRANCH   3  10
ENDBRANCH   1   7
BRANCH   2  13
ATOM     13  C   UNL     1      47.499   4.399  16.024  0.00  0.00    +0.000 A 
ATOM     14  C   UNL     1      48.506   5.287  16.325  0.00  0.00    +0.000 A 
ATOM     15  C   UNL     1      49.304   4.997  17.416  0.00  0.00    +0.000 A 
ATOM     16  N   UNL     1      49.055   3.903  18.159  0.00  0.00    +0.000 NA
ATOM     17  C   UNL     1      48.039   3.107  17.781  0.00  0.00    +0.000 A 
ATOM     18  N   UNL     1      47.236   3.293  16.730  0.00  0.00    +0.000 NA
BRANCH  15  19
ATOM     19  N   UNL     1      50.340   5.832  17.777  0.00  0.00    +0.000 N 
ATOM     20  C   UNL     1      50.151   7.268  18.019  0.00  0.00    +0.000 C 
ATOM     21  C   UNL     1      50.967   8.107  17.018  0.00  0.00    +0.000 C 
ATOM     22  O   UNL     1      52.345   7.710  16.979  0.00  0.00    +0.000 OA
ATOM     23  C   UNL     1      52.449   6.331  16.584  0.00  0.00    +0.000 C 
ATOM     24  C   UNL     1      51.733   5.413  17.582  0.00  0.00    +0.000 C 
ENDBRANCH  15  19
ENDBRANCH   2  13
TORSDOF 4
ENDMDL
MODEL 4
REMARK VINA RESULT:    -6.376      5.042      9.358
REMARK INTER + INTRA:          -8.369
REMARK INTER:                  -7.874
REMARK INTRA:                  -0.495
REMARK UNBOUND:                -0.501
REMARK  Name = 
REMARK  4 active torsions:
REMARK  status: ('A' for Active; 'I' for Inactive)
REMARK    1  A    between atoms: C_2  and  C_5
REMARK    2  A    between atoms: C_9  and  C_10
REMARK    3  A    between atoms: C_11  and  C_12
REMARK    4  A    between atoms: C_14  and  N_15
REMARK                            x       y       z     vdW  Elec       q    Type
REMARK                         _______ _______ _______ _____ _____    ______ ____
ROOT
ATOM      1  C   UNL     1      46.598   4.494  14.705  0.00  0.00    +0.000 C 
ATOM      2  C   UNL     1      45.797   4.573  13.811  0.00  0.00    +0.000 C 
ENDROOT
BRANCH   1   7
ATOM      3  C   UNL     1      49.378   5.386  17.035  0.00  0.00    +0.000 A 
ATOM      4  C   UNL     1      49.438   4.192  17.742  0.00  0.00    +0.000 A 
ATOM      5  N   UNL     1      48.633   3.134  17.503  0.00  0.00    +0.000 NA
ATOM      6  C   UNL     1      47.723   3.266  16.507  0.00  0.00    +0.000 A 
ATOM      7  C   UNL     1      47.582   4.411  15.738  0.00  0.00    +0.000 A 
ATOM      8  C   UNL     1      48.423   5.489  16.014  0.00  0.00    +0.000 A 
BRANCH   3  10
ATOM      9  F   UNL     1      51.061   6.305  18.470  0.00  0.00    +0.000 F 
ATOM     10  C   UNL     1      50.305   6.515  17.357  0.00  0.00    +0.000 C 
ATOM     11  F   UNL     1      49.644   7.686  17.570  0.00  0.00    +0.000 F 
ATOM     12  F   UNL     1      51.187   6.765  16.350  0.00  0.00    +0.000 F 
ENDBRANCH   3  10
ENDBRANCH   1   7
BRANCH   2  13
ATOM     13  C   UNL     1      44.897   4.680  12.706  0.00  0.00    +0.000 A 
ATOM     14  C   UNL     1      45.131   3.985  11.541  0.00  0.00    +0.000 A 
ATOM     15  C   UNL     1      44.265   4.204  10.487  0.00  0.00    +0.000 A 
ATOM     16  N   UNL     1      43.220   5.037  10.636  0.00  0.00    +0.000 NA
ATOM     17  C   UNL     1      43.079   5.659  11.820  0.00  0.00    +0.000 A 
ATOM     18  N   UNL     1      43.879   5.530  12.883  0.00  0.00    +0.000 NA
BRANCH  15  19
ATOM     19  N   UNL     1      44.437   3.553   9.283  0.00  0.00    +0.000 N 
ATOM     20  C   UNL     1      44.482   2.090   9.174  0.00  0.00    +0.000 C 
ATOM     21  C   UNL     1      45.848   1.619   8.640  0.00  0.00    +0.000 C 
ATOM     22  O   UNL     1      46.215   2.294   7.428  0.00  0.00    +0.000 OA
ATOM     23  C   UNL     1      46.298   3.710   7.660  0.00  0.00    +0.000 C 
ATOM     24  C   UNL     1      44.948   4.279   8.114  0.00  0.00    +0.000 C 
ENDBRANCH  15  19
ENDBRANCH   2  13
TORSDOF 4
ENDMDL
MODEL 5
REMARK VINA RESULT:    -6.002      6.113      8.026
REMARK INTER + INTRA:          -7.907
REMARK INTER:                  -7.414
REMARK INTRA:                  -0.493
REMARK UNBOUND:                -0.501
REMARK  Name = 
REMARK  4 active torsions:
REMARK  status: ('A' for Active; 'I' for Inactive)
REMARK    1  A    between atoms: C_2  and  C_5
REMARK    2  A    between atoms: C_9  and  C_10
REMARK    3  A    between atoms: C_11  and  C_12
REMARK    4  A    between atoms: C_14  and  N_15
REMARK                            x       y       z     vdW  Elec       q    Type
REMARK                         _______ _______ _______ _____ _____    ______ ____
ROOT
ATOM      1  C   UNL     1      49.446   7.466  12.125  0.00  0.00    +0.000 C 
ATOM      2  C   UNL     1      48.662   6.744  12.683  0.00  0.00    +0.000 C 
ENDROOT
BRANCH   1   7
ATOM      3  C   UNL     1      52.348   8.548  10.036  0.00  0.00    +0.000 A 
ATOM      4  C   UNL     1      52.190   9.922  10.171  0.00  0.00    +0.000 A 
ATOM      5  N   UNL     1      51.205  10.500  10.892  0.00  0.00    +0.000 NA
ATOM      6  C   UNL     1      50.332   9.672  11.516  0.00  0.00    +0.000 A 
ATOM      7  C   UNL     1      50.401   8.288  11.451  0.00  0.00    +0.000 A 
ATOM      8  C   UNL     1      51.425   7.721  10.692  0.00  0.00    +0.000 A 
BRANCH   3  10
ATOM      9  F   UNL     1      53.251   6.701   8.809  0.00  0.00    +0.000 F 
ATOM     10  C   UNL     1      53.466   7.981   9.220  0.00  0.00    +0.000 C 
ATOM     11  F   UNL     1      54.646   7.962   9.899  0.00  0.00    +0.000 F 
ATOM     12  F   UNL     1      53.699   8.702   8.089  0.00  0.00    +0.000 F 
ENDBRANCH   3  10
ENDBRANCH   1   7
BRANCH   2  13
ATOM     13  C   UNL     1      47.772   5.832  13.329  0.00  0.00    +0.000 A 
ATOM     14  C   UNL     1      46.592   5.458  12.728  0.00  0.00    +0.000 A 
ATOM     15  C   UNL     1      45.743   4.640  13.450  0.00  0.00    +0.000 A 
ATOM     16  N   UNL     1      46.102   4.210  14.673  0.00  0.00    +0.000 NA
ATOM     17  C   UNL     1      47.283   4.628  15.162  0.00  0.00    +0.000 A 
ATOM     18  N   UNL     1      48.152   5.437  14.550  0.00  0.00    +0.000 NA
BRANCH  15  19
ATOM     19  N   UNL     1      44.537   4.229  12.921  0.00  0.00    +0.000 N 
ATOM     20  C   UNL     1      44.438   3.184  11.895  0.00  0.00    +0.000 C 
ATOM     21  C   UNL     1      43.835   3.746  10.594  0.00  0.00    +0.000 C 
ATOM     22  O   UNL     1      42.599   4.438  10.827  0.00  0.00    +0.000 OA
ATOM     23  C   UNL     1      42.815   5.540  11.724  0.00  0.00    +0.000 C 
ATOM     24  C   UNL     1      43.336   5.058  13.083  0.00  0.00    +0.000 C 
ENDBRANCH  15  19
ENDBRANCH   2  13
TORSDOF 4
ENDMDL
MODEL 6
REMARK VINA RESULT:    -5.951      1.822      2.341
REMARK INTER + INTRA:          -7.843
REMARK INTER:                  -7.358
REMARK INTRA:                  -0.486
REMARK UNBOUND:                -0.501
REMARK  Name = 
REMARK  4 active torsions:
REMARK  status: ('A' for Active; 'I' for Inactive)
REMARK    1  A    between atoms: C_2  and  C_5
REMARK    2  A    between atoms: C_9  and  C_10
REMARK    3  A    between atoms: C_11  and  C_12
REMARK    4  A    between atoms: C_14  and  N_15
REMARK                            x       y       z     vdW  Elec       q    Type
REMARK                         _______ _______ _______ _____ _____    ______ ____
ROOT
ATOM      1  C   UNL     1      47.092   4.932  14.487  0.00  0.00    +0.000 C 
ATOM      2  C   UNL     1      47.624   4.765  15.554  0.00  0.00    +0.000 C 
ENDROOT
BRANCH   1   7
ATOM      3  C   UNL     1      44.699   4.491  11.654  0.00  0.00    +0.000 A 
ATOM      4  C   UNL     1      45.193   5.484  10.818  0.00  0.00    +0.000 A 
ATOM      5  N   UNL     1      46.244   6.274  11.127  0.00  0.00    +0.000 NA
ATOM      6  C   UNL     1      46.839   6.066  12.326  0.00  0.00    +0.000 A 
ATOM      7  C   UNL     1      46.429   5.100  13.233  0.00  0.00    +0.000 A 
ATOM      8  C   UNL     1      45.336   4.305  12.889  0.00  0.00    +0.000 A 
BRANCH   3  10
ATOM      9  F   UNL     1      42.365   4.351  11.133  0.00  0.00    +0.000 F 
ATOM     10  C   UNL     1      43.529   3.654  11.242  0.00  0.00    +0.000 C 
ATOM     11  F   UNL     1      43.279   2.643  12.120  0.00  0.00    +0.000 F 
ATOM     12  F   UNL     1      43.720   3.056  10.033  0.00  0.00    +0.000 F 
ENDBRANCH   3  10
ENDBRANCH   1   7
BRANCH   2  13
ATOM     13  C   UNL     1      48.210   4.517  16.833  0.00  0.00    +0.000 A 
ATOM     14  C   UNL     1      47.817   5.239  17.937  0.00  0.00    +0.000 A 
ATOM     15  C   UNL     1      48.488   5.002  19.122  0.00  0.00    +0.000 A 
ATOM     16  N   UNL     1      49.453   4.067  19.173  0.00  0.00    +0.000 NA
ATOM     17  C   UNL     1      49.751   3.412  18.038  0.00  0.00    +0.000 A 
ATOM     18  N   UNL     1      49.178   3.593  16.845  0.00  0.00    +0.000 NA
BRANCH  15  19
ATOM     19  N   UNL     1      48.160   5.693  20.271  0.00  0.00    +0.000 N 
ATOM     20  C   UNL     1      47.633   7.063  20.247  0.00  0.00    +0.000 C 
ATOM     21  C   UNL     1      48.589   8.032  20.968  0.00  0.00    +0.000 C 
ATOM     22  O   UNL     1      48.930   7.573  22.284  0.00  0.00    +0.000 OA
ATOM     23  C   UNL     1      49.580   6.293  22.205  0.00  0.00    +0.000 C 
ATOM     24  C   UNL     1      48.660   5.241  21.575  0.00  0.00    +0.000 C 
ENDBRANCH  15  19
ENDBRANCH   2  13
TORSDOF 4
ENDMDL
MODEL 7
REMARK VINA RESULT:    -5.863      5.655      9.370
REMARK INTER + INTRA:          -7.736
REMARK INTER:                  -7.225
REMARK INTRA:                  -0.511
REMARK UNBOUND:                -0.501
REMARK  Name = 
REMARK  4 active torsions:
REMARK  status: ('A' for Active; 'I' for Inactive)
REMARK    1  A    between atoms: C_2  and  C_5
REMARK    2  A    between atoms: C_9  and  C_10
REMARK    3  A    between atoms: C_11  and  C_12
REMARK    4  A    between atoms: C_14  and  N_15
REMARK                            x       y       z     vdW  Elec       q    Type
REMARK                         _______ _______ _______ _____ _____    ______ ____
ROOT
ATOM      1  C   UNL     1      48.441   5.752  16.291  0.00  0.00    +0.000 C 
ATOM      2  C   UNL     1      48.036   5.904  15.168  0.00  0.00    +0.000 C 
ENDROOT
BRANCH   1   7
ATOM      3  C   UNL     1      48.593   5.900  20.020  0.00  0.00    +0.000 A 
ATOM      4  C   UNL     1      49.764   5.176  20.202  0.00  0.00    +0.000 A 
ATOM      5  N   UNL     1      50.490   4.652  19.190  0.00  0.00    +0.000 NA
ATOM      6  C   UNL     1      50.032   4.861  17.932  0.00  0.00    +0.000 A 
ATOM      7  C   UNL     1      48.878   5.572  17.639  0.00  0.00    +0.000 A 
ATOM      8  C   UNL     1      48.146   6.094  18.706  0.00  0.00    +0.000 A 
BRANCH   3  10
ATOM      9  F   UNL     1      48.626   6.704  22.276  0.00  0.00    +0.000 F 
ATOM     10  C   UNL     1      47.843   6.452  21.191  0.00  0.00    +0.000 C 
ATOM     11  F   UNL     1      46.865   5.609  21.625  0.00  0.00    +0.000 F 
ATOM     12  F   UNL     1      47.219   7.627  20.901  0.00  0.00    +0.000 F 
ENDBRANCH   3  10
ENDBRANCH   1   7
BRANCH   2  13
ATOM     13  C   UNL     1      47.492   6.089  13.860  0.00  0.00    +0.000 A 
ATOM     14  C   UNL     1      46.306   5.490  13.502  0.00  0.00    +0.000 A 
ATOM     15  C   UNL     1      45.886   5.645  12.194  0.00  0.00    +0.000 A 
ATOM     16  N   UNL     1      46.608   6.393  11.340  0.00  0.00    +0.000 NA
ATOM     17  C   UNL     1      47.747   6.943  11.797  0.00  0.00    +0.000 A 
ATOM     18  N   UNL     1      48.243   6.824  13.031  0.00  0.00    +0.000 NA
BRANCH  15  19
ATOM     19  N   UNL     1      44.713   5.068  11.754  0.00  0.00    +0.000 N 
ATOM     20  C   UNL     1      43.746   4.447  12.667  0.00  0.00    +0.000 C 
ATOM     21  C   UNL     1      43.589   2.945  12.366  0.00  0.00    +0.000 C 
ATOM     22  O   UNL     1      43.306   2.700  10.981  0.00  0.00    +0.000 OA
ATOM     23  C   UNL     1      44.377   3.202  10.164  0.00  0.00    +0.000 C 
ATOM     24  C   UNL     1      44.545   4.717  10.339  0.00  0.00    +0.000 C 
ENDBRANCH  15  19
ENDBRANCH   2  13
TORSDOF 4
ENDMDL
MODEL 8
REMARK VINA RESULT:    -5.812      6.287      8.587
REMARK INTER + INTRA:          -7.672
REMARK INTER:                  -7.166
REMARK INTRA:                  -0.507
REMARK UNBOUND:                -0.501
REMARK  Name = 
REMARK  4 active torsions:
REMARK  status: ('A' for Active; 'I' for Inactive)
REMARK    1  A    between atoms: C_2  and  C_5
REMARK    2  A    between atoms: C_9  and  C_10
REMARK    3  A    between atoms: C_11  and  C_12
REMARK    4  A    between atoms: C_14  and  N_15
REMARK                            x       y       z     vdW  Elec       q    Type
REMARK                         _______ _______ _______ _____ _____    ______ ____
ROOT
ATOM      1  C   UNL     1      42.220  10.236  10.763  0.00  0.00    +0.000 C 
ATOM      2  C   UNL     1      43.310   9.809  11.044  0.00  0.00    +0.000 C 
ENDROOT
BRANCH   1   7
ATOM      3  C   UNL     1      38.517  10.716  10.809  0.00  0.00    +0.000 A 
ATOM      4  C   UNL     1      38.435  11.740   9.874  0.00  0.00    +0.000 A 
ATOM      5  N   UNL     1      39.506  12.271   9.245  0.00  0.00    +0.000 NA
ATOM      6  C   UNL     1      40.721  11.756   9.555  0.00  0.00    +0.000 A 
ATOM      7  C   UNL     1      40.913  10.732  10.470  0.00  0.00    +0.000 A 
ATOM      8  C   UNL     1      39.789  10.210  11.110  0.00  0.00    +0.000 A 
BRANCH   3  10
ATOM      9  F   UNL     1      37.411   8.895  11.904  0.00  0.00    +0.000 F 
ATOM     10  C   UNL     1      37.285  10.178  11.465  0.00  0.00    +0.000 C 
ATOM     11  F   UNL     1      36.208  10.183  10.632  0.00  0.00    +0.000 F 
ATOM     12  F   UNL     1      36.915  10.909  12.553  0.00  0.00    +0.000 F 
ENDBRANCH   3  10
ENDBRANCH   1   7
BRANCH   2  13
ATOM     13  C   UNL     1      44.578   9.282  11.440  0.00  0.00    +0.000 A 
ATOM     14  C   UNL     1      44.785   7.923  11.499  0.00  0.00    +0.000 A 
ATOM     15  C   UNL     1      46.009   7.488  11.972  0.00  0.00    +0.000 A 
ATOM     16  N   UNL     1      46.955   8.382  12.313  0.00  0.00    +0.000 NA
ATOM     17  C   UNL     1      46.650   9.687  12.207  0.00  0.00    +0.000 A 
ATOM     18  N   UNL     1      45.489  10.198  11.789  0.00  0.00    +0.000 NA
BRANCH  15  19
ATOM     19  N   UNL     1      46.292   6.142  12.071  0.00  0.00    +0.000 N 
ATOM     20  C   UNL     1      45.433   5.108  11.481  0.00  0.00    +0.000 C 
ATOM     21  C   UNL     1      44.852   4.187  12.571  0.00  0.00    +0.000 C 
ATOM     22  O   UNL     1      45.872   3.660  13.431  0.00  0.00    +0.000 OA
ATOM     23  C   UNL     1      46.565   4.735  14.088  0.00  0.00    +0.000 C 
ATOM     24  C   UNL     1      47.250   5.657  13.072  0.00  0.00    +0.000 C 
ENDBRANCH  15  19
ENDBRANCH   2  13
TORSDOF 4
ENDMDL
MODEL 9
REMARK VINA RESULT:    -5.708      2.086      2.424
REMARK INTER + INTRA:          -7.544
REMARK INTER:                  -7.056
REMARK INTRA:                  -0.488
REMARK UNBOUND:                -0.501
REMARK  Name = 
REMARK  4 active torsions:
REMARK  status: ('A' for Active; 'I' for Inactive)
REMARK    1  A    between atoms: C_2  and  C_5
REMARK    2  A    between atoms: C_9  and  C_10
REMARK    3  A    between atoms: C_11  and  C_12
REMARK    4  A    between atoms: C_14  and  N_15
REMARK                            x       y       z     vdW  Elec       q    Type
REMARK                         _______ _______ _______ _____ _____    ______ ____
ROOT
ATOM      1  C   UNL     1      46.396   4.976  13.260  0.00  0.00    +0.000 C 
ATOM      2  C   UNL     1      47.288   5.467  13.901  0.00  0.00    +0.000 C 
ENDROOT
BRANCH   1   7
ATOM      3  C   UNL     1      44.545   3.200  10.544  0.00  0.00    +0.000 A 
ATOM      4  C   UNL     1      43.255   3.393  11.021  0.00  0.00    +0.000 A 
ATOM      5  N   UNL     1      42.965   4.058  12.161  0.00  0.00    +0.000 NA
ATOM      6  C   UNL     1      44.010   4.561  12.863  0.00  0.00    +0.000 A 
ATOM      7  C   UNL     1      45.335   4.429  12.474  0.00  0.00    +0.000 A 
ATOM      8  C   UNL     1      45.602   3.731  11.296  0.00  0.00    +0.000 A 
BRANCH   3  10
ATOM      9  F   UNL     1      44.165   1.244   9.216  0.00  0.00    +0.000 F 
ATOM     10  C   UNL     1      44.788   2.454   9.271  0.00  0.00    +0.000 C 
ATOM     11  F   UNL     1      46.109   2.203   9.059  0.00  0.00    +0.000 F 
ATOM     12  F   UNL     1      44.360   3.142   8.177  0.00  0.00    +0.000 F 
ENDBRANCH   3  10
ENDBRANCH   1   7
BRANCH   2  13
ATOM     13  C   UNL     1      48.339   6.109  14.625  0.00  0.00    +0.000 A 
ATOM     14  C   UNL     1      48.422   5.991  15.993  0.00  0.00    +0.000 A 
ATOM     15  C   UNL     1      49.415   6.709  16.633  0.00  0.00    +0.000 A 
ATOM     16  N   UNL     1      50.277   7.452  15.915  0.00  0.00    +0.000 NA
ATOM     17  C   UNL     1      50.112   7.489  14.582  0.00  0.00    +0.000 A 
ATOM     18  N   UNL     1      49.168   6.853  13.882  0.00  0.00    +0.000 NA
BRANCH  15  19
ATOM     19  N   UNL     1      49.558   6.652  18.004  0.00  0.00    +0.000 N 
ATOM     20  C   UNL     1      50.749   6.091  18.652  0.00  0.00    +0.000 C 
ATOM     21  C   UNL     1      50.384   4.860  19.503  0.00  0.00    +0.000 C 
ATOM     22  O   UNL     1      49.312   5.135  20.417  0.00  0.00    +0.000 OA
ATOM     23  C   UNL     1      48.137   5.531  19.690  0.00  0.00    +0.000 C 
ATOM     24  C   UNL     1      48.389   6.807  18.878  0.00  0.00    +0.000 C 
ENDBRANCH  15  19
ENDBRANCH   2  13
TORSDOF 4
ENDMDL
