MODEL 1
REMARK VINA RESULT:    -7.321      0.000      0.000
REMARK INTER + INTRA:          -9.930
REMARK INTER:                  -9.033
REMARK INTRA:                  -0.897
REMARK UNBOUND:                -0.897
REMARK  Name = 
REMARK  4 active torsions:
REMARK  status: ('A' for Active; 'I' for Inactive)
REMARK    1  A    between atoms: C_4  and  C_5
REMARK    2  A    between atoms: C_9  and  C_10
REMARK    3  A    between atoms: C_10  and  C_11
REMARK    4  A    between atoms: C_11  and  C_12
REMARK                            x       y       z     vdW  Elec       q    Type
REMARK                         _______ _______ _______ _____ _____    ______ ____
ROOT
ATOM      1  C   UNL     1      45.054   3.088   9.704  0.00  0.00    +0.000 A 
ATOM      2  C   UNL     1      43.974   2.411  10.254  0.00  0.00    +0.000 A 
ATOM      3  C   UNL     1      43.371   2.924  11.395  0.00  0.00    +0.000 A 
ATOM      4  C   UNL     1      43.858   4.105  11.950  0.00  0.00    +0.000 A 
ATOM      5  C   UNL     1      44.956   4.738  11.371  0.00  0.00    +0.000 A 
ATOM      6  N   UNL     1      45.547   4.216  10.268  0.00  0.00    +0.000 NA
ENDROOT
BRANCH   1  10
ATOM      7  C   UNL     1      47.121   1.920   6.118  0.00  0.00    +0.000 A 
ATOM      8  C   UNL     1      46.635   3.219   6.247  0.00  0.00    +0.000 A 
ATOM      9  C   UNL     1      45.944   3.600   7.399  0.00  0.00    +0.000 A 
ATOM     10  C   UNL     1      45.724   2.689   8.450  0.00  0.00    +0.000 A 
ATOM     11  C   UNL     1      46.227   1.384   8.292  0.00  0.00    +0.000 A 
ATOM     12  C   UNL     1      46.917   1.001   7.142  0.00  0.00    +0.000 A 
ENDBRANCH   1  10
BRANCH   5  13
ATOM     13  C   UNL     1      45.502   6.067  11.894  0.00  0.00    +0.000 C 
ATOM     14  C   UNL     1      44.546   6.871  12.772  0.00  0.00    +0.000 C 
ATOM     15  C   UNL     1      44.871   7.367  11.399  0.00  0.00    +0.000 C 
BRANCH  13  16
ATOM     16  C   UNL     1      46.984   6.102  12.240  0.00  0.00    +0.000 C 
BRANCH  16  17
ATOM     17  C   UNL     1      47.321   5.719  13.661  0.00  0.00    +0.000 A 
ATOM     18  C   UNL     1      46.841   4.571  14.298  0.00  0.00    +0.000 A 
ATOM     19  C   UNL     1      47.259   4.262  15.590  0.00  0.00    +0.000 A 
ATOM     20  C   UNL     1      48.163   5.107  16.209  0.00  0.00    +0.000 A 
ATOM     21  N   UNL     1      48.663   6.219  15.632  0.00  0.00    +0.000 NA
ATOM     22  C   UNL     1      48.234   6.492  14.378  0.00  0.00    +0.000 A 
ENDBRANCH  16  17
ENDBRANCH  13  16
ENDBRANCH   5  13
TORSDOF 4
ENDMDL
MODEL 2
REMARK VINA RESULT:    -7.250      2.070      6.316
REMARK INTER + INTRA:          -9.843
REMARK INTER:                  -9.163
REMARK INTRA:                  -0.680
REMARK UNBOUND:                -0.897
REMARK  Name = 
REMARK  4 active torsions:
REMARK  status: ('A' for Active; 'I' for Inactive)
REMARK    1  A    between atoms: C_4  and  C_5
REMARK    2  A    between atoms: C_9  and  C_10
REMARK    3  A    between atoms: C_10  and  C_11
REMARK    4  A    between atoms: C_11  and  C_12
REMARK                            x       y       z     vdW  Elec       q    Type
REMARK                         _______ _______ _______ _____ _____    ______ ____
ROOT
ATOM      1  C   UNL     1      46.940   6.274  12.583  0.00  0.00    +0.000 A 
ATOM      2  C   UNL     1      47.548   5.351  13.421  0.00  0.00    +0.000 A 
ATOM      3  C   UNL     1      46.922   4.131  13.643  0.00  0.00    +0.000 A 
ATOM      4  C   UNL     1      45.710   3.865  13.013  0.00  0.00    +0.000 A 
ATOM      5  C   UNL     1      45.131   4.831  12.194  0.00  0.00    +0.000 A 
ATOM      6  N   UNL     1      45.743   6.025  12.001  0.00  0.00    +0.000 NA
ENDROOT
BRANCH   1  10
ATOM      7  C   UNL     1      48.776  10.035  11.594  0.00  0.00    +0.000 A 
ATOM      8  C   UNL     1      47.437   9.996  11.974  0.00  0.00    +0.000 A 
ATOM      9  C   UNL     1      46.828   8.776  12.276  0.00  0.00    +0.000 A 
ATOM     10  C   UNL     1      47.545   7.567  12.205  0.00  0.00    +0.000 A 
ATOM     11  C   UNL     1      48.897   7.638  11.818  0.00  0.00    +0.000 A 
ATOM     12  C   UNL     1      49.508   8.855  11.515  0.00  0.00    +0.000 A 
ENDBRANCH   1  10
BRANCH   5  13
ATOM     13  C   UNL     1      43.832   4.580  11.426  0.00  0.00    +0.000 C 
ATOM     14  C   UNL     1      43.136   5.827  10.885  0.00  0.00    +0.000 C 
ATOM     15  C   UNL     1      42.517   5.079  12.023  0.00  0.00    +0.000 C 
BRANCH  13  16
ATOM     16  C   UNL     1      43.776   3.313  10.585  0.00  0.00    +0.000 C 
BRANCH  16  17
ATOM     17  C   UNL     1      44.802   3.230   9.480  0.00  0.00    +0.000 A 
ATOM     18  C   UNL     1      45.382   2.037   9.037  0.00  0.00    +0.000 A 
ATOM     19  C   UNL     1      46.270   2.049   7.964  0.00  0.00    +0.000 A 
ATOM     20  C   UNL     1      46.546   3.259   7.351  0.00  0.00    +0.000 A 
ATOM     21  N   UNL     1      46.003   4.432   7.735  0.00  0.00    +0.000 NA
ATOM     22  C   UNL     1      45.146   4.387   8.781  0.00  0.00    +0.000 A 
ENDBRANCH  16  17
ENDBRANCH  13  16
ENDBRANCH   5  13
TORSDOF 4
ENDMDL
MODEL 3
REMARK VINA RESULT:    -7.249      1.047      1.257
REMARK INTER + INTRA:          -9.840
REMARK INTER:                  -8.934
REMARK INTRA:                  -0.907
REMARK UNBOUND:                -0.897
REMARK  Name = 
REMARK  4 active torsions:
REMARK  status: ('A' for Active; 'I' for Inactive)
REMARK    1  A    between atoms: C_4  and  C_5
REMARK    2  A    between atoms: C_9  and  C_10
REMARK    3  A    between atoms: C_10  and  C_11
REMARK    4  A    between atoms: C_11  and  C_12
REMARK                            x       y       z     vdW  Elec       q    Type
REMARK                         _______ _______ _______ _____ _____    ______ ____
ROOT
ATOM      1  C   UNL     1      44.867   4.433   9.962  0.00  0.00    +0.000 A 
ATOM      2  C   UNL     1      43.519   4.341  10.280  0.00  0.00    +0.000 A 
ATOM      3  C   UNL     1      42.992   5.208  11.228  0.00  0.00    +0.000 A 
ATOM      4  C   UNL     1      43.824   6.149  11.826  0.00  0.00    +0.000 A 
ATOM      5  C   UNL     1      45.175   6.192  11.486  0.00  0.00    +0.000 A 
ATOM      6  N   UNL     1      45.681   5.327  10.573  0.00  0.00    +0.000 NA
ENDROOT
BRANCH   1  10
ATOM      7  C   UNL     1      46.874   2.050   6.998  0.00  0.00    +0.000 A 
ATOM      8  C   UNL     1      46.877   3.438   6.890  0.00  0.00    +0.000 A 
ATOM      9  C   UNL     1      46.210   4.218   7.837  0.00  0.00    +0.000 A 
ATOM     10  C   UNL     1      45.523   3.627   8.914  0.00  0.00    +0.000 A 
ATOM     11  C   UNL     1      45.538   2.221   8.997  0.00  0.00    +0.000 A 
ATOM     12  C   UNL     1      46.203   1.439   8.053  0.00  0.00    +0.000 A 
ENDBRANCH   1  10
BRANCH   5  13
ATOM     13  C   UNL     1      46.129   7.239  12.060  0.00  0.00    +0.000 C 
ATOM     14  C   UNL     1      45.482   8.305  12.942  0.00  0.00    +0.000 C 
ATOM     15  C   UNL     1      46.000   8.687  11.592  0.00  0.00    +0.000 C 
BRANCH  13  16
ATOM     16  C   UNL     1      47.522   6.754  12.438  0.00  0.00    +0.000 C 
BRANCH  16  17
ATOM     17  C   UNL     1      47.621   6.069  13.779  0.00  0.00    +0.000 A 
ATOM     18  C   UNL     1      46.921   4.907  14.121  0.00  0.00    +0.000 A 
ATOM     19  C   UNL     1      47.126   4.306  15.360  0.00  0.00    +0.000 A 
ATOM     20  C   UNL     1      48.042   4.878  16.225  0.00  0.00    +0.000 A 
ATOM     21  N   UNL     1      48.750   5.989  15.937  0.00  0.00    +0.000 NA
ATOM     22  C   UNL     1      48.525   6.550  14.726  0.00  0.00    +0.000 A 
ENDBRANCH  16  17
ENDBRANCH  13  16
ENDBRANCH   5  13
TORSDOF 4
ENDMDL
MODEL 4
REMARK VINA RESULT:    -7.039      2.440      4.245
REMARK INTER + INTRA:          -9.582
REMARK INTER:                  -8.618
REMARK INTRA:                  -0.964
REMARK UNBOUND:                -0.897
REMARK  Name = 
REMARK  4 active torsions:
REMARK  status: ('A' for Active; 'I' for Inactive)
REMARK    1  A    between atoms: C_4  and  C_5
REMARK    2  A    between atoms: C_9  and  C_10
REMARK    3  A    between atoms: C_10  and  C_11
REMARK    4  A    between atoms: C_11  and  C_12
REMARK                            x       y       z     vdW  Elec       q    Type
REMARK                         _______ _______ _______ _____ _____    ______ ____
ROOT
ATOM      1  C   UNL     1      44.654   4.482  10.534  0.00  0.00    +0.000 A 
ATOM      2  C   UNL     1      43.352   4.323  10.988  0.00  0.00    +0.000 A 
ATOM      3  C   UNL     1      42.893   5.140  12.013  0.00  0.00    +0.000 A 
ATOM      4  C   UNL     1      43.747   6.099  12.550  0.00  0.00    +0.000 A 
ATOM      5  C   UNL     1      45.051   6.209  12.073  0.00  0.00    +0.000 A 
ATOM      6  N   UNL     1      45.492   5.392  11.086  0.00  0.00    +0.000 NA
ENDROOT
BRANCH   1  10
ATOM      7  C   UNL     1      46.425   2.261   7.306  0.00  0.00    +0.000 A 
ATOM      8  C   UNL     1      46.440   3.653   7.280  0.00  0.00    +0.000 A 
ATOM      9  C   UNL     1      45.848   4.381   8.314  0.00  0.00    +0.000 A 
ATOM     10  C   UNL     1      45.227   3.733   9.399  0.00  0.00    +0.000 A 
ATOM     11  C   UNL     1      45.228   2.324   9.397  0.00  0.00    +0.000 A 
ATOM     12  C   UNL     1      45.819   1.595   8.365  0.00  0.00    +0.000 A 
ENDBRANCH   1  10
BRANCH   5  13
ATOM     13  C   UNL     1      46.019   7.280  12.578  0.00  0.00    +0.000 C 
ATOM     14  C   UNL     1      47.389   7.299  11.904  0.00  0.00    +0.000 C 
ATOM     15  C   UNL     1      47.278   6.840  13.323  0.00  0.00    +0.000 C 
BRANCH  13  16
ATOM     16  C   UNL     1      45.405   8.614  12.979  0.00  0.00    +0.000 C 
BRANCH  16  17
ATOM     17  C   UNL     1      45.127   9.561  11.836  0.00  0.00    +0.000 A 
ATOM     18  C   UNL     1      44.045   9.436  10.960  0.00  0.00    +0.000 A 
ATOM     19  C   UNL     1      43.829  10.397   9.975  0.00  0.00    +0.000 A 
ATOM     20  C   UNL     1      44.698  11.471   9.901  0.00  0.00    +0.000 A 
ATOM     21  N   UNL     1      45.748  11.641  10.730  0.00  0.00    +0.000 NA
ATOM     22  C   UNL     1      45.932  10.689  11.674  0.00  0.00    +0.000 A 
ENDBRANCH  16  17
ENDBRANCH  13  16
ENDBRANCH   5  13
TORSDOF 4
ENDMDL
MODEL 5
REMARK VINA RESULT:    -6.864      1.496      7.045
REMARK INTER + INTRA:          -9.366
REMARK INTER:                  -9.142
REMARK INTRA:                  -0.224
REMARK UNBOUND:                -0.897
REMARK  Name = 
REMARK  4 active torsions:
REMARK  status: ('A' for Active; 'I' for Inactive)
REMARK    1  A    between atoms: C_4  and  C_5
REMARK    2  A    between atoms: C_9  and  C_10
REMARK    3  A    between atoms: C_10  and  C_11
REMARK    4  A    between atoms: C_11  and  C_12
REMARK                            x       y       z     vdW  Elec       q    Type
REMARK                         _______ _______ _______ _____ _____    ______ ____
ROOT
ATOM      1  C   UNL     1      47.217   5.457  13.957  0.00  0.00    +0.000 A 
ATOM      2  C   UNL     1      47.835   6.480  13.251  0.00  0.00    +0.000 A 
ATOM      3  C   UNL     1      47.318   6.851  12.016  0.00  0.00    +0.000 A 
ATOM      4  C   UNL     1      46.193   6.196  11.526  0.00  0.00    +0.000 A 
ATOM      5  C   UNL     1      45.618   5.163  12.264  0.00  0.00    +0.000 A 
ATOM      6  N   UNL     1      46.144   4.797  13.458  0.00  0.00    +0.000 NA
ENDROOT
BRANCH   1  10
ATOM      7  C   UNL     1      48.271   4.246  17.946  0.00  0.00    +0.000 A 
ATOM      8  C   UNL     1      48.834   5.396  17.399  0.00  0.00    +0.000 A 
ATOM      9  C   UNL     1      48.513   5.784  16.096  0.00  0.00    +0.000 A 
ATOM     10  C   UNL     1      47.621   5.030  15.311  0.00  0.00    +0.000 A 
ATOM     11  C   UNL     1      47.067   3.873  15.892  0.00  0.00    +0.000 A 
ATOM     12  C   UNL     1      47.386   3.483  17.193  0.00  0.00    +0.000 A 
ENDBRANCH   1  10
BRANCH   5  13
ATOM     13  C   UNL     1      44.348   4.443  11.810  0.00  0.00    +0.000 C 
ATOM     14  C   UNL     1      43.202   4.433  12.820  0.00  0.00    +0.000 C 
ATOM     15  C   UNL     1      43.933   3.161  12.529  0.00  0.00    +0.000 C 
BRANCH  13  16
ATOM     16  C   UNL     1      43.993   4.557  10.335  0.00  0.00    +0.000 C 
BRANCH  16  17
ATOM     17  C   UNL     1      44.904   3.803   9.396  0.00  0.00    +0.000 A 
ATOM     18  C   UNL     1      45.039   2.411   9.384  0.00  0.00    +0.000 A 
ATOM     19  C   UNL     1      45.853   1.796   8.436  0.00  0.00    +0.000 A 
ATOM     20  C   UNL     1      46.503   2.593   7.510  0.00  0.00    +0.000 A 
ATOM     21  N   UNL     1      46.395   3.937   7.474  0.00  0.00    +0.000 NA
ATOM     22  C   UNL     1      45.599   4.504   8.410  0.00  0.00    +0.000 A 
ENDBRANCH  16  17
ENDBRANCH  13  16
ENDBRANCH   5  13
TORSDOF 4
ENDMDL
MODEL 6
REMARK VINA RESULT:    -6.183      2.010      6.613
REMARK INTER + INTRA:          -8.525
REMARK INTER:                  -8.284
REMARK INTRA:                  -0.242
REMARK UNBOUND:                -0.897
REMARK  Name = 
REMARK  4 active torsions:
REMARK  status: ('A' for Active; 'I' for Inactive)
REMARK    1  A    between atoms: C_4  and  C_5
REMARK    2  A    between atoms: C_9  and  C_10
REMARK    3  A    between atoms: C_10  and  C_11
REMARK    4  A    between atoms: C_11  and  C_12
REMARK                            x       y       z     vdW  Elec       q    Type
REMARK                         _______ _______ _______ _____ _____    ______ ____
ROOT
ATOM      1  C   UNL     1      46.731   7.463  11.990  0.00  0.00    +0.000 A 
ATOM      2  C   UNL     1      45.858   8.526  11.805  0.00  0.00    +0.000 A 
ATOM      3  C   UNL     1      44.528   8.260  11.509  0.00  0.00    +0.000 A 
ATOM      4  C   UNL     1      44.104   6.937  11.415  0.00  0.00    +0.000 A 
ATOM      5  C   UNL     1      45.022   5.904  11.592  0.00  0.00    +0.000 A 
ATOM      6  N   UNL     1      46.322   6.178  11.861  0.00  0.00    +0.000 NA
ENDROOT
BRANCH   1  10
ATOM      7  C   UNL     1      50.818   8.033  13.199  0.00  0.00    +0.000 A 
ATOM      8  C   UNL     1      50.490   8.021  11.845  0.00  0.00    +0.000 A 
ATOM      9  C   UNL     1      49.169   7.815  11.444  0.00  0.00    +0.000 A 
ATOM     10  C   UNL     1      48.144   7.616  12.388  0.00  0.00    +0.000 A 
ATOM     11  C   UNL     1      48.506   7.634  13.749  0.00  0.00    +0.000 A 
ATOM     12  C   UNL     1      49.825   7.839  14.153  0.00  0.00    +0.000 A 
ENDBRANCH   1  10
BRANCH   5  13
ATOM     13  C   UNL     1      44.610   4.431  11.562  0.00  0.00    +0.000 C 
ATOM     14  C   UNL     1      44.094   3.865  12.883  0.00  0.00    +0.000 C 
ATOM     15  C   UNL     1      45.427   3.423  12.368  0.00  0.00    +0.000 C 
BRANCH  13  16
ATOM     16  C   UNL     1      43.966   3.933  10.276  0.00  0.00    +0.000 C 
BRANCH  16  17
ATOM     17  C   UNL     1      44.932   3.472   9.211  0.00  0.00    +0.000 A 
ATOM     18  C   UNL     1      45.619   4.333   8.350  0.00  0.00    +0.000 A 
ATOM     19  C   UNL     1      46.544   3.822   7.442  0.00  0.00    +0.000 A 
ATOM     20  C   UNL     1      46.768   2.456   7.429  0.00  0.00    +0.000 A 
ATOM     21  N   UNL     1      46.139   1.588   8.248  0.00  0.00    +0.000 NA
ATOM     22  C   UNL     1      45.246   2.116   9.116  0.00  0.00    +0.000 A 
ENDBRANCH  16  17
ENDBRANCH  13  16
ENDBRANCH   5  13
TORSDOF 4
ENDMDL
MODEL 7
REMARK VINA RESULT:    -5.860      2.789      7.404
REMARK INTER + INTRA:          -8.127
REMARK INTER:                  -7.257
REMARK INTRA:                  -0.871
REMARK UNBOUND:                -0.897
REMARK  Name = 
REMARK  4 active torsions:
REMARK  status: ('A' for Active; 'I' for Inactive)
REMARK    1  A    between atoms: C_4  and  C_5
REMARK    2  A    between atoms: C_9  and  C_10
REMARK    3  A    between atoms: C_10  and  C_11
REMARK    4  A    between atoms: C_11  and  C_12
REMARK                            x       y       z     vdW  Elec       q    Type
REMARK                         _______ _______ _______ _____ _____    ______ ____
ROOT
ATOM      1  C   UNL     1      48.808   6.718  16.204  0.00  0.00    +0.000 A 
ATOM      2  C   UNL     1      48.848   7.856  16.998  0.00  0.00    +0.000 A 
ATOM      3  C   UNL     1      48.508   9.079  16.435  0.00  0.00    +0.000 A 
ATOM      4  C   UNL     1      48.129   9.129  15.096  0.00  0.00    +0.000 A 
ATOM      5  C   UNL     1      48.121   7.962  14.336  0.00  0.00    +0.000 A 
ATOM      6  N   UNL     1      48.474   6.778  14.893  0.00  0.00    +0.000 NA
ENDROOT
BRANCH   1  10
ATOM      7  C   UNL     1      49.645   2.726  17.568  0.00  0.00    +0.000 A 
ATOM      8  C   UNL     1      48.406   3.022  17.006  0.00  0.00    +0.000 A 
ATOM      9  C   UNL     1      48.119   4.320  16.580  0.00  0.00    +0.000 A 
ATOM     10  C   UNL     1      49.066   5.354  16.707  0.00  0.00    +0.000 A 
ATOM     11  C   UNL     1      50.310   5.025  17.279  0.00  0.00    +0.000 A 
ATOM     12  C   UNL     1      50.599   3.729  17.706  0.00  0.00    +0.000 A 
ENDBRANCH   1  10
BRANCH   5  13
ATOM     13  C   UNL     1      47.658   7.939  12.879  0.00  0.00    +0.000 C 
ATOM     14  C   UNL     1      48.608   7.257  11.898  0.00  0.00    +0.000 C 
ATOM     15  C   UNL     1      48.444   8.742  11.845  0.00  0.00    +0.000 C 
BRANCH  13  16
ATOM     16  C   UNL     1      46.162   7.781  12.645  0.00  0.00    +0.000 C 
BRANCH  16  17
ATOM     17  C   UNL     1      45.706   6.377  12.326  0.00  0.00    +0.000 A 
ATOM     18  C   UNL     1      45.417   5.922  11.036  0.00  0.00    +0.000 A 
ATOM     19  C   UNL     1      45.068   4.589  10.828  0.00  0.00    +0.000 A 
ATOM     20  C   UNL     1      45.032   3.740  11.919  0.00  0.00    +0.000 A 
ATOM     21  N   UNL     1      45.315   4.130  13.179  0.00  0.00    +0.000 NA
ATOM     22  C   UNL     1      45.647   5.430  13.348  0.00  0.00    +0.000 A 
ENDBRANCH  16  17
ENDBRANCH  13  16
ENDBRANCH   5  13
TORSDOF 4
ENDMDL
MODEL 8
REMARK VINA RESULT:    -5.704      3.069      6.449
REMARK INTER + INTRA:          -7.935
REMARK INTER:                  -6.950
REMARK INTRA:                  -0.985
REMARK UNBOUND:                -0.897
REMARK  Name = 
REMARK  4 active torsions:
REMARK  status: ('A' for Active; 'I' for Inactive)
REMARK    1  A    between atoms: C_4  and  C_5
REMARK    2  A    between atoms: C_9  and  C_10
REMARK    3  A    between atoms: C_10  and  C_11
REMARK    4  A    between atoms: C_11  and  C_12
REMARK                            x       y       z     vdW  Elec       q    Type
REMARK                         _______ _______ _______ _____ _____    ______ ____
ROOT
ATOM      1  C   UNL     1      47.742   5.983  13.928  0.00  0.00    +0.000 A 
ATOM      2  C   UNL     1      48.624   7.012  13.630  0.00  0.00    +0.000 A 
ATOM      3  C   UNL     1      49.529   7.424  14.599  0.00  0.00    +0.000 A 
ATOM      4  C   UNL     1      49.534   6.789  15.838  0.00  0.00    +0.000 A 
ATOM      5  C   UNL     1      48.616   5.773  16.096  0.00  0.00    +0.000 A 
ATOM      6  N   UNL     1      47.726   5.394  15.148  0.00  0.00    +0.000 NA
ENDROOT
BRANCH   1  10
ATOM      7  C   UNL     1      44.890   4.389  11.133  0.00  0.00    +0.000 A 
ATOM      8  C   UNL     1      45.207   3.673  12.285  0.00  0.00    +0.000 A 
ATOM      9  C   UNL     1      46.147   4.174  13.187  0.00  0.00    +0.000 A 
ATOM     10  C   UNL     1      46.794   5.404  12.957  0.00  0.00    +0.000 A 
ATOM     11  C   UNL     1      46.453   6.105  11.784  0.00  0.00    +0.000 A 
ATOM     12  C   UNL     1      45.513   5.606  10.881  0.00  0.00    +0.000 A 
ENDBRANCH   1  10
BRANCH   5  13
ATOM     13  C   UNL     1      48.608   4.995  17.413  0.00  0.00    +0.000 C 
ATOM     14  C   UNL     1      49.963   4.856  18.103  0.00  0.00    +0.000 C 
ATOM     15  C   UNL     1      49.332   3.652  17.479  0.00  0.00    +0.000 C 
BRANCH  13  16
ATOM     16  C   UNL     1      47.377   5.164  18.292  0.00  0.00    +0.000 C 
BRANCH  16  17
ATOM     17  C   UNL     1      47.461   6.279  19.307  0.00  0.00    +0.000 A 
ATOM     18  C   UNL     1      47.528   7.636  18.976  0.00  0.00    +0.000 A 
ATOM     19  C   UNL     1      47.534   8.601  19.981  0.00  0.00    +0.000 A 
ATOM     20  C   UNL     1      47.459   8.180  21.298  0.00  0.00    +0.000 A 
ATOM     21  N   UNL     1      47.380   6.885  21.665  0.00  0.00    +0.000 NA
ATOM     22  C   UNL     1      47.379   5.973  20.665  0.00  0.00    +0.000 A 
ENDBRANCH  16  17
ENDBRANCH  13  16
ENDBRANCH   5  13
TORSDOF 4
ENDMDL
MODEL 9
REMARK VINA RESULT:    -5.617      2.476      4.318
REMARK INTER + INTRA:          -7.827
REMARK INTER:                  -6.981
REMARK INTRA:                  -0.846
REMARK UNBOUND:                -0.897
REMARK  Name = 
REMARK  4 active torsions:
REMARK  status: ('A' for Active; 'I' for Inactive)
REMARK    1  A    between atoms: C_4  and  C_5
REMARK    2  A    between atoms: C_9  and  C_10
REMARK    3  A    between atoms: C_10  and  C_11
REMARK    4  A    between atoms: C_11  and  C_12
REMARK                            x       y       z     vdW  Elec       q    Type
REMARK                         _______ _______ _______ _____ _____    ______ ____
ROOT
ATOM      1  C   UNL     1      45.612   6.402  11.167  0.00  0.00    +0.000 A 
ATOM      2  C   UNL     1      44.671   7.399  11.387  0.00  0.00    +0.000 A 
ATOM      3  C   UNL     1      45.066   8.564  12.031  0.00  0.00    +0.000 A 
ATOM      4  C   UNL     1      46.392   8.705  12.430  0.00  0.00    +0.000 A 
ATOM      5  C   UNL     1      47.295   7.669  12.202  0.00  0.00    +0.000 A 
ATOM      6  N   UNL     1      46.893   6.529  11.590  0.00  0.00    +0.000 NA
ENDROOT
BRANCH   1  10
ATOM      7  C   UNL     1      44.716   2.844   8.924  0.00  0.00    +0.000 A 
ATOM      8  C   UNL     1      44.328   2.940  10.259  0.00  0.00    +0.000 A 
ATOM      9  C   UNL     1      44.634   4.083  11.000  0.00  0.00    +0.000 A 
ATOM     10  C   UNL     1      45.336   5.158  10.423  0.00  0.00    +0.000 A 
ATOM     11  C   UNL     1      45.714   5.033   9.072  0.00  0.00    +0.000 A 
ATOM     12  C   UNL     1      45.410   3.892   8.329  0.00  0.00    +0.000 A 
ENDBRANCH   1  10
BRANCH   5  13
ATOM     13  C   UNL     1      48.777   7.784  12.561  0.00  0.00    +0.000 C 
ATOM     14  C   UNL     1      49.472   9.058  12.084  0.00  0.00    +0.000 C 
ATOM     15  C   UNL     1      49.810   7.752  11.436  0.00  0.00    +0.000 C 
BRANCH  13  16
ATOM     16  C   UNL     1      49.197   7.207  13.906  0.00  0.00    +0.000 C 
BRANCH  16  17
ATOM     17  C   UNL     1      49.326   8.214  15.024  0.00  0.00    +0.000 A 
ATOM     18  C   UNL     1      48.246   8.892  15.598  0.00  0.00    +0.000 A 
ATOM     19  C   UNL     1      48.453   9.753  16.672  0.00  0.00    +0.000 A 
ATOM     20  C   UNL     1      49.741   9.904  17.156  0.00  0.00    +0.000 A 
ATOM     21  N   UNL     1      50.811   9.263  16.644  0.00  0.00    +0.000 NA
ATOM     22  C   UNL     1      50.577   8.436  15.600  0.00  0.00    +0.000 A 
ENDBRANCH  16  17
ENDBRANCH  13  16
ENDBRANCH   5  13
TORSDOF 4
ENDMDL
