MODEL 1
REMARK VINA RESULT:    -7.399      0.000      0.000
REMARK INTER + INTRA:          -9.646
REMARK INTER:                  -8.913
REMARK INTRA:                  -0.733
REMARK UNBOUND:                -0.733
REMARK  Name = 
REMARK  4 active torsions:
REMARK  status: ('A' for Active; 'I' for Inactive)
REMARK    1  A    between atoms: O_1  and  C_2
REMARK    2  A    between atoms: C_5  and  C_6
REMARK    3  A    between atoms: C_6  and  C_7
REMARK    4  A    between atoms: C_11  and  C_12
REMARK                            x       y       z     vdW  Elec       q    Type
REMARK                         _______ _______ _______ _____ _____    ______ ____
ROOT
ATOM      1  C   UNL     1      45.433   4.955  12.046  0.00  0.00    +0.000 A 
ATOM      2  C   UNL     1      45.770   4.241  13.205  0.00  0.00    +0.000 A 
ATOM      3  C   UNL     1      46.818   4.649  14.026  0.00  0.00    +0.000 A 
ATOM      4  C   UNL     1      47.549   5.794  13.706  0.00  0.00    +0.000 A 
ATOM      5  C   UNL     1      47.218   6.577  12.588  0.00  0.00    +0.000 A 
ATOM      6  C   UNL     1      46.130   6.157  11.801  0.00  0.00    +0.000 A 
ENDROOT
BRANCH   5   7
ATOM      7  C   UNL     1      48.031   7.746  12.198  0.00  0.00    +0.000 A 
ATOM      8  C   UNL     1      49.383   7.619  11.843  0.00  0.00    +0.000 A 
ATOM      9  C   UNL     1      50.119   8.733  11.443  0.00  0.00    +0.000 A 
ATOM     10  C   UNL     1      49.482   9.958  11.395  0.00  0.00    +0.000 A 
ATOM     11  N   UNL     1      48.186  10.139  11.719  0.00  0.00    +0.000 NA
ATOM     12  C   UNL     1      47.500   9.035  12.115  0.00  0.00    +0.000 A 
ENDBRANCH   5   7
BRANCH   1  13
ATOM     13  C   UNL     1      44.483   4.363  11.001  0.00  0.00    +0.000 C 
ATOM     14  C   UNL     1      43.172   3.760  11.517  0.00  0.00    +0.000 C 
ATOM     15  C   UNL     1      43.142   5.097  10.866  0.00  0.00    +0.000 C 
BRANCH  13  19
ATOM     16  C   UNL     1      46.335   2.632   7.465  0.00  0.00    +0.000 A 
ATOM     17  C   UNL     1      46.294   4.012   7.611  0.00  0.00    +0.000 A 
ATOM     18  C   UNL     1      45.664   4.570   8.733  0.00  0.00    +0.000 A 
ATOM     19  C   UNL     1      45.080   3.763   9.726  0.00  0.00    +0.000 A 
ATOM     20  C   UNL     1      45.123   2.370   9.528  0.00  0.00    +0.000 A 
ATOM     21  C   UNL     1      45.746   1.806   8.413  0.00  0.00    +0.000 A 
BRANCH  16  22
ATOM     22  O   UNL     1      46.955   2.042   6.406  0.00  0.00    +0.000 OA
ATOM     23  H   UNL     1      47.705   2.595   6.136  0.00  0.00    +0.000 HD
ENDBRANCH  16  22
ENDBRANCH  13  19
ENDBRANCH   1  13
TORSDOF 4
ENDMDL
MODEL 2
REMARK VINA RESULT:    -7.141      1.554      1.996
REMARK INTER + INTRA:          -9.335
REMARK INTER:                  -8.663
REMARK INTRA:                  -0.671
REMARK UNBOUND:                -0.733
REMARK  Name = 
REMARK  4 active torsions:
REMARK  status: ('A' for Active; 'I' for Inactive)
REMARK    1  A    between atoms: O_1  and  C_2
REMARK    2  A    between atoms: C_5  and  C_6
REMARK    3  A    between atoms: C_6  and  C_7
REMARK    4  A    between atoms: C_11  and  C_12
REMARK                            x       y       z     vdW  Elec       q    Type
REMARK                         _______ _______ _______ _____ _____    ______ ____
ROOT
ATOM      1  C   UNL     1      45.234   5.516  12.203  0.00  0.00    +0.000 A 
ATOM      2  C   UNL     1      46.323   5.028  12.941  0.00  0.00    +0.000 A 
ATOM      3  C   UNL     1      47.288   5.888  13.458  0.00  0.00    +0.000 A 
ATOM      4  C   UNL     1      47.176   7.265  13.256  0.00  0.00    +0.000 A 
ATOM      5  C   UNL     1      46.077   7.810  12.575  0.00  0.00    +0.000 A 
ATOM      6  C   UNL     1      45.100   6.916  12.097  0.00  0.00    +0.000 A 
ENDROOT
BRANCH   5   7
ATOM      7  C   UNL     1      45.987   9.256  12.289  0.00  0.00    +0.000 A 
ATOM      8  C   UNL     1      47.133  10.041  12.091  0.00  0.00    +0.000 A 
ATOM      9  C   UNL     1      47.021  11.397  11.787  0.00  0.00    +0.000 A 
ATOM     10  C   UNL     1      45.755  11.942  11.675  0.00  0.00    +0.000 A 
ATOM     11  N   UNL     1      44.621  11.236  11.849  0.00  0.00    +0.000 NA
ATOM     12  C   UNL     1      44.766   9.920  12.155  0.00  0.00    +0.000 A 
ENDBRANCH   5   7
BRANCH   1  13
ATOM     13  C   UNL     1      44.336   4.571  11.400  0.00  0.00    +0.000 C 
ATOM     14  C   UNL     1      43.328   3.730  12.191  0.00  0.00    +0.000 C 
ATOM     15  C   UNL     1      42.842   4.919  11.439  0.00  0.00    +0.000 C 
BRANCH  13  19
ATOM     16  C   UNL     1      46.036   2.849   7.783  0.00  0.00    +0.000 A 
ATOM     17  C   UNL     1      46.062   4.226   7.965  0.00  0.00    +0.000 A 
ATOM     18  C   UNL     1      45.481   4.782   9.113  0.00  0.00    +0.000 A 
ATOM     19  C   UNL     1      44.879   3.977  10.098  0.00  0.00    +0.000 A 
ATOM     20  C   UNL     1      44.853   2.589   9.864  0.00  0.00    +0.000 A 
ATOM     21  C   UNL     1      45.428   2.027   8.722  0.00  0.00    +0.000 A 
BRANCH  16  22
ATOM     22  O   UNL     1      46.606   2.259   6.696  0.00  0.00    +0.000 OA
ATOM     23  H   UNL     1      47.223   1.574   7.002  0.00  0.00    +0.000 HD
ENDBRANCH  16  22
ENDBRANCH  13  19
ENDBRANCH   1  13
TORSDOF 4
ENDMDL
MODEL 3
REMARK VINA RESULT:    -7.118      2.111      3.473
REMARK INTER + INTRA:          -9.308
REMARK INTER:                  -8.673
REMARK INTRA:                  -0.635
REMARK UNBOUND:                -0.733
REMARK  Name = 
REMARK  4 active torsions:
REMARK  status: ('A' for Active; 'I' for Inactive)
REMARK    1  A    between atoms: O_1  and  C_2
REMARK    2  A    between atoms: C_5  and  C_6
REMARK    3  A    between atoms: C_6  and  C_7
REMARK    4  A    between atoms: C_11  and  C_12
REMARK                            x       y       z     vdW  Elec       q    Type
REMARK                         _______ _______ _______ _____ _____    ______ ____
ROOT
ATOM      1  C   UNL     1      45.611   5.442  11.583  0.00  0.00    +0.000 A 
ATOM      2  C   UNL     1      45.672   6.815  11.301  0.00  0.00    +0.000 A 
ATOM      3  C   UNL     1      46.326   7.699  12.154  0.00  0.00    +0.000 A 
ATOM      4  C   UNL     1      46.946   7.223  13.311  0.00  0.00    +0.000 A 
ATOM      5  C   UNL     1      46.964   5.852  13.612  0.00  0.00    +0.000 A 
ATOM      6  C   UNL     1      46.325   4.981  12.709  0.00  0.00    +0.000 A 
ENDROOT
BRANCH   5   7
ATOM      7  C   UNL     1      47.549   5.346  14.869  0.00  0.00    +0.000 A 
ATOM      8  C   UNL     1      47.156   4.119  15.424  0.00  0.00    +0.000 A 
ATOM      9  C   UNL     1      47.750   3.646  16.593  0.00  0.00    +0.000 A 
ATOM     10  C   UNL     1      48.740   4.410  17.182  0.00  0.00    +0.000 A 
ATOM     11  N   UNL     1      49.162   5.592  16.691  0.00  0.00    +0.000 NA
ATOM     12  C   UNL     1      48.555   6.029  15.556  0.00  0.00    +0.000 A 
ENDBRANCH   5   7
BRANCH   1  13
ATOM     13  C   UNL     1      44.664   4.517  10.812  0.00  0.00    +0.000 C 
ATOM     14  C   UNL     1      43.552   3.835  11.615  0.00  0.00    +0.000 C 
ATOM     15  C   UNL     1      43.208   4.998  10.752  0.00  0.00    +0.000 C 
BRANCH  13  19
ATOM     16  C   UNL     1      46.356   2.386   7.417  0.00  0.00    +0.000 A 
ATOM     17  C   UNL     1      46.367   3.775   7.429  0.00  0.00    +0.000 A 
ATOM     18  C   UNL     1      45.789   4.460   8.506  0.00  0.00    +0.000 A 
ATOM     19  C   UNL     1      45.204   3.776   9.587  0.00  0.00    +0.000 A 
ATOM     20  C   UNL     1      45.193   2.369   9.525  0.00  0.00    +0.000 A 
ATOM     21  C   UNL     1      45.765   1.678   8.454  0.00  0.00    +0.000 A 
BRANCH  16  22
ATOM     22  O   UNL     1      46.924   1.674   6.405  0.00  0.00    +0.000 OA
ATOM     23  H   UNL     1      47.351   2.293   5.791  0.00  0.00    +0.000 HD
ENDBRANCH  16  22
ENDBRANCH  13  19
ENDBRANCH   1  13
TORSDOF 4
ENDMDL
MODEL 4
REMARK VINA RESULT:    -6.230      4.562      7.696
REMARK INTER + INTRA:          -8.238
REMARK INTER:                  -7.517
REMARK INTRA:                  -0.722
REMARK UNBOUND:                -0.733
REMARK  Name = 
REMARK  4 active torsions:
REMARK  status: ('A' for Active; 'I' for Inactive)
REMARK    1  A    between atoms: O_1  and  C_2
REMARK    2  A    between atoms: C_5  and  C_6
REMARK    3  A    between atoms: C_6  and  C_7
REMARK    4  A    between atoms: C_11  and  C_12
REMARK                            x       y       z     vdW  Elec       q    Type
REMARK                         _______ _______ _______ _____ _____    ______ ____
ROOT
ATOM      1  C   UNL     1      48.866   6.366  15.783  0.00  0.00    +0.000 A 
ATOM      2  C   UNL     1      49.672   7.302  15.117  0.00  0.00    +0.000 A 
ATOM      3  C   UNL     1      49.490   7.576  13.764  0.00  0.00    +0.000 A 
ATOM      4  C   UNL     1      48.485   6.923  13.048  0.00  0.00    +0.000 A 
ATOM      5  C   UNL     1      47.615   6.020  13.679  0.00  0.00    +0.000 A 
ATOM      6  C   UNL     1      47.802   5.793  15.056  0.00  0.00    +0.000 A 
ENDROOT
BRANCH   5   7
ATOM      7  C   UNL     1      46.599   5.267  12.917  0.00  0.00    +0.000 A 
ATOM      8  C   UNL     1      45.993   5.802  11.770  0.00  0.00    +0.000 A 
ATOM      9  C   UNL     1      45.063   5.057  11.046  0.00  0.00    +0.000 A 
ATOM     10  C   UNL     1      44.764   3.779  11.481  0.00  0.00    +0.000 A 
ATOM     11  N   UNL     1      45.318   3.213  12.571  0.00  0.00    +0.000 NA
ATOM     12  C   UNL     1      46.213   3.970  13.259  0.00  0.00    +0.000 A 
ENDBRANCH   5   7
BRANCH   1  13
ATOM     13  C   UNL     1      49.237   5.855  17.179  0.00  0.00    +0.000 C 
ATOM     14  C   UNL     1      49.683   6.902  18.206  0.00  0.00    +0.000 C 
ATOM     15  C   UNL     1      48.310   6.336  18.304  0.00  0.00    +0.000 C 
BRANCH  13  19
ATOM     16  C   UNL     1      50.966   1.869  17.388  0.00  0.00    +0.000 A 
ATOM     17  C   UNL     1      49.636   2.020  17.018  0.00  0.00    +0.000 A 
ATOM     18  C   UNL     1      49.070   3.303  16.986  0.00  0.00    +0.000 A 
ATOM     19  C   UNL     1      49.821   4.447  17.311  0.00  0.00    +0.000 A 
ATOM     20  C   UNL     1      51.158   4.247  17.703  0.00  0.00    +0.000 A 
ATOM     21  C   UNL     1      51.729   2.973  17.740  0.00  0.00    +0.000 A 
BRANCH  16  22
ATOM     22  O   UNL     1      51.568   0.647  17.412  0.00  0.00    +0.000 OA
ATOM     23  H   UNL     1      50.935  -0.018  17.098  0.00  0.00    +0.000 HD
ENDBRANCH  16  22
ENDBRANCH  13  19
ENDBRANCH   1  13
TORSDOF 4
ENDMDL
MODEL 5
REMARK VINA RESULT:    -5.905      3.753      7.285
REMARK INTER + INTRA:          -7.846
REMARK INTER:                  -7.535
REMARK INTRA:                  -0.311
REMARK UNBOUND:                -0.733
REMARK  Name = 
REMARK  4 active torsions:
REMARK  status: ('A' for Active; 'I' for Inactive)
REMARK    1  A    between atoms: O_1  and  C_2
REMARK    2  A    between atoms: C_5  and  C_6
REMARK    3  A    between atoms: C_6  and  C_7
REMARK    4  A    between atoms: C_11  and  C_12
REMARK                            x       y       z     vdW  Elec       q    Type
REMARK                         _______ _______ _______ _____ _____    ______ ____
ROOT
ATOM      1  C   UNL     1      47.247   7.572  12.373  0.00  0.00    +0.000 A 
ATOM      2  C   UNL     1      46.289   8.579  12.564  0.00  0.00    +0.000 A 
ATOM      3  C   UNL     1      45.003   8.461  12.042  0.00  0.00    +0.000 A 
ATOM      4  C   UNL     1      44.644   7.319  11.323  0.00  0.00    +0.000 A 
ATOM      5  C   UNL     1      45.546   6.257  11.151  0.00  0.00    +0.000 A 
ATOM      6  C   UNL     1      46.825   6.393  11.723  0.00  0.00    +0.000 A 
ENDROOT
BRANCH   5   7
ATOM      7  C   UNL     1      45.204   5.080  10.328  0.00  0.00    +0.000 A 
ATOM      8  C   UNL     1      45.642   4.955   9.001  0.00  0.00    +0.000 A 
ATOM      9  C   UNL     1      45.336   3.817   8.257  0.00  0.00    +0.000 A 
ATOM     10  C   UNL     1      44.601   2.815   8.862  0.00  0.00    +0.000 A 
ATOM     11  N   UNL     1      44.158   2.878  10.133  0.00  0.00    +0.000 NA
ATOM     12  C   UNL     1      44.465   4.006  10.827  0.00  0.00    +0.000 A 
ENDBRANCH   5   7
BRANCH   1  13
ATOM     13  C   UNL     1      48.725   7.816  12.692  0.00  0.00    +0.000 C 
ATOM     14  C   UNL     1      49.708   7.753  11.518  0.00  0.00    +0.000 C 
ATOM     15  C   UNL     1      49.315   9.083  12.059  0.00  0.00    +0.000 C 
BRANCH  13  19
ATOM     16  C   UNL     1      50.288   6.532  16.544  0.00  0.00    +0.000 A 
ATOM     17  C   UNL     1      48.966   6.263  16.217  0.00  0.00    +0.000 A 
ATOM     18  C   UNL     1      48.453   6.709  14.991  0.00  0.00    +0.000 A 
ATOM     19  C   UNL     1      49.250   7.417  14.072  0.00  0.00    +0.000 A 
ATOM     20  C   UNL     1      50.578   7.689  14.453  0.00  0.00    +0.000 A 
ATOM     21  C   UNL     1      51.097   7.250  15.673  0.00  0.00    +0.000 A 
BRANCH  16  22
ATOM     22  O   UNL     1      50.839   6.100  17.712  0.00  0.00    +0.000 OA
ATOM     23  H   UNL     1      50.207   5.512  18.155  0.00  0.00    +0.000 HD
ENDBRANCH  16  22
ENDBRANCH  13  19
ENDBRANCH   1  13
TORSDOF 4
ENDMDL
MODEL 6
REMARK VINA RESULT:    -5.876      4.739      6.981
REMARK INTER + INTRA:          -7.811
REMARK INTER:                  -7.185
REMARK INTRA:                  -0.626
REMARK UNBOUND:                -0.733
REMARK  Name = 
REMARK  4 active torsions:
REMARK  status: ('A' for Active; 'I' for Inactive)
REMARK    1  A    between atoms: O_1  and  C_2
REMARK    2  A    between atoms: C_5  and  C_6
REMARK    3  A    between atoms: C_6  and  C_7
REMARK    4  A    between atoms: C_11  and  C_12
REMARK                            x       y       z     vdW  Elec       q    Type
REMARK                         _______ _______ _______ _____ _____    ______ ____
ROOT
ATOM      1  C   UNL     1      44.377   9.272  11.219  0.00  0.00    +0.000 A 
ATOM      2  C   UNL     1      45.339   9.644  12.171  0.00  0.00    +0.000 A 
ATOM      3  C   UNL     1      45.942   8.699  12.996  0.00  0.00    +0.000 A 
ATOM      4  C   UNL     1      45.600   7.350  12.878  0.00  0.00    +0.000 A 
ATOM      5  C   UNL     1      44.686   6.916  11.904  0.00  0.00    +0.000 A 
ATOM      6  C   UNL     1      44.123   7.893  11.062  0.00  0.00    +0.000 A 
ENDROOT
BRANCH   5   7
ATOM      7  C   UNL     1      44.260   5.506  11.821  0.00  0.00    +0.000 A 
ATOM      8  C   UNL     1      44.237   4.813  10.601  0.00  0.00    +0.000 A 
ATOM      9  C   UNL     1      43.866   3.470  10.553  0.00  0.00    +0.000 A 
ATOM     10  C   UNL     1      43.532   2.839  11.737  0.00  0.00    +0.000 A 
ATOM     11  N   UNL     1      43.541   3.452  12.938  0.00  0.00    +0.000 NA
ATOM     12  C   UNL     1      43.898   4.763  12.947  0.00  0.00    +0.000 A 
ENDBRANCH   5   7
BRANCH   1  13
ATOM     13  C   UNL     1      43.514  10.323  10.515  0.00  0.00    +0.000 C 
ATOM     14  C   UNL     1      41.994  10.144  10.601  0.00  0.00    +0.000 C 
ATOM     15  C   UNL     1      42.648  11.173  11.454  0.00  0.00    +0.000 C 
BRANCH  13  19
ATOM     16  C   UNL     1      45.205  12.136   6.940  0.00  0.00    +0.000 A 
ATOM     17  C   UNL     1      45.729  12.458   8.185  0.00  0.00    +0.000 A 
ATOM     18  C   UNL     1      45.159  11.901   9.339  0.00  0.00    +0.000 A 
ATOM     19  C   UNL     1      44.072  11.011   9.268  0.00  0.00    +0.000 A 
ATOM     20  C   UNL     1      43.557  10.730   7.989  0.00  0.00    +0.000 A 
ATOM     21  C   UNL     1      44.117  11.282   6.834  0.00  0.00    +0.000 A 
BRANCH  16  22
ATOM     22  O   UNL     1      45.738  12.633   5.789  0.00  0.00    +0.000 OA
ATOM     23  H   UNL     1      46.402  13.302   6.017  0.00  0.00    +0.000 HD
ENDBRANCH  16  22
ENDBRANCH  13  19
ENDBRANCH   1  13
TORSDOF 4
ENDMDL
MODEL 7
REMARK VINA RESULT:    -5.871      3.758      6.485
REMARK INTER + INTRA:          -7.806
REMARK INTER:                  -7.071
REMARK INTRA:                  -0.735
REMARK UNBOUND:                -0.733
REMARK  Name = 
REMARK  4 active torsions:
REMARK  status: ('A' for Active; 'I' for Inactive)
REMARK    1  A    between atoms: O_1  and  C_2
REMARK    2  A    between atoms: C_5  and  C_6
REMARK    3  A    between atoms: C_6  and  C_7
REMARK    4  A    between atoms: C_11  and  C_12
REMARK                            x       y       z     vdW  Elec       q    Type
REMARK                         _______ _______ _______ _____ _____    ______ ____
ROOT
ATOM      1  C   UNL     1      48.974   7.885  14.030  0.00  0.00    +0.000 A 
ATOM      2  C   UNL     1      49.302   8.964  14.865  0.00  0.00    +0.000 A 
ATOM      3  C   UNL     1      49.347   8.818  16.248  0.00  0.00    +0.000 A 
ATOM      4  C   UNL     1      49.074   7.577  16.828  0.00  0.00    +0.000 A 
ATOM      5  C   UNL     1      48.796   6.452  16.036  0.00  0.00    +0.000 A 
ATOM      6  C   UNL     1      48.794   6.626  14.639  0.00  0.00    +0.000 A 
ENDROOT
BRANCH   5   7
ATOM      7  C   UNL     1      48.431   5.156  16.640  0.00  0.00    +0.000 A 
ATOM      8  C   UNL     1      49.283   4.493  17.536  0.00  0.00    +0.000 A 
ATOM      9  C   UNL     1      48.900   3.288  18.122  0.00  0.00    +0.000 A 
ATOM     10  C   UNL     1      47.659   2.770  17.804  0.00  0.00    +0.000 A 
ATOM     11  N   UNL     1      46.797   3.363  16.955  0.00  0.00    +0.000 NA
ATOM     12  C   UNL     1      47.206   4.532  16.395  0.00  0.00    +0.000 A 
ENDBRANCH   5   7
BRANCH   1  13
ATOM     13  C   UNL     1      48.646   8.103  12.549  0.00  0.00    +0.000 C 
ATOM     14  C   UNL     1      49.495   9.131  11.794  0.00  0.00    +0.000 C 
ATOM     15  C   UNL     1      49.759   7.683  11.579  0.00  0.00    +0.000 C 
BRANCH  13  19
ATOM     16  C   UNL     1      44.494   7.507  11.394  0.00  0.00    +0.000 A 
ATOM     17  C   UNL     1      45.388   6.448  11.307  0.00  0.00    +0.000 A 
ATOM     18  C   UNL     1      46.734   6.651  11.644  0.00  0.00    +0.000 A 
ATOM     19  C   UNL     1      47.203   7.903  12.082  0.00  0.00    +0.000 A 
ATOM     20  C   UNL     1      46.269   8.955  12.134  0.00  0.00    +0.000 A 
ATOM     21  C   UNL     1      44.927   8.763  11.798  0.00  0.00    +0.000 A 
BRANCH  16  22
ATOM     22  O   UNL     1      43.173   7.355  11.099  0.00  0.00    +0.000 OA
ATOM     23  H   UNL     1      43.080   7.241  10.140  0.00  0.00    +0.000 HD
ENDBRANCH  16  22
ENDBRANCH  13  19
ENDBRANCH   1  13
TORSDOF 4
ENDMDL
MODEL 8
REMARK VINA RESULT:    -5.794      2.589      3.996
REMARK INTER + INTRA:          -7.712
REMARK INTER:                  -7.110
REMARK INTRA:                  -0.602
REMARK UNBOUND:                -0.733
REMARK  Name = 
REMARK  4 active torsions:
REMARK  status: ('A' for Active; 'I' for Inactive)
REMARK    1  A    between atoms: O_1  and  C_2
REMARK    2  A    between atoms: C_5  and  C_6
REMARK    3  A    between atoms: C_6  and  C_7
REMARK    4  A    between atoms: C_11  and  C_12
REMARK                            x       y       z     vdW  Elec       q    Type
REMARK                         _______ _______ _______ _____ _____    ______ ____
ROOT
ATOM      1  C   UNL     1      47.134   6.701  12.260  0.00  0.00    +0.000 A 
ATOM      2  C   UNL     1      48.096   7.334  11.457  0.00  0.00    +0.000 A 
ATOM      3  C   UNL     1      49.317   7.746  11.983  0.00  0.00    +0.000 A 
ATOM      4  C   UNL     1      49.607   7.523  13.331  0.00  0.00    +0.000 A 
ATOM      5  C   UNL     1      48.704   6.844  14.164  0.00  0.00    +0.000 A 
ATOM      6  C   UNL     1      47.494   6.408  13.591  0.00  0.00    +0.000 A 
ENDROOT
BRANCH   5   7
ATOM      7  C   UNL     1      48.967   6.670  15.606  0.00  0.00    +0.000 A 
ATOM      8  C   UNL     1      48.451   5.580  16.324  0.00  0.00    +0.000 A 
ATOM      9  C   UNL     1      48.744   5.419  17.677  0.00  0.00    +0.000 A 
ATOM     10  C   UNL     1      49.562   6.351  18.287  0.00  0.00    +0.000 A 
ATOM     11  N   UNL     1      50.089   7.414  17.648  0.00  0.00    +0.000 NA
ATOM     12  C   UNL     1      49.776   7.547  16.332  0.00  0.00    +0.000 A 
ENDBRANCH   5   7
BRANCH   1  13
ATOM     13  C   UNL     1      45.698   6.504  11.765  0.00  0.00    +0.000 C 
ATOM     14  C   UNL     1      44.575   7.026  12.668  0.00  0.00    +0.000 C 
ATOM     15  C   UNL     1      44.944   7.804  11.454  0.00  0.00    +0.000 C 
BRANCH  13  19
ATOM     16  C   UNL     1      44.973   2.984   9.314  0.00  0.00    +0.000 A 
ATOM     17  C   UNL     1      45.493   4.130   8.729  0.00  0.00    +0.000 A 
ATOM     18  C   UNL     1      45.692   5.276   9.513  0.00  0.00    +0.000 A 
ATOM     19  C   UNL     1      45.387   5.291  10.886  0.00  0.00    +0.000 A 
ATOM     20  C   UNL     1      44.840   4.116  11.434  0.00  0.00    +0.000 A 
ATOM     21  C   UNL     1      44.636   2.971  10.661  0.00  0.00    +0.000 A 
BRANCH  16  22
ATOM     22  O   UNL     1      44.783   1.839   8.601  0.00  0.00    +0.000 OA
ATOM     23  H   UNL     1      45.563   1.271   8.710  0.00  0.00    +0.000 HD
ENDBRANCH  16  22
ENDBRANCH  13  19
ENDBRANCH   1  13
TORSDOF 4
ENDMDL
MODEL 9
REMARK VINA RESULT:    -5.689      3.111      6.671
REMARK INTER + INTRA:          -7.586
REMARK INTER:                  -6.916
REMARK INTRA:                  -0.670
REMARK UNBOUND:                -0.733
REMARK  Name = 
REMARK  4 active torsions:
REMARK  status: ('A' for Active; 'I' for Inactive)
REMARK    1  A    between atoms: O_1  and  C_2
REMARK    2  A    between atoms: C_5  and  C_6
REMARK    3  A    between atoms: C_6  and  C_7
REMARK    4  A    between atoms: C_11  and  C_12
REMARK                            x       y       z     vdW  Elec       q    Type
REMARK                         _______ _______ _______ _____ _____    ______ ____
ROOT
ATOM      1  C   UNL     1      46.924   7.640  12.757  0.00  0.00    +0.000 A 
ATOM      2  C   UNL     1      45.976   8.674  12.751  0.00  0.00    +0.000 A 
ATOM      3  C   UNL     1      44.804   8.575  12.005  0.00  0.00    +0.000 A 
ATOM      4  C   UNL     1      44.551   7.427  11.252  0.00  0.00    +0.000 A 
ATOM      5  C   UNL     1      45.439   6.340  11.268  0.00  0.00    +0.000 A 
ATOM      6  C   UNL     1      46.595   6.457  12.062  0.00  0.00    +0.000 A 
ENDROOT
BRANCH   5   7
ATOM      7  C   UNL     1      45.220   5.153  10.417  0.00  0.00    +0.000 A 
ATOM      8  C   UNL     1      45.706   5.088   9.103  0.00  0.00    +0.000 A 
ATOM      9  C   UNL     1      45.517   3.942   8.332  0.00  0.00    +0.000 A 
ATOM     10  C   UNL     1      44.850   2.873   8.899  0.00  0.00    +0.000 A 
ATOM     11  N   UNL     1      44.366   2.877  10.156  0.00  0.00    +0.000 NA
ATOM     12  C   UNL     1      44.558   4.013  10.877  0.00  0.00    +0.000 A 
ENDBRANCH   5   7
BRANCH   1  13
ATOM     13  C   UNL     1      48.325   7.855  13.338  0.00  0.00    +0.000 C 
ATOM     14  C   UNL     1      48.409   8.316  14.797  0.00  0.00    +0.000 C 
ATOM     15  C   UNL     1      48.702   6.893  14.473  0.00  0.00    +0.000 C 
BRANCH  13  19
ATOM     16  C   UNL     1      51.636   9.058  10.785  0.00  0.00    +0.000 A 
ATOM     17  C   UNL     1      50.975  10.013  11.546  0.00  0.00    +0.000 A 
ATOM     18  C   UNL     1      49.885   9.630  12.340  0.00  0.00    +0.000 A 
ATOM     19  C   UNL     1      49.447   8.295  12.395  0.00  0.00    +0.000 A 
ATOM     20  C   UNL     1      50.129   7.363  11.591  0.00  0.00    +0.000 A 
ATOM     21  C   UNL     1      51.215   7.735  10.795  0.00  0.00    +0.000 A 
BRANCH  16  22
ATOM     22  O   UNL     1      52.714   9.376  10.015  0.00  0.00    +0.000 OA
ATOM     23  H   UNL     1      52.705  10.332   9.847  0.00  0.00    +0.000 HD
ENDBRANCH  16  22
ENDBRANCH  13  19
ENDBRANCH   1  13
TORSDOF 4
ENDMDL
