MODEL 1
REMARK VINA RESULT:    -7.741      0.000      0.000
REMARK INTER + INTRA:         -11.411
REMARK INTER:                 -10.456
REMARK INTRA:                  -0.955
REMARK UNBOUND:                -0.955
REMARK  Name = 
REMARK  7 active torsions:
REMARK  status: ('A' for Active; 'I' for Inactive)
REMARK    1  A    between atoms: C_1  and  C_2
REMARK    2  A    between atoms: C_2  and  N_3
REMARK    3  A    between atoms: C_2  and  C_16
REMARK    4  A    between atoms: C_4  and  C_6
REMARK    5  A    between atoms: C_19  and  C_20
REMARK    6  A    between atoms: C_20  and  N_21
REMARK    7  A    between atoms: C_22  and  C_24
REMARK                            x       y       z     vdW  Elec       q    Type
REMARK                         _______ _______ _______ _____ _____    ______ ____
ROOT
ATOM      1  C   UNL     1      43.210   4.544  12.881  0.00  0.00    +0.000 C 
ATOM      2  C   UNL     1      44.196   5.141  11.871  0.00  0.00    +0.000 C 
ENDROOT
BRANCH   2   3
ATOM      3  C   UNL     1      45.289   5.980  12.510  0.00  0.00    +0.000 A 
ATOM      4  C   UNL     1      45.200   7.375  12.503  0.00  0.00    +0.000 A 
ATOM      5  C   UNL     1      46.166   8.149  13.153  0.00  0.00    +0.000 A 
ATOM      6  C   UNL     1      47.232   7.513  13.785  0.00  0.00    +0.000 A 
ATOM      7  N   UNL     1      47.365   6.163  13.774  0.00  0.00    +0.000 NA
ATOM      8  C   UNL     1      46.410   5.438  13.132  0.00  0.00    +0.000 A 
BRANCH   6   9
ATOM      9  C   UNL     1      48.267   8.315  14.548  0.00  0.00    +0.000 C 
BRANCH   9  10
ATOM     10  N   UNL     1      48.452   7.821  15.903  0.00  0.00    +0.000 N 
ATOM     11  C   UNL     1      49.498   7.008  16.281  0.00  0.00    +0.000 C 
ATOM     12  O   UNL     1      50.359   6.623  15.495  0.00  0.00    +0.000 OA
ATOM     13  H   UNL     1      47.761   8.078  16.598  0.00  0.00    +0.000 HD
BRANCH  11  14
ATOM     14  C   UNL     1      49.524   6.701  17.807  0.00  0.00    +0.000 C 
ATOM     15  C   UNL     1      50.509   5.591  18.185  0.00  0.00    +0.000 C 
ATOM     16  C   UNL     1      49.944   4.215  17.854  0.00  0.00    +0.000 C 
ATOM     17  C   UNL     1      48.589   4.049  18.524  0.00  0.00    +0.000 C 
ATOM     18  C   UNL     1      47.668   5.211  18.170  0.00  0.00    +0.000 C 
ATOM     19  O   UNL     1      48.255   6.490  18.425  0.00  0.00    +0.000 OA
ENDBRANCH  11  14
ENDBRANCH   9  10
ENDBRANCH   6   9
ENDBRANCH   2   3
BRANCH   2  20
ATOM     20  N   UNL     1      44.775   4.098  11.044  0.00  0.00    +0.000 N 
ATOM     21  C   UNL     1      44.444   3.925   9.718  0.00  0.00    +0.000 C 
ATOM     22  O   UNL     1      43.658   4.660   9.134  0.00  0.00    +0.000 OA
ATOM     23  H   UNL     1      45.358   3.413  11.515  0.00  0.00    +0.000 HD
BRANCH  21  24
ATOM     24  C   UNL     1      45.105   2.818   9.038  0.00  0.00    +0.000 A 
ATOM     25  C   UNL     1      44.798   1.487   9.264  0.00  0.00    +0.000 A 
ATOM     26  O   UNL     1      45.535   0.662   8.475  0.00  0.00    +0.000 OA
ATOM     27  C   UNL     1      46.351   1.449   7.722  0.00  0.00    +0.000 A 
ATOM     28  N   UNL     1      47.230   0.966   6.809  0.00  0.00    +0.000 NA
ATOM     29  C   UNL     1      47.912   1.888   6.212  0.00  0.00    +0.000 A 
ATOM     30  N   UNL     1      47.794   3.238   6.449  0.00  0.00    +0.000 N 
ATOM     31  C   UNL     1      46.920   3.763   7.374  0.00  0.00    +0.000 A 
ATOM     32  O   UNL     1      46.848   4.965   7.599  0.00  0.00    +0.000 OA
ATOM     33  C   UNL     1      46.129   2.771   8.050  0.00  0.00    +0.000 A 
ATOM     34  H   UNL     1      48.369   3.904   5.954  0.00  0.00    +0.000 HD
ENDBRANCH  21  24
ENDBRANCH   2  20
TORSDOF 6
ENDMDL
MODEL 2
REMARK VINA RESULT:    -6.956      3.380      4.879
REMARK INTER + INTRA:         -10.350
REMARK INTER:                  -9.487
REMARK INTRA:                  -0.863
REMARK UNBOUND:                -0.955
REMARK  Name = 
REMARK  7 active torsions:
REMARK  status: ('A' for Active; 'I' for Inactive)
REMARK    1  A    between atoms: C_1  and  C_2
REMARK    2  A    between atoms: C_2  and  N_3
REMARK    3  A    between atoms: C_2  and  C_16
REMARK    4  A    between atoms: C_4  and  C_6
REMARK    5  A    between atoms: C_19  and  C_20
REMARK    6  A    between atoms: C_20  and  N_21
REMARK    7  A    between atoms: C_22  and  C_24
REMARK                            x       y       z     vdW  Elec       q    Type
REMARK                         _______ _______ _______ _____ _____    ______ ____
ROOT
ATOM      1  C   UNL     1      49.135   9.671  12.036  0.00  0.00    +0.000 C 
ATOM      2  C   UNL     1      48.901   8.330  12.741  0.00  0.00    +0.000 C 
ENDROOT
BRANCH   2   3
ATOM      3  C   UNL     1      49.033   8.407  14.252  0.00  0.00    +0.000 A 
ATOM      4  C   UNL     1      48.085   9.105  15.007  0.00  0.00    +0.000 A 
ATOM      5  C   UNL     1      48.162   9.118  16.403  0.00  0.00    +0.000 A 
ATOM      6  C   UNL     1      49.208   8.448  17.030  0.00  0.00    +0.000 A 
ATOM      7  N   UNL     1      50.164   7.795  16.323  0.00  0.00    +0.000 NA
ATOM      8  C   UNL     1      50.063   7.803  14.967  0.00  0.00    +0.000 A 
BRANCH   6   9
ATOM      9  C   UNL     1      49.292   8.391  18.543  0.00  0.00    +0.000 C 
BRANCH   9  10
ATOM     10  N   UNL     1      49.596   7.054  19.025  0.00  0.00    +0.000 N 
ATOM     11  C   UNL     1      48.656   6.052  19.134  0.00  0.00    +0.000 C 
ATOM     12  O   UNL     1      47.475   6.213  18.841  0.00  0.00    +0.000 OA
ATOM     13  H   UNL     1      50.549   6.860  19.311  0.00  0.00    +0.000 HD
BRANCH  11  14
ATOM     14  C   UNL     1      49.255   4.686  19.579  0.00  0.00    +0.000 C 
ATOM     15  C   UNL     1      50.720   4.505  19.169  0.00  0.00    +0.000 C 
ATOM     16  C   UNL     1      50.838   4.148  17.692  0.00  0.00    +0.000 C 
ATOM     17  C   UNL     1      49.992   2.919  17.398  0.00  0.00    +0.000 C 
ATOM     18  C   UNL     1      48.562   3.124  17.884  0.00  0.00    +0.000 C 
ATOM     19  O   UNL     1      48.488   3.528  19.254  0.00  0.00    +0.000 OA
ENDBRANCH  11  14
ENDBRANCH   9  10
ENDBRANCH   6   9
ENDBRANCH   2   3
BRANCH   2  20
ATOM     20  N   UNL     1      47.612   7.776  12.371  0.00  0.00    +0.000 N 
ATOM     21  C   UNL     1      47.315   6.436  12.482  0.00  0.00    +0.000 C 
ATOM     22  O   UNL     1      48.109   5.620  12.930  0.00  0.00    +0.000 OA
ATOM     23  H   UNL     1      46.961   8.403  11.909  0.00  0.00    +0.000 HD
BRANCH  21  24
ATOM     24  C   UNL     1      45.979   6.044  12.049  0.00  0.00    +0.000 A 
ATOM     25  C   UNL     1      45.101   6.898  11.404  0.00  0.00    +0.000 A 
ATOM     26  O   UNL     1      43.940   6.271  11.080  0.00  0.00    +0.000 OA
ATOM     27  C   UNL     1      44.038   4.988  11.522  0.00  0.00    +0.000 A 
ATOM     28  N   UNL     1      43.060   4.061  11.367  0.00  0.00    +0.000 NA
ATOM     29  C   UNL     1      43.359   2.908  11.869  0.00  0.00    +0.000 A 
ATOM     30  N   UNL     1      44.538   2.605  12.511  0.00  0.00    +0.000 N 
ATOM     31  C   UNL     1      45.547   3.523  12.695  0.00  0.00    +0.000 A 
ATOM     32  O   UNL     1      46.579   3.250  13.296  0.00  0.00    +0.000 OA
ATOM     33  C   UNL     1      45.263   4.817  12.135  0.00  0.00    +0.000 A 
ATOM     34  H   UNL     1      44.700   1.685  12.892  0.00  0.00    +0.000 HD
ENDBRANCH  21  24
ENDBRANCH   2  20
TORSDOF 6
ENDMDL
MODEL 3
REMARK VINA RESULT:    -6.932      3.535      9.089
REMARK INTER + INTRA:         -10.318
REMARK INTER:                  -9.430
REMARK INTRA:                  -0.887
REMARK UNBOUND:                -0.955
REMARK  Name = 
REMARK  7 active torsions:
REMARK  status: ('A' for Active; 'I' for Inactive)
REMARK    1  A    between atoms: C_1  and  C_2
REMARK    2  A    between atoms: C_2  and  N_3
REMARK    3  A    between atoms: C_2  and  C_16
REMARK    4  A    between atoms: C_4  and  C_6
REMARK    5  A    between atoms: C_19  and  C_20
REMARK    6  A    between atoms: C_20  and  N_21
REMARK    7  A    between atoms: C_22  and  C_24
REMARK                            x       y       z     vdW  Elec       q    Type
REMARK                         _______ _______ _______ _____ _____    ______ ____
ROOT
ATOM      1  C   UNL     1      47.793   5.054  18.898  0.00  0.00    +0.000 C 
ATOM      2  C   UNL     1      48.195   4.121  17.751  0.00  0.00    +0.000 C 
ENDROOT
BRANCH   2   3
ATOM      3  C   UNL     1      48.098   4.766  16.380  0.00  0.00    +0.000 A 
ATOM      4  C   UNL     1      47.187   4.280  15.436  0.00  0.00    +0.000 A 
ATOM      5  C   UNL     1      47.044   4.915  14.199  0.00  0.00    +0.000 A 
ATOM      6  C   UNL     1      47.838   6.022  13.909  0.00  0.00    +0.000 A 
ATOM      7  N   UNL     1      48.758   6.491  14.790  0.00  0.00    +0.000 NA
ATOM      8  C   UNL     1      48.875   5.851  15.983  0.00  0.00    +0.000 A 
BRANCH   6   9
ATOM      9  C   UNL     1      47.671   6.771  12.602  0.00  0.00    +0.000 C 
BRANCH   9  10
ATOM     10  N   UNL     1      46.561   6.258  11.815  0.00  0.00    +0.000 N 
ATOM     11  C   UNL     1      45.280   6.762  11.886  0.00  0.00    +0.000 C 
ATOM     12  O   UNL     1      44.969   7.685  12.632  0.00  0.00    +0.000 OA
ATOM     13  H   UNL     1      46.743   5.476  11.197  0.00  0.00    +0.000 HD
BRANCH  11  14
ATOM     14  C   UNL     1      44.300   6.105  10.870  0.00  0.00    +0.000 C 
ATOM     15  C   UNL     1      42.884   5.925  11.425  0.00  0.00    +0.000 C 
ATOM     16  C   UNL     1      42.809   4.730  12.367  0.00  0.00    +0.000 C 
ATOM     17  C   UNL     1      43.320   3.488  11.653  0.00  0.00    +0.000 C 
ATOM     18  C   UNL     1      44.703   3.740  11.063  0.00  0.00    +0.000 C 
ATOM     19  O   UNL     1      44.758   4.909  10.241  0.00  0.00    +0.000 OA
ENDBRANCH  11  14
ENDBRANCH   9  10
ENDBRANCH   6   9
ENDBRANCH   2   3
BRANCH   2  20
ATOM     20  N   UNL     1      49.527   3.588  17.969  0.00  0.00    +0.000 N 
ATOM     21  C   UNL     1      50.012   2.489  17.296  0.00  0.00    +0.000 C 
ATOM     22  O   UNL     1      49.362   1.900  16.442  0.00  0.00    +0.000 OA
ATOM     23  H   UNL     1      50.061   3.991  18.733  0.00  0.00    +0.000 HD
BRANCH  21  24
ATOM     24  C   UNL     1      51.365   2.075  17.647  0.00  0.00    +0.000 A 
ATOM     25  C   UNL     1      51.737   0.754  17.838  0.00  0.00    +0.000 A 
ATOM     26  O   UNL     1      53.061   0.644  18.122  0.00  0.00    +0.000 OA
ATOM     27  C   UNL     1      53.578   1.903  18.132  0.00  0.00    +0.000 A 
ATOM     28  N   UNL     1      54.883   2.179  18.377  0.00  0.00    +0.000 NA
ATOM     29  C   UNL     1      55.156   3.442  18.345  0.00  0.00    +0.000 A 
ATOM     30  N   UNL     1      54.246   4.444  18.096  0.00  0.00    +0.000 N 
ATOM     31  C   UNL     1      52.913   4.201  17.854  0.00  0.00    +0.000 A 
ATOM     32  O   UNL     1      52.106   5.103  17.666  0.00  0.00    +0.000 OA
ATOM     33  C   UNL     1      52.568   2.805  17.863  0.00  0.00    +0.000 A 
ATOM     34  H   UNL     1      54.526   5.413  18.100  0.00  0.00    +0.000 HD
ENDBRANCH  21  24
ENDBRANCH   2  20
TORSDOF 6
ENDMDL
MODEL 4
REMARK VINA RESULT:    -6.898      3.324      5.257
REMARK INTER + INTRA:         -10.272
REMARK INTER:                  -9.376
REMARK INTRA:                  -0.896
REMARK UNBOUND:                -0.955
REMARK  Name = 
REMARK  7 active torsions:
REMARK  status: ('A' for Active; 'I' for Inactive)
REMARK    1  A    between atoms: C_1  and  C_2
REMARK    2  A    between atoms: C_2  and  N_3
REMARK    3  A    between atoms: C_2  and  C_16
REMARK    4  A    between atoms: C_4  and  C_6
REMARK    5  A    between atoms: C_19  and  C_20
REMARK    6  A    between atoms: C_20  and  N_21
REMARK    7  A    between atoms: C_22  and  C_24
REMARK                            x       y       z     vdW  Elec       q    Type
REMARK                         _______ _______ _______ _____ _____    ______ ____
ROOT
ATOM      1  C   UNL     1      43.306   2.783  12.457  0.00  0.00    +0.000 C 
ATOM      2  C   UNL     1      43.921   3.641  11.345  0.00  0.00    +0.000 C 
ENDROOT
BRANCH   2   3
ATOM      3  C   UNL     1      44.733   4.816  11.862  0.00  0.00    +0.000 A 
ATOM      4  C   UNL     1      45.914   4.595  12.577  0.00  0.00    +0.000 A 
ATOM      5  C   UNL     1      46.702   5.673  12.992  0.00  0.00    +0.000 A 
ATOM      6  C   UNL     1      46.281   6.969  12.707  0.00  0.00    +0.000 A 
ATOM      7  N   UNL     1      45.120   7.215  12.050  0.00  0.00    +0.000 NA
ATOM      8  C   UNL     1      44.375   6.146  11.661  0.00  0.00    +0.000 A 
BRANCH   6   9
ATOM      9  C   UNL     1      47.138   8.160  13.090  0.00  0.00    +0.000 C 
BRANCH   9  10
ATOM     10  N   UNL     1      46.459   9.423  12.848  0.00  0.00    +0.000 N 
ATOM     11  C   UNL     1      46.939  10.395  11.998  0.00  0.00    +0.000 C 
ATOM     12  O   UNL     1      47.992  10.277  11.380  0.00  0.00    +0.000 OA
ATOM     13  H   UNL     1      45.595   9.598  13.349  0.00  0.00    +0.000 HD
BRANCH  11  14
ATOM     14  C   UNL     1      45.976  11.607  11.837  0.00  0.00    +0.000 C 
ATOM     15  C   UNL     1      44.537  11.198  11.506  0.00  0.00    +0.000 C 
ATOM     16  C   UNL     1      44.399  10.813  10.038  0.00  0.00    +0.000 C 
ATOM     17  C   UNL     1      44.899  11.952   9.165  0.00  0.00    +0.000 C 
ATOM     18  C   UNL     1      46.307  12.366   9.577  0.00  0.00    +0.000 C 
ATOM     19  O   UNL     1      46.421  12.652  10.973  0.00  0.00    +0.000 OA
ENDBRANCH  11  14
ENDBRANCH   9  10
ENDBRANCH   6   9
ENDBRANCH   2   3
BRANCH   2  20
ATOM     20  N   UNL     1      44.721   2.824  10.452  0.00  0.00    +0.000 N 
ATOM     21  C   UNL     1      44.821   3.070   9.101  0.00  0.00    +0.000 C 
ATOM     22  O   UNL     1      44.262   4.016   8.561  0.00  0.00    +0.000 OA
ATOM     23  H   UNL     1      45.123   1.978  10.845  0.00  0.00    +0.000 HD
BRANCH  21  24
ATOM     24  C   UNL     1      45.653   2.141   8.346  0.00  0.00    +0.000 A 
ATOM     25  C   UNL     1      45.750   0.790   8.635  0.00  0.00    +0.000 A 
ATOM     26  O   UNL     1      46.564   0.148   7.757  0.00  0.00    +0.000 OA
ATOM     27  C   UNL     1      47.024   1.080   6.878  0.00  0.00    +0.000 A 
ATOM     28  N   UNL     1      47.864   0.798   5.851  0.00  0.00    +0.000 NA
ATOM     29  C   UNL     1      48.182   1.833   5.146  0.00  0.00    +0.000 A 
ATOM     30  N   UNL     1      47.739   3.116   5.378  0.00  0.00    +0.000 N 
ATOM     31  C   UNL     1      46.895   3.440   6.416  0.00  0.00    +0.000 A 
ATOM     32  O   UNL     1      46.534   4.591   6.631  0.00  0.00    +0.000 OA
ATOM     33  C   UNL     1      46.502   2.313   7.217  0.00  0.00    +0.000 A 
ATOM     34  H   UNL     1      48.039   3.882   4.793  0.00  0.00    +0.000 HD
ENDBRANCH  21  24
ENDBRANCH   2  20
TORSDOF 6
ENDMDL
MODEL 5
REMARK VINA RESULT:    -6.873      2.410      9.319
REMARK INTER + INTRA:         -10.239
REMARK INTER:                  -9.068
REMARK INTRA:                  -1.171
REMARK UNBOUND:                -0.955
REMARK  Name = 
REMARK  7 active torsions:
REMARK  status: ('A' for Active; 'I' for Inactive)
REMARK    1  A    between atoms: C_1  and  C_2
REMARK    2  A    between atoms: C_2  and  N_3
REMARK    3  A    between atoms: C_2  and  C_16
REMARK    4  A    between atoms: C_4  and  C_6
REMARK    5  A    between atoms: C_19  and  C_20
REMARK    6  A    between atoms: C_20  and  N_21
REMARK    7  A    between atoms: C_22  and  C_24
REMARK                            x       y       z     vdW  Elec       q    Type
REMARK                         _______ _______ _______ _____ _____    ______ ____
ROOT
ATOM      1  C   UNL     1      50.627   7.932  11.291  0.00  0.00    +0.000 C 
ATOM      2  C   UNL     1      49.899   8.073  12.633  0.00  0.00    +0.000 C 
ENDROOT
BRANCH   2   3
ATOM      3  C   UNL     1      48.496   7.494  12.628  0.00  0.00    +0.000 A 
ATOM      4  C   UNL     1      47.434   8.224  12.084  0.00  0.00    +0.000 A 
ATOM      5  C   UNL     1      46.155   7.666  12.012  0.00  0.00    +0.000 A 
ATOM      6  C   UNL     1      45.946   6.383  12.513  0.00  0.00    +0.000 A 
ATOM      7  N   UNL     1      46.948   5.667  13.081  0.00  0.00    +0.000 NA
ATOM      8  C   UNL     1      48.179   6.238  13.138  0.00  0.00    +0.000 A 
BRANCH   6   9
ATOM      9  C   UNL     1      44.585   5.723  12.400  0.00  0.00    +0.000 C 
BRANCH   9  10
ATOM     10  N   UNL     1      44.358   5.160  11.079  0.00  0.00    +0.000 N 
ATOM     11  C   UNL     1      44.688   3.867  10.735  0.00  0.00    +0.000 C 
ATOM     12  O   UNL     1      45.213   3.084  11.520  0.00  0.00    +0.000 OA
ATOM     13  H   UNL     1      43.952   5.763  10.373  0.00  0.00    +0.000 HD
BRANCH  11  14
ATOM     14  C   UNL     1      44.250   3.480   9.292  0.00  0.00    +0.000 C 
ATOM     15  C   UNL     1      44.566   2.025   8.933  0.00  0.00    +0.000 C 
ATOM     16  C   UNL     1      46.042   1.847   8.601  0.00  0.00    +0.000 C 
ATOM     17  C   UNL     1      46.436   2.820   7.501  0.00  0.00    +0.000 C 
ATOM     18  C   UNL     1      46.041   4.244   7.877  0.00  0.00    +0.000 C 
ATOM     19  O   UNL     1      44.667   4.364   8.252  0.00  0.00    +0.000 OA
ENDBRANCH  11  14
ENDBRANCH   9  10
ENDBRANCH   6   9
ENDBRANCH   2   3
BRANCH   2  20
ATOM     20  N   UNL     1      50.686   7.490  13.704  0.00  0.00    +0.000 N 
ATOM     21  C   UNL     1      51.098   8.207  14.805  0.00  0.00    +0.000 C 
ATOM     22  O   UNL     1      50.804   9.383  14.973  0.00  0.00    +0.000 OA
ATOM     23  H   UNL     1      51.028   6.545  13.557  0.00  0.00    +0.000 HD
BRANCH  21  24
ATOM     24  C   UNL     1      51.896   7.472  15.779  0.00  0.00    +0.000 A 
ATOM     25  C   UNL     1      53.219   7.766  16.063  0.00  0.00    +0.000 A 
ATOM     26  O   UNL     1      53.715   6.953  17.033  0.00  0.00    +0.000 OA
ATOM     27  C   UNL     1      52.717   6.100  17.393  0.00  0.00    +0.000 A 
ATOM     28  N   UNL     1      52.850   5.145  18.346  0.00  0.00    +0.000 NA
ATOM     29  C   UNL     1      51.780   4.441  18.523  0.00  0.00    +0.000 A 
ATOM     30  N   UNL     1      50.601   4.607  17.834  0.00  0.00    +0.000 N 
ATOM     31  C   UNL     1      50.433   5.559  16.854  0.00  0.00    +0.000 A 
ATOM     32  O   UNL     1      49.388   5.675  16.225  0.00  0.00    +0.000 OA
ATOM     33  C   UNL     1      51.596   6.377  16.636  0.00  0.00    +0.000 A 
ATOM     34  H   UNL     1      49.806   4.011  18.014  0.00  0.00    +0.000 HD
ENDBRANCH  21  24
ENDBRANCH   2  20
TORSDOF 6
ENDMDL
MODEL 6
REMARK VINA RESULT:    -6.859      2.147      9.255
REMARK INTER + INTRA:         -10.219
REMARK INTER:                  -9.219
REMARK INTRA:                  -1.000
REMARK UNBOUND:                -0.955
REMARK  Name = 
REMARK  7 active torsions:
REMARK  status: ('A' for Active; 'I' for Inactive)
REMARK    1  A    between atoms: C_1  and  C_2
REMARK    2  A    between atoms: C_2  and  N_3
REMARK    3  A    between atoms: C_2  and  C_16
REMARK    4  A    between atoms: C_4  and  C_6
REMARK    5  A    between atoms: C_19  and  C_20
REMARK    6  A    between atoms: C_20  and  N_21
REMARK    7  A    between atoms: C_22  and  C_24
REMARK                            x       y       z     vdW  Elec       q    Type
REMARK                         _______ _______ _______ _____ _____    ______ ____
ROOT
ATOM      1  C   UNL     1      49.900   7.386  12.318  0.00  0.00    +0.000 C 
ATOM      2  C   UNL     1      48.787   7.689  13.327  0.00  0.00    +0.000 C 
ENDROOT
BRANCH   2   3
ATOM      3  C   UNL     1      47.419   7.192  12.892  0.00  0.00    +0.000 A 
ATOM      4  C   UNL     1      46.635   7.957  12.023  0.00  0.00    +0.000 A 
ATOM      5  C   UNL     1      45.408   7.471  11.563  0.00  0.00    +0.000 A 
ATOM      6  C   UNL     1      44.965   6.226  12.002  0.00  0.00    +0.000 A 
ATOM      7  N   UNL     1      45.685   5.479  12.875  0.00  0.00    +0.000 NA
ATOM      8  C   UNL     1      46.873   5.980  13.306  0.00  0.00    +0.000 A 
BRANCH   6   9
ATOM      9  C   UNL     1      43.667   5.641  11.480  0.00  0.00    +0.000 C 
BRANCH   9  10
ATOM     10  N   UNL     1      43.827   5.039  10.167  0.00  0.00    +0.000 N 
ATOM     11  C   UNL     1      44.346   3.779   9.965  0.00  0.00    +0.000 C 
ATOM     12  O   UNL     1      44.727   3.061  10.884  0.00  0.00    +0.000 OA
ATOM     13  H   UNL     1      43.557   5.589   9.359  0.00  0.00    +0.000 HD
BRANCH  11  14
ATOM     14  C   UNL     1      44.318   3.329   8.474  0.00  0.00    +0.000 C 
ATOM     15  C   UNL     1      44.624   1.841   8.285  0.00  0.00    +0.000 C 
ATOM     16  C   UNL     1      46.118   1.565   8.406  0.00  0.00    +0.000 C 
ATOM     17  C   UNL     1      46.877   2.448   7.428  0.00  0.00    +0.000 C 
ATOM     18  C   UNL     1      46.489   3.911   7.613  0.00  0.00    +0.000 C 
ATOM     19  O   UNL     1      45.077   4.126   7.565  0.00  0.00    +0.000 OA
ENDBRANCH  11  14
ENDBRANCH   9  10
ENDBRANCH   6   9
ENDBRANCH   2   3
BRANCH   2  20
ATOM     20  N   UNL     1      49.126   7.160  14.636  0.00  0.00    +0.000 N 
ATOM     21  C   UNL     1      48.845   7.827  15.807  0.00  0.00    +0.000 C 
ATOM     22  O   UNL     1      48.260   8.902  15.829  0.00  0.00    +0.000 OA
ATOM     23  H   UNL     1      49.693   6.318  14.655  0.00  0.00    +0.000 HD
BRANCH  21  24
ATOM     24  C   UNL     1      49.270   7.163  17.034  0.00  0.00    +0.000 A 
ATOM     25  C   UNL     1      50.139   7.730  17.951  0.00  0.00    +0.000 A 
ATOM     26  O   UNL     1      50.340   6.916  19.019  0.00  0.00    +0.000 OA
ATOM     27  C   UNL     1      49.607   5.789  18.811  0.00  0.00    +0.000 A 
ATOM     28  N   UNL     1      49.561   4.749  19.680  0.00  0.00    +0.000 NA
ATOM     29  C   UNL     1      48.809   3.776  19.281  0.00  0.00    +0.000 A 
ATOM     30  N   UNL     1      48.108   3.752  18.096  0.00  0.00    +0.000 N 
ATOM     31  C   UNL     1      48.140   4.784  17.186  0.00  0.00    +0.000 A 
ATOM     32  O   UNL     1      47.538   4.737  16.120  0.00  0.00    +0.000 OA
ATOM     33  C   UNL     1      48.953   5.896  17.600  0.00  0.00    +0.000 A 
ATOM     34  H   UNL     1      47.549   2.952  17.840  0.00  0.00    +0.000 HD
ENDBRANCH  21  24
ENDBRANCH   2  20
TORSDOF 6
ENDMDL
MODEL 7
REMARK VINA RESULT:    -6.785      3.756      5.079
REMARK INTER + INTRA:         -10.120
REMARK INTER:                  -8.756
REMARK INTRA:                  -1.363
REMARK UNBOUND:                -0.955
REMARK  Name = 
REMARK  7 active torsions:
REMARK  status: ('A' for Active; 'I' for Inactive)
REMARK    1  A    between atoms: C_1  and  C_2
REMARK    2  A    between atoms: C_2  and  N_3
REMARK    3  A    between atoms: C_2  and  C_16
REMARK    4  A    between atoms: C_4  and  C_6
REMARK    5  A    between atoms: C_19  and  C_20
REMARK    6  A    between atoms: C_20  and  N_21
REMARK    7  A    between atoms: C_22  and  C_24
REMARK                            x       y       z     vdW  Elec       q    Type
REMARK                         _______ _______ _______ _____ _____    ______ ____
ROOT
ATOM      1  C   UNL     1      47.869  10.080  12.780  0.00  0.00    +0.000 C 
ATOM      2  C   UNL     1      48.338   8.717  13.301  0.00  0.00    +0.000 C 
ENDROOT
BRANCH   2   3
ATOM      3  C   UNL     1      48.870   8.760  14.723  0.00  0.00    +0.000 A 
ATOM      4  C   UNL     1      48.091   9.301  15.751  0.00  0.00    +0.000 A 
ATOM      5  C   UNL     1      48.547   9.277  17.072  0.00  0.00    +0.000 A 
ATOM      6  C   UNL     1      49.798   8.731  17.347  0.00  0.00    +0.000 A 
ATOM      7  N   UNL     1      50.593   8.235  16.365  0.00  0.00    +0.000 NA
ATOM      8  C   UNL     1      50.122   8.274  15.091  0.00  0.00    +0.000 A 
BRANCH   6   9
ATOM      9  C   UNL     1      50.302   8.635  18.774  0.00  0.00    +0.000 C 
BRANCH   9  10
ATOM     10  N   UNL     1      50.446   7.257  19.212  0.00  0.00    +0.000 N 
ATOM     11  C   UNL     1      49.386   6.463  19.590  0.00  0.00    +0.000 C 
ATOM     12  O   UNL     1      48.226   6.862  19.598  0.00  0.00    +0.000 OA
ATOM     13  H   UNL     1      51.383   6.871  19.256  0.00  0.00    +0.000 HD
BRANCH  11  14
ATOM     14  C   UNL     1      49.796   4.998  19.920  0.00  0.00    +0.000 C 
ATOM     15  C   UNL     1      51.044   4.534  19.163  0.00  0.00    +0.000 C 
ATOM     16  C   UNL     1      50.713   4.183  17.717  0.00  0.00    +0.000 C 
ATOM     17  C   UNL     1      49.594   3.154  17.689  0.00  0.00    +0.000 C 
ATOM     18  C   UNL     1      48.402   3.633  18.509  0.00  0.00    +0.000 C 
ATOM     19  O   UNL     1      48.758   4.022  19.838  0.00  0.00    +0.000 OA
ENDBRANCH  11  14
ENDBRANCH   9  10
ENDBRANCH   6   9
ENDBRANCH   2   3
BRANCH   2  20
ATOM     20  N   UNL     1      47.278   7.733  13.185  0.00  0.00    +0.000 N 
ATOM     21  C   UNL     1      47.519   6.399  12.947  0.00  0.00    +0.000 C 
ATOM     22  O   UNL     1      48.650   5.942  12.845  0.00  0.00    +0.000 OA
ATOM     23  H   UNL     1      46.326   8.087  13.171  0.00  0.00    +0.000 HD
BRANCH  21  24
ATOM     24  C   UNL     1      46.339   5.549  12.842  0.00  0.00    +0.000 A 
ATOM     25  C   UNL     1      46.282   4.252  13.324  0.00  0.00    +0.000 A 
ATOM     26  O   UNL     1      45.058   3.698  13.128  0.00  0.00    +0.000 OA
ATOM     27  C   UNL     1      44.290   4.629  12.499  0.00  0.00    +0.000 A 
ATOM     28  N   UNL     1      42.996   4.425  12.146  0.00  0.00    +0.000 NA
ATOM     29  C   UNL     1      42.459   5.439  11.551  0.00  0.00    +0.000 A 
ATOM     30  N   UNL     1      43.098   6.627  11.278  0.00  0.00    +0.000 N 
ATOM     31  C   UNL     1      44.412   6.864  11.611  0.00  0.00    +0.000 A 
ATOM     32  O   UNL     1      44.979   7.914  11.333  0.00  0.00    +0.000 OA
ATOM     33  C   UNL     1      45.044   5.767  12.292  0.00  0.00    +0.000 A 
ATOM     34  H   UNL     1      42.620   7.375  10.796  0.00  0.00    +0.000 HD
ENDBRANCH  21  24
ENDBRANCH   2  20
TORSDOF 6
ENDMDL
MODEL 8
REMARK VINA RESULT:    -6.610      3.472      9.237
REMARK INTER + INTRA:          -9.884
REMARK INTER:                  -9.928
REMARK INTRA:                   0.044
REMARK UNBOUND:                -0.955
REMARK  Name = 
REMARK  7 active torsions:
REMARK  status: ('A' for Active; 'I' for Inactive)
REMARK    1  A    between atoms: C_1  and  C_2
REMARK    2  A    between atoms: C_2  and  N_3
REMARK    3  A    between atoms: C_2  and  C_16
REMARK    4  A    between atoms: C_4  and  C_6
REMARK    5  A    between atoms: C_19  and  C_20
REMARK    6  A    between atoms: C_20  and  N_21
REMARK    7  A    between atoms: C_22  and  C_24
REMARK                            x       y       z     vdW  Elec       q    Type
REMARK                         _______ _______ _______ _____ _____    ______ ____
ROOT
ATOM      1  C   UNL     1      47.927   5.881  18.900  0.00  0.00    +0.000 C 
ATOM      2  C   UNL     1      48.114   4.688  17.955  0.00  0.00    +0.000 C 
ENDROOT
BRANCH   2   3
ATOM      3  C   UNL     1      47.994   5.051  16.486  0.00  0.00    +0.000 A 
ATOM      4  C   UNL     1      47.221   4.263  15.626  0.00  0.00    +0.000 A 
ATOM      5  C   UNL     1      47.049   4.634  14.290  0.00  0.00    +0.000 A 
ATOM      6  C   UNL     1      47.677   5.784  13.819  0.00  0.00    +0.000 A 
ATOM      7  N   UNL     1      48.464   6.546  14.619  0.00  0.00    +0.000 NA
ATOM      8  C   UNL     1      48.614   6.159  15.913  0.00  0.00    +0.000 A 
BRANCH   6   9
ATOM      9  C   UNL     1      47.467   6.249  12.391  0.00  0.00    +0.000 C 
BRANCH   9  10
ATOM     10  N   UNL     1      46.206   5.778  11.842  0.00  0.00    +0.000 N 
ATOM     11  C   UNL     1      45.034   6.501  11.898  0.00  0.00    +0.000 C 
ATOM     12  O   UNL     1      44.958   7.604  12.428  0.00  0.00    +0.000 OA
ATOM     13  H   UNL     1      46.191   4.860  11.413  0.00  0.00    +0.000 HD
BRANCH  11  14
ATOM     14  C   UNL     1      43.851   5.819  11.151  0.00  0.00    +0.000 C 
ATOM     15  C   UNL     1      42.726   5.364  12.085  0.00  0.00    +0.000 C 
ATOM     16  C   UNL     1      43.096   4.074  12.806  0.00  0.00    +0.000 C 
ATOM     17  C   UNL     1      43.474   3.013  11.784  0.00  0.00    +0.000 C 
ATOM     18  C   UNL     1      44.548   3.537  10.838  0.00  0.00    +0.000 C 
ATOM     19  O   UNL     1      44.201   4.784  10.232  0.00  0.00    +0.000 OA
ENDBRANCH  11  14
ENDBRANCH   9  10
ENDBRANCH   6   9
ENDBRANCH   2   3
BRANCH   2  20
ATOM     20  N   UNL     1      49.380   4.027  18.212  0.00  0.00    +0.000 N 
ATOM     21  C   UNL     1      50.556   4.714  18.413  0.00  0.00    +0.000 C 
ATOM     22  O   UNL     1      50.612   5.937  18.419  0.00  0.00    +0.000 OA
ATOM     23  H   UNL     1      49.393   3.015  18.123  0.00  0.00    +0.000 HD
BRANCH  21  24
ATOM     24  C   UNL     1      51.740   3.894  18.641  0.00  0.00    +0.000 A 
ATOM     25  C   UNL     1      52.795   4.280  19.451  0.00  0.00    +0.000 A 
ATOM     26  O   UNL     1      53.752   3.318  19.518  0.00  0.00    +0.000 OA
ATOM     27  C   UNL     1      53.339   2.283  18.738  0.00  0.00    +0.000 A 
ATOM     28  N   UNL     1      54.045   1.138  18.569  0.00  0.00    +0.000 NA
ATOM     29  C   UNL     1      53.472   0.290  17.779  0.00  0.00    +0.000 A 
ATOM     30  N   UNL     1      52.266   0.488  17.146  0.00  0.00    +0.000 N 
ATOM     31  C   UNL     1      51.527   1.641  17.286  0.00  0.00    +0.000 A 
ATOM     32  O   UNL     1      50.471   1.819  16.692  0.00  0.00    +0.000 OA
ATOM     33  C   UNL     1      52.121   2.606  18.172  0.00  0.00    +0.000 A 
ATOM     34  H   UNL     1      51.881  -0.213  16.530  0.00  0.00    +0.000 HD
ENDBRANCH  21  24
ENDBRANCH   2  20
TORSDOF 6
ENDMDL
MODEL 9
REMARK VINA RESULT:    -6.218      4.311      7.731
REMARK INTER + INTRA:          -9.353
REMARK INTER:                  -7.988
REMARK INTRA:                  -1.366
REMARK UNBOUND:                -0.955
REMARK  Name = 
REMARK  7 active torsions:
REMARK  status: ('A' for Active; 'I' for Inactive)
REMARK    1  A    between atoms: C_1  and  C_2
REMARK    2  A    between atoms: C_2  and  N_3
REMARK    3  A    between atoms: C_2  and  C_16
REMARK    4  A    between atoms: C_4  and  C_6
REMARK    5  A    between atoms: C_19  and  C_20
REMARK    6  A    between atoms: C_20  and  N_21
REMARK    7  A    between atoms: C_22  and  C_24
REMARK                            x       y       z     vdW  Elec       q    Type
REMARK                         _______ _______ _______ _____ _____    ______ ____
ROOT
ATOM      1  C   UNL     1      44.788   5.364  13.192  0.00  0.00    +0.000 C 
ATOM      2  C   UNL     1      46.311   5.538  13.232  0.00  0.00    +0.000 C 
ENDROOT
BRANCH   2   3
ATOM      3  C   UNL     1      46.782   6.892  12.730  0.00  0.00    +0.000 A 
ATOM      4  C   UNL     1      45.980   8.025  12.902  0.00  0.00    +0.000 A 
ATOM      5  C   UNL     1      46.440   9.284  12.507  0.00  0.00    +0.000 A 
ATOM      6  C   UNL     1      47.696   9.392  11.916  0.00  0.00    +0.000 A 
ATOM      7  N   UNL     1      48.480   8.305  11.700  0.00  0.00    +0.000 NA
ATOM      8  C   UNL     1      48.003   7.095  12.094  0.00  0.00    +0.000 A 
BRANCH   6   9
ATOM      9  C   UNL     1      48.253  10.748  11.527  0.00  0.00    +0.000 C 
BRANCH   9  10
ATOM     10  N   UNL     1      49.634  10.665  11.082  0.00  0.00    +0.000 N 
ATOM     11  C   UNL     1      50.710  11.008  11.871  0.00  0.00    +0.000 C 
ATOM     12  O   UNL     1      50.588  11.424  13.019  0.00  0.00    +0.000 OA
ATOM     13  H   UNL     1      49.806  10.355  10.133  0.00  0.00    +0.000 HD
BRANCH  11  14
ATOM     14  C   UNL     1      52.086  10.734  11.195  0.00  0.00    +0.000 C 
ATOM     15  C   UNL     1      52.060   9.546  10.229  0.00  0.00    +0.000 C 
ATOM     16  C   UNL     1      52.095   8.222  10.983  0.00  0.00    +0.000 C 
ATOM     17  C   UNL     1      53.301   8.197  11.909  0.00  0.00    +0.000 C 
ATOM     18  C   UNL     1      53.316   9.432  12.802  0.00  0.00    +0.000 C 
ATOM     19  O   UNL     1      53.210  10.655  12.070  0.00  0.00    +0.000 OA
ENDBRANCH  11  14
ENDBRANCH   9  10
ENDBRANCH   6   9
ENDBRANCH   2   3
BRANCH   2  20
ATOM     20  N   UNL     1      46.819   5.287  14.568  0.00  0.00    +0.000 N 
ATOM     21  C   UNL     1      47.243   4.045  14.985  0.00  0.00    +0.000 C 
ATOM     22  O   UNL     1      47.248   3.068  14.248  0.00  0.00    +0.000 OA
ATOM     23  H   UNL     1      46.743   6.048  15.236  0.00  0.00    +0.000 HD
BRANCH  21  24
ATOM     24  C   UNL     1      47.708   3.963  16.365  0.00  0.00    +0.000 A 
ATOM     25  C   UNL     1      47.217   3.054  17.286  0.00  0.00    +0.000 A 
ATOM     26  O   UNL     1      47.845   3.167  18.485  0.00  0.00    +0.000 OA
ATOM     27  C   UNL     1      48.759   4.169  18.368  0.00  0.00    +0.000 A 
ATOM     28  N   UNL     1      49.580   4.562  19.374  0.00  0.00    +0.000 NA
ATOM     29  C   UNL     1      50.363   5.537  19.049  0.00  0.00    +0.000 A 
ATOM     30  N   UNL     1      50.394   6.151  17.817  0.00  0.00    +0.000 N 
ATOM     31  C   UNL     1      49.569   5.786  16.778  0.00  0.00    +0.000 A 
ATOM     32  O   UNL     1      49.583   6.362  15.696  0.00  0.00    +0.000 OA
ATOM     33  C   UNL     1      48.691   4.691  17.091  0.00  0.00    +0.000 A 
ATOM     34  H   UNL     1      51.024   6.918  17.635  0.00  0.00    +0.000 HD
ENDBRANCH  21  24
ENDBRANCH   2  20
TORSDOF 6
ENDMDL
