MODEL 1
REMARK VINA RESULT:    -7.570      0.000      0.000
REMARK INTER + INTRA:         -10.639
REMARK INTER:                 -10.226
REMARK INTRA:                  -0.413
REMARK UNBOUND:                -0.413
REMARK  Name = 
REMARK  7 active torsions:
REMARK  status: ('A' for Active; 'I' for Inactive)
REMARK    1  A    between atoms: C_1  and  O_2
REMARK    2  A    between atoms: O_2  and  C_3
REMARK    3  A    between atoms: C_6  and  C_7
REMARK    4  A    between atoms: C_7  and  C_8
REMARK    5  A    between atoms: C_8  and  O_9
REMARK    6  A    between atoms: O_9  and  C_10
REMARK    7  A    between atoms: C_13  and  C_14
REMARK                            x       y       z     vdW  Elec       q    Type
REMARK                         _______ _______ _______ _____ _____    ______ ____
ROOT
ATOM      1  O   UNL     1      44.066   4.725  10.187  0.00  0.00    +0.000 OA
ENDROOT
BRANCH   1   2
ATOM      2  C   UNL     1      44.832   4.592  11.331  0.00  0.00    +0.000 A 
ATOM      3  C   UNL     1      45.049   3.319  11.854  0.00  0.00    +0.000 A 
ATOM      4  N   UNL     1      45.806   3.091  12.966  0.00  0.00    +0.000 NA
ATOM      5  C   UNL     1      46.332   4.219  13.530  0.00  0.00    +0.000 A 
ATOM      6  C   UNL     1      46.110   5.483  13.013  0.00  0.00    +0.000 A 
ATOM      7  N   UNL     1      45.357   5.696  11.908  0.00  0.00    +0.000 NA
BRANCH   5   8
ATOM      8  C   UNL     1      47.184   4.081  14.741  0.00  0.00    +0.000 C 
ATOM      9  N   UNL     1      47.352   5.207  15.500  0.00  0.00    +0.000 N 
ATOM     10  O   UNL     1      47.707   3.019  15.051  0.00  0.00    +0.000 OA
ATOM     11  H   UNL     1      46.911   6.081  15.233  0.00  0.00    +0.000 HD
ATOM     12  H   UNL     1      47.918   5.154  16.335  0.00  0.00    +0.000 HD
ENDBRANCH   5   8
ENDBRANCH   1   2
BRANCH   1  13
ATOM     13  C   UNL     1      44.449   3.773   9.179  0.00  0.00    +0.000 C 
BRANCH  13  14
ATOM     14  C   UNL     1      45.657   4.290   8.402  0.00  0.00    +0.000 C 
BRANCH  14  18
ATOM     15  C   UNL     1      47.254   1.274   5.733  0.00  0.00    +0.000 A 
ATOM     16  C   UNL     1      46.978   0.965   7.064  0.00  0.00    +0.000 A 
ATOM     17  C   UNL     1      46.474   1.945   7.927  0.00  0.00    +0.000 A 
ATOM     18  C   UNL     1      46.229   3.246   7.471  0.00  0.00    +0.000 A 
ATOM     19  C   UNL     1      46.537   3.559   6.142  0.00  0.00    +0.000 A 
ATOM     20  C   UNL     1      47.041   2.578   5.280  0.00  0.00    +0.000 A 
BRANCH  15  22
ATOM     21  C   UNL     1      46.918   0.202   3.639  0.00  0.00    +0.000 C 
ATOM     22  O   UNL     1      47.730   0.401   4.792  0.00  0.00    +0.000 OA
ENDBRANCH  15  22
ENDBRANCH  14  18
ENDBRANCH  13  14
ENDBRANCH   1  13
TORSDOF 6
ENDMDL
MODEL 2
REMARK VINA RESULT:    -7.203      2.658      6.929
REMARK INTER + INTRA:         -10.143
REMARK INTER:                  -9.529
REMARK INTRA:                  -0.614
REMARK UNBOUND:                -0.413
REMARK  Name = 
REMARK  7 active torsions:
REMARK  status: ('A' for Active; 'I' for Inactive)
REMARK    1  A    between atoms: C_1  and  O_2
REMARK    2  A    between atoms: O_2  and  C_3
REMARK    3  A    between atoms: C_6  and  C_7
REMARK    4  A    between atoms: C_7  and  C_8
REMARK    5  A    between atoms: C_8  and  O_9
REMARK    6  A    between atoms: O_9  and  C_10
REMARK    7  A    between atoms: C_13  and  C_14
REMARK                            x       y       z     vdW  Elec       q    Type
REMARK                         _______ _______ _______ _____ _____    ______ ____
ROOT
ATOM      1  O   UNL     1      43.700   4.614   9.959  0.00  0.00    +0.000 OA
ENDROOT
BRANCH   1   2
ATOM      2  C   UNL     1      44.635   3.921   9.211  0.00  0.00    +0.000 A 
ATOM      3  C   UNL     1      44.762   2.545   9.397  0.00  0.00    +0.000 A 
ATOM      4  N   UNL     1      45.643   1.779   8.691  0.00  0.00    +0.000 NA
ATOM      5  C   UNL     1      46.395   2.473   7.786  0.00  0.00    +0.000 A 
ATOM      6  C   UNL     1      46.271   3.839   7.608  0.00  0.00    +0.000 A 
ATOM      7  N   UNL     1      45.393   4.590   8.314  0.00  0.00    +0.000 NA
BRANCH   5   8
ATOM      8  C   UNL     1      47.378   1.730   6.955  0.00  0.00    +0.000 C 
ATOM      9  N   UNL     1      48.443   2.446   6.481  0.00  0.00    +0.000 N 
ATOM     10  O   UNL     1      47.251   0.538   6.707  0.00  0.00    +0.000 OA
ATOM     11  H   UNL     1      48.538   3.434   6.696  0.00  0.00    +0.000 HD
ATOM     12  H   UNL     1      49.138   1.977   5.919  0.00  0.00    +0.000 HD
ENDBRANCH   5   8
ENDBRANCH   1   2
BRANCH   1  13
ATOM     13  C   UNL     1      43.334   3.896  11.150  0.00  0.00    +0.000 C 
BRANCH  13  14
ATOM     14  C   UNL     1      43.393   4.824  12.360  0.00  0.00    +0.000 C 
BRANCH  14  18
ATOM     15  C   UNL     1      47.475   5.853  13.383  0.00  0.00    +0.000 A 
ATOM     16  C   UNL     1      46.987   4.571  13.631  0.00  0.00    +0.000 A 
ATOM     17  C   UNL     1      45.664   4.245  13.310  0.00  0.00    +0.000 A 
ATOM     18  C   UNL     1      44.812   5.192  12.730  0.00  0.00    +0.000 A 
ATOM     19  C   UNL     1      45.298   6.487  12.513  0.00  0.00    +0.000 A 
ATOM     20  C   UNL     1      46.621   6.812  12.834  0.00  0.00    +0.000 A 
BRANCH  15  22
ATOM     21  C   UNL     1      49.183   7.441  12.924  0.00  0.00    +0.000 C 
ATOM     22  O   UNL     1      48.750   6.286  13.634  0.00  0.00    +0.000 OA
ENDBRANCH  15  22
ENDBRANCH  14  18
ENDBRANCH  13  14
ENDBRANCH   1  13
TORSDOF 6
ENDMDL
MODEL 3
REMARK VINA RESULT:    -6.960      1.703      2.586
REMARK INTER + INTRA:          -9.815
REMARK INTER:                  -9.409
REMARK INTRA:                  -0.406
REMARK UNBOUND:                -0.413
REMARK  Name = 
REMARK  7 active torsions:
REMARK  status: ('A' for Active; 'I' for Inactive)
REMARK    1  A    between atoms: C_1  and  O_2
REMARK    2  A    between atoms: O_2  and  C_3
REMARK    3  A    between atoms: C_6  and  C_7
REMARK    4  A    between atoms: C_7  and  C_8
REMARK    5  A    between atoms: C_8  and  O_9
REMARK    6  A    between atoms: O_9  and  C_10
REMARK    7  A    between atoms: C_13  and  C_14
REMARK                            x       y       z     vdW  Elec       q    Type
REMARK                         _______ _______ _______ _____ _____    ______ ____
ROOT
ATOM      1  O   UNL     1      43.726   4.066  12.383  0.00  0.00    +0.000 OA
ENDROOT
BRANCH   1   2
ATOM      2  C   UNL     1      44.875   4.689  12.834  0.00  0.00    +0.000 A 
ATOM      3  C   UNL     1      45.064   6.041  12.556  0.00  0.00    +0.000 A 
ATOM      4  N   UNL     1      46.158   6.740  12.976  0.00  0.00    +0.000 NA
ATOM      5  C   UNL     1      47.058   6.003  13.692  0.00  0.00    +0.000 A 
ATOM      6  C   UNL     1      46.871   4.659  13.962  0.00  0.00    +0.000 A 
ATOM      7  N   UNL     1      45.781   3.975  13.539  0.00  0.00    +0.000 NA
BRANCH   5   8
ATOM      8  C   UNL     1      48.280   6.673  14.209  0.00  0.00    +0.000 C 
ATOM      9  N   UNL     1      48.161   7.318  15.410  0.00  0.00    +0.000 N 
ATOM     10  O   UNL     1      49.342   6.648  13.601  0.00  0.00    +0.000 OA
ATOM     11  H   UNL     1      47.275   7.329  15.904  0.00  0.00    +0.000 HD
ATOM     12  H   UNL     1      48.970   7.780  15.800  0.00  0.00    +0.000 HD
ENDBRANCH   5   8
ENDBRANCH   1   2
BRANCH   1  13
ATOM     13  C   UNL     1      44.007   3.134  11.324  0.00  0.00    +0.000 C 
BRANCH  13  14
ATOM     14  C   UNL     1      43.977   3.849   9.976  0.00  0.00    +0.000 C 
BRANCH  14  18
ATOM     15  C   UNL     1      47.001   2.340   7.266  0.00  0.00    +0.000 A 
ATOM     16  C   UNL     1      46.691   3.698   7.292  0.00  0.00    +0.000 A 
ATOM     17  C   UNL     1      45.705   4.181   8.160  0.00  0.00    +0.000 A 
ATOM     18  C   UNL     1      45.020   3.315   9.021  0.00  0.00    +0.000 A 
ATOM     19  C   UNL     1      45.313   1.947   8.968  0.00  0.00    +0.000 A 
ATOM     20  C   UNL     1      46.300   1.465   8.099  0.00  0.00    +0.000 A 
BRANCH  15  22
ATOM     21  C   UNL     1      47.489   1.039   5.337  0.00  0.00    +0.000 C 
ATOM     22  O   UNL     1      47.955   1.752   6.478  0.00  0.00    +0.000 OA
ENDBRANCH  15  22
ENDBRANCH  14  18
ENDBRANCH  13  14
ENDBRANCH   1  13
TORSDOF 6
ENDMDL
MODEL 4
REMARK VINA RESULT:    -6.608      2.272      3.213
REMARK INTER + INTRA:          -9.339
REMARK INTER:                  -8.727
REMARK INTRA:                  -0.612
REMARK UNBOUND:                -0.413
REMARK  Name = 
REMARK  7 active torsions:
REMARK  status: ('A' for Active; 'I' for Inactive)
REMARK    1  A    between atoms: C_1  and  O_2
REMARK    2  A    between atoms: O_2  and  C_3
REMARK    3  A    between atoms: C_6  and  C_7
REMARK    4  A    between atoms: C_7  and  C_8
REMARK    5  A    between atoms: C_8  and  O_9
REMARK    6  A    between atoms: O_9  and  C_10
REMARK    7  A    between atoms: C_13  and  C_14
REMARK                            x       y       z     vdW  Elec       q    Type
REMARK                         _______ _______ _______ _____ _____    ______ ____
ROOT
ATOM      1  O   UNL     1      44.103   4.238  13.353  0.00  0.00    +0.000 OA
ENDROOT
BRANCH   1   2
ATOM      2  C   UNL     1      45.253   4.991  13.195  0.00  0.00    +0.000 A 
ATOM      3  C   UNL     1      46.473   4.453  13.599  0.00  0.00    +0.000 A 
ATOM      4  N   UNL     1      47.659   5.115  13.463  0.00  0.00    +0.000 NA
ATOM      5  C   UNL     1      47.551   6.355  12.899  0.00  0.00    +0.000 A 
ATOM      6  C   UNL     1      46.337   6.889  12.504  0.00  0.00    +0.000 A 
ATOM      7  N   UNL     1      45.167   6.222  12.644  0.00  0.00    +0.000 NA
BRANCH   5   8
ATOM      8  C   UNL     1      48.786   7.156  12.694  0.00  0.00    +0.000 C 
ATOM      9  N   UNL     1      49.726   7.092  13.685  0.00  0.00    +0.000 N 
ATOM     10  O   UNL     1      48.962   7.836  11.691  0.00  0.00    +0.000 OA
ATOM     11  H   UNL     1      49.569   6.523  14.511  0.00  0.00    +0.000 HD
ATOM     12  H   UNL     1      50.583   7.616  13.581  0.00  0.00    +0.000 HD
ENDBRANCH   5   8
ENDBRANCH   1   2
BRANCH   1  13
ATOM     13  C   UNL     1      44.045   3.153  12.411  0.00  0.00    +0.000 C 
BRANCH  13  14
ATOM     14  C   UNL     1      43.459   3.638  11.089  0.00  0.00    +0.000 C 
BRANCH  14  18
ATOM     15  C   UNL     1      46.203   3.170   7.769  0.00  0.00    +0.000 A 
ATOM     16  C   UNL     1      45.708   2.052   8.439  0.00  0.00    +0.000 A 
ATOM     17  C   UNL     1      44.831   2.207   9.519  0.00  0.00    +0.000 A 
ATOM     18  C   UNL     1      44.429   3.480   9.940  0.00  0.00    +0.000 A 
ATOM     19  C   UNL     1      44.954   4.600   9.284  0.00  0.00    +0.000 A 
ATOM     20  C   UNL     1      45.831   4.444   8.204  0.00  0.00    +0.000 A 
BRANCH  15  22
ATOM     21  C   UNL     1      47.987   2.079   6.641  0.00  0.00    +0.000 C 
ATOM     22  O   UNL     1      47.048   3.147   6.692  0.00  0.00    +0.000 OA
ENDBRANCH  15  22
ENDBRANCH  14  18
ENDBRANCH  13  14
ENDBRANCH   1  13
TORSDOF 6
ENDMDL
MODEL 5
REMARK VINA RESULT:    -6.578      1.945      2.478
REMARK INTER + INTRA:          -9.298
REMARK INTER:                  -8.836
REMARK INTRA:                  -0.462
REMARK UNBOUND:                -0.413
REMARK  Name = 
REMARK  7 active torsions:
REMARK  status: ('A' for Active; 'I' for Inactive)
REMARK    1  A    between atoms: C_1  and  O_2
REMARK    2  A    between atoms: O_2  and  C_3
REMARK    3  A    between atoms: C_6  and  C_7
REMARK    4  A    between atoms: C_7  and  C_8
REMARK    5  A    between atoms: C_8  and  O_9
REMARK    6  A    between atoms: O_9  and  C_10
REMARK    7  A    between atoms: C_13  and  C_14
REMARK                            x       y       z     vdW  Elec       q    Type
REMARK                         _______ _______ _______ _____ _____    ______ ____
ROOT
ATOM      1  O   UNL     1      44.994   4.362  11.945  0.00  0.00    +0.000 OA
ENDROOT
BRANCH   1   2
ATOM      2  C   UNL     1      46.029   5.068  12.531  0.00  0.00    +0.000 A 
ATOM      3  C   UNL     1      46.532   4.635  13.756  0.00  0.00    +0.000 A 
ATOM      4  N   UNL     1      47.564   5.258  14.397  0.00  0.00    +0.000 NA
ATOM      5  C   UNL     1      48.062   6.346  13.739  0.00  0.00    +0.000 A 
ATOM      6  C   UNL     1      47.556   6.777  12.525  0.00  0.00    +0.000 A 
ATOM      7  N   UNL     1      46.533   6.150  11.898  0.00  0.00    +0.000 NA
BRANCH   5   8
ATOM      8  C   UNL     1      49.197   7.090  14.346  0.00  0.00    +0.000 C 
ATOM      9  N   UNL     1      49.484   8.313  13.804  0.00  0.00    +0.000 N 
ATOM     10  O   UNL     1      49.842   6.641  15.284  0.00  0.00    +0.000 OA
ATOM     11  H   UNL     1      48.940   8.675  13.028  0.00  0.00    +0.000 HD
ATOM     12  H   UNL     1      50.243   8.854  14.193  0.00  0.00    +0.000 HD
ENDBRANCH   5   8
ENDBRANCH   1   2
BRANCH   1  13
ATOM     13  C   UNL     1      44.544   4.990  10.731  0.00  0.00    +0.000 C 
BRANCH  13  14
ATOM     14  C   UNL     1      43.973   3.942   9.780  0.00  0.00    +0.000 C 
BRANCH  14  18
ATOM     15  C   UNL     1      47.000   2.094   7.293  0.00  0.00    +0.000 A 
ATOM     16  C   UNL     1      46.226   1.320   8.155  0.00  0.00    +0.000 A 
ATOM     17  C   UNL     1      45.257   1.921   8.967  0.00  0.00    +0.000 A 
ATOM     18  C   UNL     1      45.041   3.304   8.922  0.00  0.00    +0.000 A 
ATOM     19  C   UNL     1      45.843   4.081   8.078  0.00  0.00    +0.000 A 
ATOM     20  C   UNL     1      46.812   3.478   7.266  0.00  0.00    +0.000 A 
BRANCH  15  22
ATOM     21  C   UNL     1      47.507   1.053   5.218  0.00  0.00    +0.000 C 
ATOM     22  O   UNL     1      47.962   1.622   6.440  0.00  0.00    +0.000 OA
ENDBRANCH  15  22
ENDBRANCH  14  18
ENDBRANCH  13  14
ENDBRANCH   1  13
TORSDOF 6
ENDMDL
MODEL 6
REMARK VINA RESULT:    -6.244      4.596      9.019
REMARK INTER + INTRA:          -8.848
REMARK INTER:                  -8.469
REMARK INTRA:                  -0.379
REMARK UNBOUND:                -0.413
REMARK  Name = 
REMARK  7 active torsions:
REMARK  status: ('A' for Active; 'I' for Inactive)
REMARK    1  A    between atoms: C_1  and  O_2
REMARK    2  A    between atoms: O_2  and  C_3
REMARK    3  A    between atoms: C_6  and  C_7
REMARK    4  A    between atoms: C_7  and  C_8
REMARK    5  A    between atoms: C_8  and  O_9
REMARK    6  A    between atoms: O_9  and  C_10
REMARK    7  A    between atoms: C_13  and  C_14
REMARK                            x       y       z     vdW  Elec       q    Type
REMARK                         _______ _______ _______ _____ _____    ______ ____
ROOT
ATOM      1  O   UNL     1      47.510   3.736  14.478  0.00  0.00    +0.000 OA
ENDROOT
BRANCH   1   2
ATOM      2  C   UNL     1      46.450   4.089  13.663  0.00  0.00    +0.000 A 
ATOM      3  C   UNL     1      46.038   5.420  13.630  0.00  0.00    +0.000 A 
ATOM      4  N   UNL     1      45.015   5.861  12.842  0.00  0.00    +0.000 NA
ATOM      5  C   UNL     1      44.423   4.887  12.088  0.00  0.00    +0.000 A 
ATOM      6  C   UNL     1      44.830   3.566  12.127  0.00  0.00    +0.000 A 
ATOM      7  N   UNL     1      45.848   3.140  12.913  0.00  0.00    +0.000 NA
BRANCH   5   8
ATOM      8  C   UNL     1      43.305   5.265  11.184  0.00  0.00    +0.000 C 
ATOM      9  N   UNL     1      42.306   6.023  11.732  0.00  0.00    +0.000 N 
ATOM     10  O   UNL     1      43.275   4.923  10.009  0.00  0.00    +0.000 OA
ATOM     11  H   UNL     1      42.345   6.301  12.707  0.00  0.00    +0.000 HD
ATOM     12  H   UNL     1      41.532   6.307  11.150  0.00  0.00    +0.000 HD
ENDBRANCH   5   8
ENDBRANCH   1   2
BRANCH   1  13
ATOM     13  C   UNL     1      47.348   4.249  15.812  0.00  0.00    +0.000 C 
BRANCH  13  14
ATOM     14  C   UNL     1      47.689   3.169  16.834  0.00  0.00    +0.000 C 
BRANCH  14  18
ATOM     15  C   UNL     1      51.911   3.061  17.802  0.00  0.00    +0.000 A 
ATOM     16  C   UNL     1      51.187   4.246  17.928  0.00  0.00    +0.000 A 
ATOM     17  C   UNL     1      49.826   4.281  17.603  0.00  0.00    +0.000 A 
ATOM     18  C   UNL     1      49.166   3.130  17.155  0.00  0.00    +0.000 A 
ATOM     19  C   UNL     1      49.904   1.951  17.000  0.00  0.00    +0.000 A 
ATOM     20  C   UNL     1      51.266   1.917  17.326  0.00  0.00    +0.000 A 
BRANCH  15  22
ATOM     21  C   UNL     1      53.670   1.567  18.369  0.00  0.00    +0.000 C 
ATOM     22  O   UNL     1      53.236   2.897  18.105  0.00  0.00    +0.000 OA
ENDBRANCH  15  22
ENDBRANCH  14  18
ENDBRANCH  13  14
ENDBRANCH   1  13
TORSDOF 6
ENDMDL
MODEL 7
REMARK VINA RESULT:    -5.998      2.432      4.633
REMARK INTER + INTRA:          -8.515
REMARK INTER:                  -8.122
REMARK INTRA:                  -0.393
REMARK UNBOUND:                -0.413
REMARK  Name = 
REMARK  7 active torsions:
REMARK  status: ('A' for Active; 'I' for Inactive)
REMARK    1  A    between atoms: C_1  and  O_2
REMARK    2  A    between atoms: O_2  and  C_3
REMARK    3  A    between atoms: C_6  and  C_7
REMARK    4  A    between atoms: C_7  and  C_8
REMARK    5  A    between atoms: C_8  and  O_9
REMARK    6  A    between atoms: O_9  and  C_10
REMARK    7  A    between atoms: C_13  and  C_14
REMARK                            x       y       z     vdW  Elec       q    Type
REMARK                         _______ _______ _______ _____ _____    ______ ____
ROOT
ATOM      1  O   UNL     1      46.585   3.810  13.797  0.00  0.00    +0.000 OA
ENDROOT
BRANCH   1   2
ATOM      2  C   UNL     1      47.329   3.859  14.962  0.00  0.00    +0.000 A 
ATOM      3  C   UNL     1      47.539   5.091  15.579  0.00  0.00    +0.000 A 
ATOM      4  N   UNL     1      48.243   5.231  16.739  0.00  0.00    +0.000 NA
ATOM      5  C   UNL     1      48.731   4.061  17.247  0.00  0.00    +0.000 A 
ATOM      6  C   UNL     1      48.527   2.840  16.630  0.00  0.00    +0.000 A 
ATOM      7  N   UNL     1      47.825   2.713  15.479  0.00  0.00    +0.000 NA
BRANCH   5   8
ATOM      8  C   UNL     1      49.503   4.100  18.517  0.00  0.00    +0.000 C 
ATOM      9  N   UNL     1      50.746   3.529  18.494  0.00  0.00    +0.000 N 
ATOM     10  O   UNL     1      49.059   4.620  19.533  0.00  0.00    +0.000 OA
ATOM     11  H   UNL     1      51.103   3.104  17.644  0.00  0.00    +0.000 HD
ATOM     12  H   UNL     1      51.306   3.541  19.334  0.00  0.00    +0.000 HD
ENDBRANCH   5   8
ENDBRANCH   1   2
BRANCH   1  13
ATOM     13  C   UNL     1      45.713   4.948  13.677  0.00  0.00    +0.000 C 
BRANCH  13  14
ATOM     14  C   UNL     1      44.490   4.583  12.840  0.00  0.00    +0.000 C 
BRANCH  14  18
ATOM     15  C   UNL     1      45.422   4.032   8.645  0.00  0.00    +0.000 A 
ATOM     16  C   UNL     1      44.859   2.994   9.386  0.00  0.00    +0.000 A 
ATOM     17  C   UNL     1      44.570   3.171  10.744  0.00  0.00    +0.000 A 
ATOM     18  C   UNL     1      44.832   4.391  11.380  0.00  0.00    +0.000 A 
ATOM     19  C   UNL     1      45.427   5.419  10.640  0.00  0.00    +0.000 A 
ATOM     20  C   UNL     1      45.715   5.240   9.281  0.00  0.00    +0.000 A 
BRANCH  15  22
ATOM     21  C   UNL     1      46.570   2.918   6.887  0.00  0.00    +0.000 C 
ATOM     22  O   UNL     1      45.732   3.987   7.312  0.00  0.00    +0.000 OA
ENDBRANCH  15  22
ENDBRANCH  14  18
ENDBRANCH  13  14
ENDBRANCH   1  13
TORSDOF 6
ENDMDL
MODEL 8
REMARK VINA RESULT:    -5.858      4.341      8.854
REMARK INTER + INTRA:          -8.326
REMARK INTER:                  -7.975
REMARK INTRA:                  -0.350
REMARK UNBOUND:                -0.413
REMARK  Name = 
REMARK  7 active torsions:
REMARK  status: ('A' for Active; 'I' for Inactive)
REMARK    1  A    between atoms: C_1  and  O_2
REMARK    2  A    between atoms: O_2  and  C_3
REMARK    3  A    between atoms: C_6  and  C_7
REMARK    4  A    between atoms: C_7  and  C_8
REMARK    5  A    between atoms: C_8  and  O_9
REMARK    6  A    between atoms: O_9  and  C_10
REMARK    7  A    between atoms: C_13  and  C_14
REMARK                            x       y       z     vdW  Elec       q    Type
REMARK                         _______ _______ _______ _____ _____    ______ ____
ROOT
ATOM      1  O   UNL     1      47.777   5.086  14.822  0.00  0.00    +0.000 OA
ENDROOT
BRANCH   1   2
ATOM      2  C   UNL     1      46.818   4.830  13.859  0.00  0.00    +0.000 A 
ATOM      3  C   UNL     1      46.537   3.508  13.519  0.00  0.00    +0.000 A 
ATOM      4  N   UNL     1      45.595   3.162  12.595  0.00  0.00    +0.000 NA
ATOM      5  C   UNL     1      44.950   4.222  12.024  0.00  0.00    +0.000 A 
ATOM      6  C   UNL     1      45.235   5.534  12.358  0.00  0.00    +0.000 A 
ATOM      7  N   UNL     1      46.172   5.865  13.278  0.00  0.00    +0.000 NA
BRANCH   5   8
ATOM      8  C   UNL     1      43.894   3.955  11.012  0.00  0.00    +0.000 C 
ATOM      9  N   UNL     1      43.820   4.829   9.962  0.00  0.00    +0.000 N 
ATOM     10  O   UNL     1      43.131   3.002  11.103  0.00  0.00    +0.000 OA
ATOM     11  H   UNL     1      44.460   5.614   9.897  0.00  0.00    +0.000 HD
ATOM     12  H   UNL     1      43.121   4.679   9.248  0.00  0.00    +0.000 HD
ENDBRANCH   5   8
ENDBRANCH   1   2
BRANCH   1  13
ATOM     13  C   UNL     1      47.489   4.397  16.052  0.00  0.00    +0.000 C 
BRANCH  13  14
ATOM     14  C   UNL     1      48.377   4.933  17.172  0.00  0.00    +0.000 C 
BRANCH  14  18
ATOM     15  C   UNL     1      51.934   2.515  17.696  0.00  0.00    +0.000 A 
ATOM     16  C   UNL     1      50.722   1.923  17.344  0.00  0.00    +0.000 A 
ATOM     17  C   UNL     1      49.572   2.704  17.187  0.00  0.00    +0.000 A 
ATOM     18  C   UNL     1      49.617   4.091  17.372  0.00  0.00    +0.000 A 
ATOM     19  C   UNL     1      50.829   4.678  17.756  0.00  0.00    +0.000 A 
ATOM     20  C   UNL     1      51.979   3.894  17.912  0.00  0.00    +0.000 A 
BRANCH  15  22
ATOM     21  C   UNL     1      53.206   0.541  17.338  0.00  0.00    +0.000 C 
ATOM     22  O   UNL     1      53.126   1.863  17.860  0.00  0.00    +0.000 OA
ENDBRANCH  15  22
ENDBRANCH  14  18
ENDBRANCH  13  14
ENDBRANCH   1  13
TORSDOF 6
ENDMDL
MODEL 9
REMARK VINA RESULT:    -5.680      2.423      3.579
REMARK INTER + INTRA:          -8.085
REMARK INTER:                  -7.768
REMARK INTRA:                  -0.317
REMARK UNBOUND:                -0.413
REMARK  Name = 
REMARK  7 active torsions:
REMARK  status: ('A' for Active; 'I' for Inactive)
REMARK    1  A    between atoms: C_1  and  O_2
REMARK    2  A    between atoms: O_2  and  C_3
REMARK    3  A    between atoms: C_6  and  C_7
REMARK    4  A    between atoms: C_7  and  C_8
REMARK    5  A    between atoms: C_8  and  O_9
REMARK    6  A    between atoms: O_9  and  C_10
REMARK    7  A    between atoms: C_13  and  C_14
REMARK                            x       y       z     vdW  Elec       q    Type
REMARK                         _______ _______ _______ _____ _____    ______ ____
ROOT
ATOM      1  O   UNL     1      45.580   3.779   7.327  0.00  0.00    +0.000 OA
ENDROOT
BRANCH   1   2
ATOM      2  C   UNL     1      45.142   3.902   8.633  0.00  0.00    +0.000 A 
ATOM      3  C   UNL     1      45.481   5.044   9.355  0.00  0.00    +0.000 A 
ATOM      4  N   UNL     1      45.077   5.257  10.641  0.00  0.00    +0.000 NA
ATOM      5  C   UNL     1      44.313   4.254  11.166  0.00  0.00    +0.000 A 
ATOM      6  C   UNL     1      43.982   3.118  10.449  0.00  0.00    +0.000 A 
ATOM      7  N   UNL     1      44.389   2.918   9.173  0.00  0.00    +0.000 NA
BRANCH   5   8
ATOM      8  C   UNL     1      43.809   4.394  12.558  0.00  0.00    +0.000 C 
ATOM      9  N   UNL     1      43.490   5.659  12.967  0.00  0.00    +0.000 N 
ATOM     10  O   UNL     1      43.679   3.430  13.302  0.00  0.00    +0.000 OA
ATOM     11  H   UNL     1      43.600   6.449  12.339  0.00  0.00    +0.000 HD
ATOM     12  H   UNL     1      43.137   5.796  13.903  0.00  0.00    +0.000 HD
ENDBRANCH   5   8
ENDBRANCH   1   2
BRANCH   1  13
ATOM     13  C   UNL     1      46.658   2.833   7.216  0.00  0.00    +0.000 C 
BRANCH  13  14
ATOM     14  C   UNL     1      47.270   2.898   5.819  0.00  0.00    +0.000 C 
BRANCH  14  18
ATOM     15  C   UNL     1      46.512  -0.668   3.479  0.00  0.00    +0.000 A 
ATOM     16  C   UNL     1      46.161   0.588   2.987  0.00  0.00    +0.000 A 
ATOM     17  C   UNL     1      46.396   1.737   3.750  0.00  0.00    +0.000 A 
ATOM     18  C   UNL     1      46.993   1.650   5.013  0.00  0.00    +0.000 A 
ATOM     19  C   UNL     1      47.315   0.384   5.517  0.00  0.00    +0.000 A 
ATOM     20  C   UNL     1      47.080  -0.765   4.752  0.00  0.00    +0.000 A 
BRANCH  15  22
ATOM     21  C   UNL     1      47.531  -2.615   2.575  0.00  0.00    +0.000 C 
ATOM     22  O   UNL     1      46.351  -1.859   2.823  0.00  0.00    +0.000 OA
ENDBRANCH  15  22
ENDBRANCH  14  18
ENDBRANCH  13  14
ENDBRANCH   1  13
TORSDOF 6
ENDMDL
