MODEL 1
REMARK VINA RESULT:    -8.367      0.000      0.000
REMARK INTER + INTRA:         -12.135
REMARK INTER:                 -11.302
REMARK INTRA:                  -0.833
REMARK UNBOUND:                -0.833
REMARK  Name = 
REMARK  6 active torsions:
REMARK  status: ('A' for Active; 'I' for Inactive)
REMARK    1  A    between atoms: C_2  and  C_4
REMARK    2  A    between atoms: C_7  and  O_8
REMARK    3  A    between atoms: O_8  and  C_9
REMARK    4  A    between atoms: C_9  and  C_10
REMARK    5  A    between atoms: C_11  and  C_12
REMARK    6  A    between atoms: C_14  and  C_15
REMARK                            x       y       z     vdW  Elec       q    Type
REMARK                         _______ _______ _______ _____ _____    ______ ____
ROOT
ATOM      1  C   UNL     1      44.805   3.701  12.026  0.00  0.00    +0.000 C 
ATOM      2  C   UNL     1      45.227   4.976  11.999  0.00  0.00    +0.000 C 
ENDROOT
BRANCH   2   3
ATOM      3  C   UNL     1      46.297   5.503  12.859  0.00  0.00    +0.000 A 
ATOM      4  C   UNL     1      46.586   4.936  14.111  0.00  0.00    +0.000 A 
ATOM      5  C   UNL     1      47.646   5.389  14.920  0.00  0.00    +0.000 A 
ATOM      6  C   UNL     1      48.389   6.487  14.449  0.00  0.00    +0.000 A 
ATOM      7  C   UNL     1      48.081   7.103  13.233  0.00  0.00    +0.000 A 
ATOM      8  C   UNL     1      47.044   6.609  12.450  0.00  0.00    +0.000 A 
ATOM      9  F   UNL     1      46.784   7.211  11.279  0.00  0.00    +0.000 F 
BRANCH   5  10
ATOM     10  C   UNL     1      47.960   4.720  16.205  0.00  0.00    +0.000 A 
ATOM     11  C   UNL     1      47.253   3.575  16.626  0.00  0.00    +0.000 A 
ATOM     12  C   UNL     1      47.535   2.944  17.842  0.00  0.00    +0.000 A 
ATOM     13  C   UNL     1      48.546   3.435  18.660  0.00  0.00    +0.000 A 
ATOM     14  C   UNL     1      49.266   4.558  18.267  0.00  0.00    +0.000 A 
ATOM     15  C   UNL     1      48.971   5.197  17.057  0.00  0.00    +0.000 A 
ENDBRANCH   5  10
ENDBRANCH   2   3
BRANCH   1  16
ATOM     16  C   UNL     1      43.762   3.140  11.113  0.00  0.00    +0.000 C 
BRANCH  16  17
ATOM     17  O   UNL     1      43.810   3.876   9.889  0.00  0.00    +0.000 OA
BRANCH  17  21
ATOM     18  C   UNL     1      46.617   2.277   7.340  0.00  0.00    +0.000 A 
ATOM     19  C   UNL     1      45.973   1.448   8.263  0.00  0.00    +0.000 A 
ATOM     20  C   UNL     1      45.019   2.001   9.122  0.00  0.00    +0.000 A 
ATOM     21  C   UNL     1      44.744   3.357   9.019  0.00  0.00    +0.000 A 
ATOM     22  N   UNL     1      45.357   4.177   8.137  0.00  0.00    +0.000 NA
ATOM     23  C   UNL     1      46.284   3.623   7.325  0.00  0.00    +0.000 A 
BRANCH  18  25
ATOM     24  N   UNL     1      48.798   2.548   6.306  0.00  0.00    +0.000 N 
ATOM     25  C   UNL     1      47.656   1.808   6.402  0.00  0.00    +0.000 C 
ATOM     26  O   UNL     1      47.517   0.772   5.766  0.00  0.00    +0.000 OA
ATOM     27  H   UNL     1      49.540   2.144   5.748  0.00  0.00    +0.000 HD
ATOM     28  H   UNL     1      49.057   3.246   6.989  0.00  0.00    +0.000 HD
ENDBRANCH  18  25
ENDBRANCH  17  21
ENDBRANCH  16  17
ENDBRANCH   1  16
TORSDOF 6
ENDMDL
MODEL 2
REMARK VINA RESULT:    -8.031      2.115      4.481
REMARK INTER + INTRA:         -11.681
REMARK INTER:                 -10.622
REMARK INTRA:                  -1.059
REMARK UNBOUND:                -0.833
REMARK  Name = 
REMARK  6 active torsions:
REMARK  status: ('A' for Active; 'I' for Inactive)
REMARK    1  A    between atoms: C_2  and  C_4
REMARK    2  A    between atoms: C_7  and  O_8
REMARK    3  A    between atoms: O_8  and  C_9
REMARK    4  A    between atoms: C_9  and  C_10
REMARK    5  A    between atoms: C_11  and  C_12
REMARK    6  A    between atoms: C_14  and  C_15
REMARK                            x       y       z     vdW  Elec       q    Type
REMARK                         _______ _______ _______ _____ _____    ______ ____
ROOT
ATOM      1  C   UNL     1      44.958   5.085  11.592  0.00  0.00    +0.000 C 
ATOM      2  C   UNL     1      45.838   4.721  12.540  0.00  0.00    +0.000 C 
ENDROOT
BRANCH   2   3
ATOM      3  C   UNL     1      46.851   5.624  13.106  0.00  0.00    +0.000 A 
ATOM      4  C   UNL     1      47.341   6.728  12.389  0.00  0.00    +0.000 A 
ATOM      5  C   UNL     1      48.266   7.637  12.939  0.00  0.00    +0.000 A 
ATOM      6  C   UNL     1      48.736   7.369  14.237  0.00  0.00    +0.000 A 
ATOM      7  C   UNL     1      48.305   6.244  14.946  0.00  0.00    +0.000 A 
ATOM      8  C   UNL     1      47.370   5.385  14.379  0.00  0.00    +0.000 A 
ATOM      9  F   UNL     1      46.962   4.323  15.092  0.00  0.00    +0.000 F 
BRANCH   5  10
ATOM     10  C   UNL     1      48.708   8.826  12.172  0.00  0.00    +0.000 A 
ATOM     11  C   UNL     1      50.045   8.968  11.747  0.00  0.00    +0.000 A 
ATOM     12  C   UNL     1      50.473  10.092  11.033  0.00  0.00    +0.000 A 
ATOM     13  C   UNL     1      49.567  11.097  10.713  0.00  0.00    +0.000 A 
ATOM     14  C   UNL     1      48.240  10.980  11.113  0.00  0.00    +0.000 A 
ATOM     15  C   UNL     1      47.818   9.862  11.840  0.00  0.00    +0.000 A 
ENDBRANCH   5  10
ENDBRANCH   2   3
BRANCH   1  16
ATOM     16  C   UNL     1      43.883   4.194  11.056  0.00  0.00    +0.000 C 
BRANCH  16  17
ATOM     17  O   UNL     1      43.744   4.466   9.660  0.00  0.00    +0.000 OA
BRANCH  17  21
ATOM     18  C   UNL     1      46.546   2.384   7.482  0.00  0.00    +0.000 A 
ATOM     19  C   UNL     1      45.751   1.705   8.410  0.00  0.00    +0.000 A 
ATOM     20  C   UNL     1      44.800   2.422   9.142  0.00  0.00    +0.000 A 
ATOM     21  C   UNL     1      44.679   3.784   8.912  0.00  0.00    +0.000 A 
ATOM     22  N   UNL     1      45.440   4.462   8.024  0.00  0.00    +0.000 NA
ATOM     23  C   UNL     1      46.360   3.751   7.337  0.00  0.00    +0.000 A 
BRANCH  18  25
ATOM     24  N   UNL     1      48.752   2.430   6.467  0.00  0.00    +0.000 N 
ATOM     25  C   UNL     1      47.595   1.736   6.672  0.00  0.00    +0.000 C 
ATOM     26  O   UNL     1      47.452   0.601   6.236  0.00  0.00    +0.000 OA
ATOM     27  H   UNL     1      49.498   1.920   6.011  0.00  0.00    +0.000 HD
ATOM     28  H   UNL     1      49.009   3.239   7.015  0.00  0.00    +0.000 HD
ENDBRANCH  18  25
ENDBRANCH  17  21
ENDBRANCH  16  17
ENDBRANCH   1  16
TORSDOF 6
ENDMDL
MODEL 3
REMARK VINA RESULT:    -7.945      3.264      4.763
REMARK INTER + INTRA:         -11.565
REMARK INTER:                 -10.617
REMARK INTRA:                  -0.948
REMARK UNBOUND:                -0.833
REMARK  Name = 
REMARK  6 active torsions:
REMARK  status: ('A' for Active; 'I' for Inactive)
REMARK    1  A    between atoms: C_2  and  C_4
REMARK    2  A    between atoms: C_7  and  O_8
REMARK    3  A    between atoms: O_8  and  C_9
REMARK    4  A    between atoms: C_9  and  C_10
REMARK    5  A    between atoms: C_11  and  C_12
REMARK    6  A    between atoms: C_14  and  C_15
REMARK                            x       y       z     vdW  Elec       q    Type
REMARK                         _______ _______ _______ _____ _____    ______ ____
ROOT
ATOM      1  C   UNL     1      45.322   5.807  11.149  0.00  0.00    +0.000 C 
ATOM      2  C   UNL     1      46.210   6.157  12.094  0.00  0.00    +0.000 C 
ENDROOT
BRANCH   2   3
ATOM      3  C   UNL     1      46.974   7.413  12.074  0.00  0.00    +0.000 A 
ATOM      4  C   UNL     1      48.339   7.443  11.745  0.00  0.00    +0.000 A 
ATOM      5  C   UNL     1      49.071   8.644  11.662  0.00  0.00    +0.000 A 
ATOM      6  C   UNL     1      48.391   9.834  11.978  0.00  0.00    +0.000 A 
ATOM      7  C   UNL     1      47.048   9.821  12.365  0.00  0.00    +0.000 A 
ATOM      8  C   UNL     1      46.352   8.618  12.409  0.00  0.00    +0.000 A 
ATOM      9  F   UNL     1      45.059   8.639  12.766  0.00  0.00    +0.000 F 
BRANCH   5  10
ATOM     10  C   UNL     1      50.494   8.638  11.246  0.00  0.00    +0.000 A 
ATOM     11  C   UNL     1      51.285   9.802  11.325  0.00  0.00    +0.000 A 
ATOM     12  C   UNL     1      52.626   9.808  10.925  0.00  0.00    +0.000 A 
ATOM     13  C   UNL     1      53.212   8.641  10.449  0.00  0.00    +0.000 A 
ATOM     14  C   UNL     1      52.458   7.475  10.367  0.00  0.00    +0.000 A 
ATOM     15  C   UNL     1      51.114   7.476  10.754  0.00  0.00    +0.000 A 
ENDBRANCH   5  10
ENDBRANCH   2   3
BRANCH   1  16
ATOM     16  C   UNL     1      44.494   4.562  11.193  0.00  0.00    +0.000 C 
BRANCH  16  17
ATOM     17  O   UNL     1      43.933   4.362   9.894  0.00  0.00    +0.000 OA
BRANCH  17  21
ATOM     18  C   UNL     1      46.572   2.373   7.443  0.00  0.00    +0.000 A 
ATOM     19  C   UNL     1      45.916   1.674   8.460  0.00  0.00    +0.000 A 
ATOM     20  C   UNL     1      45.019   2.359   9.285  0.00  0.00    +0.000 A 
ATOM     21  C   UNL     1      44.811   3.711   9.055  0.00  0.00    +0.000 A 
ATOM     22  N   UNL     1      45.437   4.408   8.081  0.00  0.00    +0.000 NA
ATOM     23  C   UNL     1      46.308   3.728   7.304  0.00  0.00    +0.000 A 
BRANCH  18  25
ATOM     24  N   UNL     1      48.728   2.427   6.324  0.00  0.00    +0.000 N 
ATOM     25  C   UNL     1      47.555   1.760   6.529  0.00  0.00    +0.000 C 
ATOM     26  O   UNL     1      47.346   0.672   6.007  0.00  0.00    +0.000 OA
ATOM     27  H   UNL     1      49.430   1.932   5.789  0.00  0.00    +0.000 HD
ATOM     28  H   UNL     1      49.042   3.177   6.924  0.00  0.00    +0.000 HD
ENDBRANCH  18  25
ENDBRANCH  17  21
ENDBRANCH  16  17
ENDBRANCH   1  16
TORSDOF 6
ENDMDL
MODEL 4
REMARK VINA RESULT:    -7.740      1.582      2.382
REMARK INTER + INTRA:         -11.288
REMARK INTER:                 -10.294
REMARK INTRA:                  -0.993
REMARK UNBOUND:                -0.833
REMARK  Name = 
REMARK  6 active torsions:
REMARK  status: ('A' for Active; 'I' for Inactive)
REMARK    1  A    between atoms: C_2  and  C_4
REMARK    2  A    between atoms: C_7  and  O_8
REMARK    3  A    between atoms: O_8  and  C_9
REMARK    4  A    between atoms: C_9  and  C_10
REMARK    5  A    between atoms: C_11  and  C_12
REMARK    6  A    between atoms: C_14  and  C_15
REMARK                            x       y       z     vdW  Elec       q    Type
REMARK                         _______ _______ _______ _____ _____    ______ ____
ROOT
ATOM      1  C   UNL     1      45.110   4.601  11.853  0.00  0.00    +0.000 C 
ATOM      2  C   UNL     1      44.790   5.900  11.971  0.00  0.00    +0.000 C 
ENDROOT
BRANCH   2   3
ATOM      3  C   UNL     1      45.721   6.932  12.451  0.00  0.00    +0.000 A 
ATOM      4  C   UNL     1      46.743   6.637  13.369  0.00  0.00    +0.000 A 
ATOM      5  C   UNL     1      47.680   7.599  13.793  0.00  0.00    +0.000 A 
ATOM      6  C   UNL     1      47.525   8.907  13.300  0.00  0.00    +0.000 A 
ATOM      7  C   UNL     1      46.480   9.236  12.432  0.00  0.00    +0.000 A 
ATOM      8  C   UNL     1      45.591   8.252  12.015  0.00  0.00    +0.000 A 
ATOM      9  F   UNL     1      44.609   8.594  11.167  0.00  0.00    +0.000 F 
BRANCH   5  10
ATOM     10  C   UNL     1      48.784   7.230  14.711  0.00  0.00    +0.000 A 
ATOM     11  C   UNL     1      50.088   7.735  14.529  0.00  0.00    +0.000 A 
ATOM     12  C   UNL     1      51.137   7.383  15.385  0.00  0.00    +0.000 A 
ATOM     13  C   UNL     1      50.902   6.528  16.455  0.00  0.00    +0.000 A 
ATOM     14  C   UNL     1      49.624   6.021  16.664  0.00  0.00    +0.000 A 
ATOM     15  C   UNL     1      48.580   6.362  15.798  0.00  0.00    +0.000 A 
ENDBRANCH   5  10
ENDBRANCH   2   3
BRANCH   1  16
ATOM     16  C   UNL     1      44.192   3.555  11.306  0.00  0.00    +0.000 C 
BRANCH  16  17
ATOM     17  O   UNL     1      43.868   3.915   9.962  0.00  0.00    +0.000 OA
BRANCH  17  21
ATOM     18  C   UNL     1      46.607   2.333   7.330  0.00  0.00    +0.000 A 
ATOM     19  C   UNL     1      46.009   1.504   8.283  0.00  0.00    +0.000 A 
ATOM     20  C   UNL     1      45.077   2.051   9.171  0.00  0.00    +0.000 A 
ATOM     21  C   UNL     1      44.778   3.401   9.064  0.00  0.00    +0.000 A 
ATOM     22  N   UNL     1      45.347   4.222   8.153  0.00  0.00    +0.000 NA
ATOM     23  C   UNL     1      46.252   3.673   7.314  0.00  0.00    +0.000 A 
BRANCH  18  25
ATOM     24  N   UNL     1      48.798   2.554   6.306  0.00  0.00    +0.000 N 
ATOM     25  C   UNL     1      47.618   1.870   6.360  0.00  0.00    +0.000 C 
ATOM     26  O   UNL     1      47.425   0.884   5.661  0.00  0.00    +0.000 OA
ATOM     27  H   UNL     1      49.517   2.147   5.720  0.00  0.00    +0.000 HD
ATOM     28  H   UNL     1      49.094   3.193   7.030  0.00  0.00    +0.000 HD
ENDBRANCH  18  25
ENDBRANCH  17  21
ENDBRANCH  16  17
ENDBRANCH   1  16
TORSDOF 6
ENDMDL
MODEL 5
REMARK VINA RESULT:    -7.619      4.645      7.990
REMARK INTER + INTRA:         -11.124
REMARK INTER:                 -10.145
REMARK INTRA:                  -0.979
REMARK UNBOUND:                -0.833
REMARK  Name = 
REMARK  6 active torsions:
REMARK  status: ('A' for Active; 'I' for Inactive)
REMARK    1  A    between atoms: C_2  and  C_4
REMARK    2  A    between atoms: C_7  and  O_8
REMARK    3  A    between atoms: O_8  and  C_9
REMARK    4  A    between atoms: C_9  and  C_10
REMARK    5  A    between atoms: C_11  and  C_12
REMARK    6  A    between atoms: C_14  and  C_15
REMARK                            x       y       z     vdW  Elec       q    Type
REMARK                         _______ _______ _______ _____ _____    ______ ____
ROOT
ATOM      1  C   UNL     1      45.368   6.938  12.288  0.00  0.00    +0.000 C 
ATOM      2  C   UNL     1      44.833   6.576  11.110  0.00  0.00    +0.000 C 
ENDROOT
BRANCH   2   3
ATOM      3  C   UNL     1      44.634   5.179  10.696  0.00  0.00    +0.000 A 
ATOM      4  C   UNL     1      45.298   4.635   9.584  0.00  0.00    +0.000 A 
ATOM      5  C   UNL     1      45.165   3.284   9.210  0.00  0.00    +0.000 A 
ATOM      6  C   UNL     1      44.284   2.491   9.969  0.00  0.00    +0.000 A 
ATOM      7  C   UNL     1      43.569   3.027  11.043  0.00  0.00    +0.000 A 
ATOM      8  C   UNL     1      43.748   4.360  11.398  0.00  0.00    +0.000 A 
ATOM      9  F   UNL     1      43.061   4.841  12.446  0.00  0.00    +0.000 F 
BRANCH   5  10
ATOM     10  C   UNL     1      45.935   2.733   8.070  0.00  0.00    +0.000 A 
ATOM     11  C   UNL     1      46.217   3.514   6.930  0.00  0.00    +0.000 A 
ATOM     12  C   UNL     1      46.934   2.999   5.845  0.00  0.00    +0.000 A 
ATOM     13  C   UNL     1      47.400   1.691   5.882  0.00  0.00    +0.000 A 
ATOM     14  C   UNL     1      47.144   0.898   6.996  0.00  0.00    +0.000 A 
ATOM     15  C   UNL     1      46.414   1.412   8.073  0.00  0.00    +0.000 A 
ENDBRANCH   5  10
ENDBRANCH   2   3
BRANCH   1  16
ATOM     16  C   UNL     1      45.517   8.354  12.745  0.00  0.00    +0.000 C 
BRANCH  16  17
ATOM     17  O   UNL     1      46.612   8.407  13.661  0.00  0.00    +0.000 OA
BRANCH  17  21
ATOM     18  C   UNL     1      50.197   8.532  11.647  0.00  0.00    +0.000 A 
ATOM     19  C   UNL     1      49.223   9.497  11.380  0.00  0.00    +0.000 A 
ATOM     20  C   UNL     1      48.009   9.447  12.072  0.00  0.00    +0.000 A 
ATOM     21  C   UNL     1      47.823   8.439  13.006  0.00  0.00    +0.000 A 
ATOM     22  N   UNL     1      48.749   7.493  13.278  0.00  0.00    +0.000 NA
ATOM     23  C   UNL     1      49.909   7.554  12.588  0.00  0.00    +0.000 A 
BRANCH  18  25
ATOM     24  N   UNL     1      52.131   7.262  10.906  0.00  0.00    +0.000 N 
ATOM     25  C   UNL     1      51.503   8.473  10.962  0.00  0.00    +0.000 C 
ATOM     26  O   UNL     1      51.985   9.461  10.426  0.00  0.00    +0.000 OA
ATOM     27  H   UNL     1      52.964   7.224  10.332  0.00  0.00    +0.000 HD
ATOM     28  H   UNL     1      51.658   6.391  11.100  0.00  0.00    +0.000 HD
ENDBRANCH  18  25
ENDBRANCH  17  21
ENDBRANCH  16  17
ENDBRANCH   1  16
TORSDOF 6
ENDMDL
MODEL 6
REMARK VINA RESULT:    -7.524      4.437      8.699
REMARK INTER + INTRA:         -10.996
REMARK INTER:                 -10.184
REMARK INTRA:                  -0.812
REMARK UNBOUND:                -0.833
REMARK  Name = 
REMARK  6 active torsions:
REMARK  status: ('A' for Active; 'I' for Inactive)
REMARK    1  A    between atoms: C_2  and  C_4
REMARK    2  A    between atoms: C_7  and  O_8
REMARK    3  A    between atoms: O_8  and  C_9
REMARK    4  A    between atoms: C_9  and  C_10
REMARK    5  A    between atoms: C_11  and  C_12
REMARK    6  A    between atoms: C_14  and  C_15
REMARK                            x       y       z     vdW  Elec       q    Type
REMARK                         _______ _______ _______ _____ _____    ______ ____
ROOT
ATOM      1  C   UNL     1      46.393   4.352  14.324  0.00  0.00    +0.000 C 
ATOM      2  C   UNL     1      46.014   5.260  13.410  0.00  0.00    +0.000 C 
ENDROOT
BRANCH   2   3
ATOM      3  C   UNL     1      45.202   4.940  12.226  0.00  0.00    +0.000 A 
ATOM      4  C   UNL     1      45.767   4.375  11.072  0.00  0.00    +0.000 A 
ATOM      5  C   UNL     1      44.994   4.007   9.953  0.00  0.00    +0.000 A 
ATOM      6  C   UNL     1      43.615   4.279  10.008  0.00  0.00    +0.000 A 
ATOM      7  C   UNL     1      43.041   4.894  11.124  0.00  0.00    +0.000 A 
ATOM      8  C   UNL     1      43.834   5.218  12.220  0.00  0.00    +0.000 A 
ATOM      9  F   UNL     1      43.250   5.792  13.284  0.00  0.00    +0.000 F 
BRANCH   5  10
ATOM     10  C   UNL     1      45.621   3.352   8.780  0.00  0.00    +0.000 A 
ATOM     11  C   UNL     1      45.818   1.956   8.740  0.00  0.00    +0.000 A 
ATOM     12  C   UNL     1      46.418   1.331   7.642  0.00  0.00    +0.000 A 
ATOM     13  C   UNL     1      46.822   2.088   6.548  0.00  0.00    +0.000 A 
ATOM     14  C   UNL     1      46.633   3.466   6.557  0.00  0.00    +0.000 A 
ATOM     15  C   UNL     1      46.046   4.090   7.663  0.00  0.00    +0.000 A 
ENDBRANCH   5  10
ENDBRANCH   2   3
BRANCH   1  16
ATOM     16  C   UNL     1      47.165   4.678  15.563  0.00  0.00    +0.000 C 
BRANCH  16  17
ATOM     17  O   UNL     1      47.118   3.537  16.422  0.00  0.00    +0.000 OA
BRANCH  17  21
ATOM     18  C   UNL     1      50.906   2.340  17.492  0.00  0.00    +0.000 A 
ATOM     19  C   UNL     1      50.337   3.459  18.108  0.00  0.00    +0.000 A 
ATOM     20  C   UNL     1      49.048   3.855  17.739  0.00  0.00    +0.000 A 
ATOM     21  C   UNL     1      48.380   3.113  16.776  0.00  0.00    +0.000 A 
ATOM     22  N   UNL     1      48.912   2.032  16.165  0.00  0.00    +0.000 NA
ATOM     23  C   UNL     1      50.163   1.675  16.529  0.00  0.00    +0.000 A 
BRANCH  18  25
ATOM     24  N   UNL     1      52.533   0.537  17.507  0.00  0.00    +0.000 N 
ATOM     25  C   UNL     1      52.266   1.846  17.785  0.00  0.00    +0.000 C 
ATOM     26  O   UNL     1      53.133   2.591  18.220  0.00  0.00    +0.000 OA
ATOM     27  H   UNL     1      53.501   0.254  17.606  0.00  0.00    +0.000 HD
ATOM     28  H   UNL     1      51.940  -0.029  16.917  0.00  0.00    +0.000 HD
ENDBRANCH  18  25
ENDBRANCH  17  21
ENDBRANCH  16  17
ENDBRANCH   1  16
TORSDOF 6
ENDMDL
MODEL 7
REMARK VINA RESULT:    -7.376      3.536      8.529
REMARK INTER + INTRA:         -10.796
REMARK INTER:                 -10.879
REMARK INTRA:                   0.082
REMARK UNBOUND:                -0.833
REMARK  Name = 
REMARK  6 active torsions:
REMARK  status: ('A' for Active; 'I' for Inactive)
REMARK    1  A    between atoms: C_2  and  C_4
REMARK    2  A    between atoms: C_7  and  O_8
REMARK    3  A    between atoms: O_8  and  C_9
REMARK    4  A    between atoms: C_9  and  C_10
REMARK    5  A    between atoms: C_11  and  C_12
REMARK    6  A    between atoms: C_14  and  C_15
REMARK                            x       y       z     vdW  Elec       q    Type
REMARK                         _______ _______ _______ _____ _____    ______ ____
ROOT
ATOM      1  C   UNL     1      46.710   6.564  12.499  0.00  0.00    +0.000 C 
ATOM      2  C   UNL     1      45.958   6.661  11.390  0.00  0.00    +0.000 C 
ENDROOT
BRANCH   2   3
ATOM      3  C   UNL     1      45.311   5.514  10.736  0.00  0.00    +0.000 A 
ATOM      4  C   UNL     1      45.906   4.849   9.652  0.00  0.00    +0.000 A 
ATOM      5  C   UNL     1      45.329   3.712   9.053  0.00  0.00    +0.000 A 
ATOM      6  C   UNL     1      44.085   3.284   9.551  0.00  0.00    +0.000 A 
ATOM      7  C   UNL     1      43.448   3.966  10.592  0.00  0.00    +0.000 A 
ATOM      8  C   UNL     1      44.062   5.069  11.175  0.00  0.00    +0.000 A 
ATOM      9  F   UNL     1      43.434   5.692  12.184  0.00  0.00    +0.000 F 
BRANCH   5  10
ATOM     10  C   UNL     1      46.023   3.000   7.953  0.00  0.00    +0.000 A 
ATOM     11  C   UNL     1      46.382   1.642   8.072  0.00  0.00    +0.000 A 
ATOM     12  C   UNL     1      47.046   0.965   7.043  0.00  0.00    +0.000 A 
ATOM     13  C   UNL     1      47.352   1.629   5.861  0.00  0.00    +0.000 A 
ATOM     14  C   UNL     1      47.003   2.967   5.713  0.00  0.00    +0.000 A 
ATOM     15  C   UNL     1      46.353   3.645   6.749  0.00  0.00    +0.000 A 
ENDBRANCH   5  10
ENDBRANCH   2   3
BRANCH   1  16
ATOM     16  C   UNL     1      47.319   7.732  13.207  0.00  0.00    +0.000 C 
BRANCH  16  17
ATOM     17  O   UNL     1      48.517   7.283  13.843  0.00  0.00    +0.000 OA
BRANCH  17  21
ATOM     18  C   UNL     1      47.803   4.462  16.751  0.00  0.00    +0.000 A 
ATOM     19  C   UNL     1      48.507   5.624  17.077  0.00  0.00    +0.000 A 
ATOM     20  C   UNL     1      48.742   6.578  16.082  0.00  0.00    +0.000 A 
ATOM     21  C   UNL     1      48.258   6.333  14.806  0.00  0.00    +0.000 A 
ATOM     22  N   UNL     1      47.578   5.215  14.467  0.00  0.00    +0.000 NA
ATOM     23  C   UNL     1      47.373   4.303  15.442  0.00  0.00    +0.000 A 
BRANCH  18  25
ATOM     24  N   UNL     1      48.400   3.198  18.738  0.00  0.00    +0.000 N 
ATOM     25  C   UNL     1      47.517   3.379  17.713  0.00  0.00    +0.000 C 
ATOM     26  O   UNL     1      46.505   2.698  17.621  0.00  0.00    +0.000 OA
ATOM     27  H   UNL     1      48.122   2.531  19.447  0.00  0.00    +0.000 HD
ATOM     28  H   UNL     1      49.090   3.891  18.994  0.00  0.00    +0.000 HD
ENDBRANCH  18  25
ENDBRANCH  17  21
ENDBRANCH  16  17
ENDBRANCH   1  16
TORSDOF 6
ENDMDL
MODEL 8
REMARK VINA RESULT:    -7.340      5.347      8.704
REMARK INTER + INTRA:         -10.747
REMARK INTER:                  -9.723
REMARK INTRA:                  -1.025
REMARK UNBOUND:                -0.833
REMARK  Name = 
REMARK  6 active torsions:
REMARK  status: ('A' for Active; 'I' for Inactive)
REMARK    1  A    between atoms: C_2  and  C_4
REMARK    2  A    between atoms: C_7  and  O_8
REMARK    3  A    between atoms: O_8  and  C_9
REMARK    4  A    between atoms: C_9  and  C_10
REMARK    5  A    between atoms: C_11  and  C_12
REMARK    6  A    between atoms: C_14  and  C_15
REMARK                            x       y       z     vdW  Elec       q    Type
REMARK                         _______ _______ _______ _____ _____    ______ ____
ROOT
ATOM      1  C   UNL     1      45.277   7.856  11.629  0.00  0.00    +0.000 C 
ATOM      2  C   UNL     1      44.724   6.852  12.330  0.00  0.00    +0.000 C 
ENDROOT
BRANCH   2   3
ATOM      3  C   UNL     1      44.395   5.538  11.758  0.00  0.00    +0.000 A 
ATOM      4  C   UNL     1      45.041   5.049  10.610  0.00  0.00    +0.000 A 
ATOM      5  C   UNL     1      44.781   3.768  10.084  0.00  0.00    +0.000 A 
ATOM      6  C   UNL     1      43.794   2.998  10.725  0.00  0.00    +0.000 A 
ATOM      7  C   UNL     1      43.098   3.489  11.833  0.00  0.00    +0.000 A 
ATOM      8  C   UNL     1      43.402   4.748  12.340  0.00  0.00    +0.000 A 
ATOM      9  F   UNL     1      42.729   5.185  13.416  0.00  0.00    +0.000 F 
BRANCH   5  10
ATOM     10  C   UNL     1      45.533   3.264   8.910  0.00  0.00    +0.000 A 
ATOM     11  C   UNL     1      46.029   4.142   7.925  0.00  0.00    +0.000 A 
ATOM     12  C   UNL     1      46.730   3.673   6.809  0.00  0.00    +0.000 A 
ATOM     13  C   UNL     1      46.966   2.312   6.660  0.00  0.00    +0.000 A 
ATOM     14  C   UNL     1      46.495   1.422   7.620  0.00  0.00    +0.000 A 
ATOM     15  C   UNL     1      45.781   1.892   8.727  0.00  0.00    +0.000 A 
ENDBRANCH   5  10
ENDBRANCH   2   3
BRANCH   1  16
ATOM     16  C   UNL     1      45.673   9.173  12.217  0.00  0.00    +0.000 C 
BRANCH  16  17
ATOM     17  O   UNL     1      45.554  10.163  11.194  0.00  0.00    +0.000 OA
BRANCH  17  21
ATOM     18  C   UNL     1      41.641  11.168  10.414  0.00  0.00    +0.000 A 
ATOM     19  C   UNL     1      42.489  10.831   9.356  0.00  0.00    +0.000 A 
ATOM     20  C   UNL     1      43.816  10.487   9.633  0.00  0.00    +0.000 A 
ATOM     21  C   UNL     1      44.237  10.491  10.954  0.00  0.00    +0.000 A 
ATOM     22  N   UNL     1      43.436  10.818  11.992  0.00  0.00    +0.000 NA
ATOM     23  C   UNL     1      42.161  11.157  11.699  0.00  0.00    +0.000 A 
BRANCH  18  25
ATOM     24  N   UNL     1      39.950  12.904  10.243  0.00  0.00    +0.000 N 
ATOM     25  C   UNL     1      40.231  11.568  10.238  0.00  0.00    +0.000 C 
ATOM     26  O   UNL     1      39.353  10.737  10.052  0.00  0.00    +0.000 OA
ATOM     27  H   UNL     1      38.998  13.155  10.004  0.00  0.00    +0.000 HD
ATOM     28  H   UNL     1      40.661  13.613  10.133  0.00  0.00    +0.000 HD
ENDBRANCH  18  25
ENDBRANCH  17  21
ENDBRANCH  16  17
ENDBRANCH   1  16
TORSDOF 6
ENDMDL
MODEL 9
REMARK VINA RESULT:    -7.277      3.062      5.455
REMARK INTER + INTRA:         -10.663
REMARK INTER:                  -9.840
REMARK INTRA:                  -0.823
REMARK UNBOUND:                -0.833
REMARK  Name = 
REMARK  6 active torsions:
REMARK  status: ('A' for Active; 'I' for Inactive)
REMARK    1  A    between atoms: C_2  and  C_4
REMARK    2  A    between atoms: C_7  and  O_8
REMARK    3  A    between atoms: O_8  and  C_9
REMARK    4  A    between atoms: C_9  and  C_10
REMARK    5  A    between atoms: C_11  and  C_12
REMARK    6  A    between atoms: C_14  and  C_15
REMARK                            x       y       z     vdW  Elec       q    Type
REMARK                         _______ _______ _______ _____ _____    ______ ____
ROOT
ATOM      1  C   UNL     1      44.705   4.874  11.474  0.00  0.00    +0.000 C 
ATOM      2  C   UNL     1      45.803   5.274  12.137  0.00  0.00    +0.000 C 
ENDROOT
BRANCH   2   3
ATOM      3  C   UNL     1      46.284   6.664  12.160  0.00  0.00    +0.000 A 
ATOM      4  C   UNL     1      45.466   7.736  11.768  0.00  0.00    +0.000 A 
ATOM      5  C   UNL     1      45.890   9.077  11.841  0.00  0.00    +0.000 A 
ATOM      6  C   UNL     1      47.207   9.312  12.278  0.00  0.00    +0.000 A 
ATOM      7  C   UNL     1      48.057   8.255  12.617  0.00  0.00    +0.000 A 
ATOM      8  C   UNL     1      47.592   6.946  12.558  0.00  0.00    +0.000 A 
ATOM      9  F   UNL     1      48.426   5.955  12.908  0.00  0.00    +0.000 F 
BRANCH   5  10
ATOM     10  C   UNL     1      44.973  10.184  11.480  0.00  0.00    +0.000 A 
ATOM     11  C   UNL     1      45.321  11.530  11.712  0.00  0.00    +0.000 A 
ATOM     12  C   UNL     1      44.457  12.580  11.384  0.00  0.00    +0.000 A 
ATOM     13  C   UNL     1      43.226  12.307  10.800  0.00  0.00    +0.000 A 
ATOM     14  C   UNL     1      42.858  10.989  10.552  0.00  0.00    +0.000 A 
ATOM     15  C   UNL     1      43.718   9.941  10.895  0.00  0.00    +0.000 A 
ENDBRANCH   5  10
ENDBRANCH   2   3
BRANCH   1  16
ATOM     16  C   UNL     1      44.173   3.477  11.496  0.00  0.00    +0.000 C 
BRANCH  16  17
ATOM     17  O   UNL     1      43.588   3.209  10.220  0.00  0.00    +0.000 OA
BRANCH  17  21
ATOM     18  C   UNL     1      46.485   2.487   7.389  0.00  0.00    +0.000 A 
ATOM     19  C   UNL     1      46.047   1.443   8.208  0.00  0.00    +0.000 A 
ATOM     20  C   UNL     1      45.060   1.699   9.165  0.00  0.00    +0.000 A 
ATOM     21  C   UNL     1      44.549   2.984   9.258  0.00  0.00    +0.000 A 
ATOM     22  N   UNL     1      44.960   4.010   8.479  0.00  0.00    +0.000 NA
ATOM     23  C   UNL     1      45.922   3.741   7.570  0.00  0.00    +0.000 A 
BRANCH  18  25
ATOM     24  N   UNL     1      47.162   2.465   5.056  0.00  0.00    +0.000 N 
ATOM     25  C   UNL     1      47.535   2.338   6.362  0.00  0.00    +0.000 C 
ATOM     26  O   UNL     1      48.705   2.153   6.672  0.00  0.00    +0.000 OA
ATOM     27  H   UNL     1      47.917   2.476   4.381  0.00  0.00    +0.000 HD
ATOM     28  H   UNL     1      46.280   2.869   4.776  0.00  0.00    +0.000 HD
ENDBRANCH  18  25
ENDBRANCH  17  21
ENDBRANCH  16  17
ENDBRANCH   1  16
TORSDOF 6
ENDMDL
