MODEL 1
REMARK VINA RESULT:    -7.433      0.000      0.000
REMARK INTER + INTRA:          -9.652
REMARK INTER:                  -9.171
REMARK INTRA:                  -0.481
REMARK UNBOUND:                -0.481
REMARK  Name = 
REMARK  4 active torsions:
REMARK  status: ('A' for Active; 'I' for Inactive)
REMARK    1  A    between atoms: C_5  and  C_6
REMARK    2  A    between atoms: C_6  and  C_7
REMARK    3  A    between atoms: C_7  and  C_8
REMARK    4  A    between atoms: C_12  and  N_13
REMARK                            x       y       z     vdW  Elec       q    Type
REMARK                         _______ _______ _______ _____ _____    ______ ____
ROOT
ATOM      1  C   UNL     1      44.290   3.966  10.861  0.00  0.00    +0.000 A 
ATOM      2  C   UNL     1      43.042   4.341  11.370  0.00  0.00    +0.000 A 
ATOM      3  C   UNL     1      42.952   5.042  12.573  0.00  0.00    +0.000 A 
ATOM      4  C   UNL     1      44.112   5.368  13.283  0.00  0.00    +0.000 A 
ATOM      5  C   UNL     1      45.379   5.009  12.811  0.00  0.00    +0.000 A 
ATOM      6  C   UNL     1      45.439   4.343  11.576  0.00  0.00    +0.000 A 
ENDROOT
BRANCH   5   7
ATOM      7  N   UNL     1      46.505   5.215  13.589  0.00  0.00    +0.000 N 
ATOM      8  C   UNL     1      46.956   4.182  14.530  0.00  0.00    +0.000 C 
ATOM      9  C   UNL     1      47.616   4.863  15.748  0.00  0.00    +0.000 C 
ATOM     10  N   UNL     1      48.737   5.760  15.386  0.00  0.00    +0.000 NA
ATOM     11  C   UNL     1      48.253   6.756  14.401  0.00  0.00    +0.000 C 
ATOM     12  C   UNL     1      47.560   6.143  13.156  0.00  0.00    +0.000 C 
ATOM     13  H   UNL     1      49.456   5.195  14.938  0.00  0.00    +0.000 HD
ENDBRANCH   5   7
BRANCH   1  14
ATOM     14  C   UNL     1      44.361   3.193   9.558  0.00  0.00    +0.000 C 
BRANCH  14  15
ATOM     15  C   UNL     1      45.123   3.901   8.426  0.00  0.00    +0.000 C 
BRANCH  15  20
ATOM     16  C   UNL     1      47.339   2.471   5.684  0.00  0.00    +0.000 A 
ATOM     17  C   UNL     1      47.588   1.226   6.240  0.00  0.00    +0.000 A 
ATOM     18  N   UNL     1      47.077   0.813   7.418  0.00  0.00    +0.000 NA
ATOM     19  C   UNL     1      46.287   1.691   8.079  0.00  0.00    +0.000 A 
ATOM     20  C   UNL     1      45.983   2.966   7.618  0.00  0.00    +0.000 A 
ATOM     21  C   UNL     1      46.518   3.352   6.387  0.00  0.00    +0.000 A 
ENDBRANCH  15  20
ENDBRANCH  14  15
ENDBRANCH   1  14
TORSDOF 4
ENDMDL
MODEL 2
REMARK VINA RESULT:    -7.277      1.806      2.243
REMARK INTER + INTRA:          -9.459
REMARK INTER:                  -8.848
REMARK INTRA:                  -0.611
REMARK UNBOUND:                -0.481
REMARK  Name = 
REMARK  4 active torsions:
REMARK  status: ('A' for Active; 'I' for Inactive)
REMARK    1  A    between atoms: C_5  and  C_6
REMARK    2  A    between atoms: C_6  and  C_7
REMARK    3  A    between atoms: C_7  and  C_8
REMARK    4  A    between atoms: C_12  and  N_13
REMARK                            x       y       z     vdW  Elec       q    Type
REMARK                         _______ _______ _______ _____ _____    ______ ____
ROOT
ATOM      1  C   UNL     1      44.343   3.856  10.499  0.00  0.00    +0.000 A 
ATOM      2  C   UNL     1      43.535   3.402  11.547  0.00  0.00    +0.000 A 
ATOM      3  C   UNL     1      43.516   4.077  12.768  0.00  0.00    +0.000 A 
ATOM      4  C   UNL     1      44.314   5.210  12.954  0.00  0.00    +0.000 A 
ATOM      5  C   UNL     1      45.139   5.695  11.934  0.00  0.00    +0.000 A 
ATOM      6  C   UNL     1      45.103   5.021  10.703  0.00  0.00    +0.000 A 
ENDROOT
BRANCH   5   7
ATOM      7  N   UNL     1      46.024   6.732  12.177  0.00  0.00    +0.000 N 
ATOM      8  C   UNL     1      45.551   7.982  12.785  0.00  0.00    +0.000 C 
ATOM      9  C   UNL     1      46.395   9.157  12.244  0.00  0.00    +0.000 C 
ATOM     10  N   UNL     1      47.849   8.988  12.465  0.00  0.00    +0.000 NA
ATOM     11  C   UNL     1      48.275   7.696  11.879  0.00  0.00    +0.000 C 
ATOM     12  C   UNL     1      47.458   6.470  12.364  0.00  0.00    +0.000 C 
ATOM     13  H   UNL     1      48.009   8.949  13.469  0.00  0.00    +0.000 HD
ENDBRANCH   5   7
BRANCH   1  14
ATOM     14  C   UNL     1      44.356   3.098   9.186  0.00  0.00    +0.000 C 
BRANCH  14  15
ATOM     15  C   UNL     1      45.444   2.019   9.071  0.00  0.00    +0.000 C 
BRANCH  15  20
ATOM     16  C   UNL     1      46.947   3.301   5.820  0.00  0.00    +0.000 A 
ATOM     17  C   UNL     1      47.741   2.209   5.508  0.00  0.00    +0.000 A 
ATOM     18  N   UNL     1      47.806   1.089   6.256  0.00  0.00    +0.000 NA
ATOM     19  C   UNL     1      47.051   1.064   7.379  0.00  0.00    +0.000 A 
ATOM     20  C   UNL     1      46.231   2.106   7.790  0.00  0.00    +0.000 A 
ATOM     21  C   UNL     1      46.177   3.243   6.981  0.00  0.00    +0.000 A 
ENDBRANCH  15  20
ENDBRANCH  14  15
ENDBRANCH   1  14
TORSDOF 4
ENDMDL
MODEL 3
REMARK VINA RESULT:    -7.187      2.031      2.639
REMARK INTER + INTRA:          -9.349
REMARK INTER:                  -8.782
REMARK INTRA:                  -0.566
REMARK UNBOUND:                -0.481
REMARK  Name = 
REMARK  4 active torsions:
REMARK  status: ('A' for Active; 'I' for Inactive)
REMARK    1  A    between atoms: C_5  and  C_6
REMARK    2  A    between atoms: C_6  and  C_7
REMARK    3  A    between atoms: C_7  and  C_8
REMARK    4  A    between atoms: C_12  and  N_13
REMARK                            x       y       z     vdW  Elec       q    Type
REMARK                         _______ _______ _______ _____ _____    ______ ____
ROOT
ATOM      1  C   UNL     1      44.994   4.384  10.956  0.00  0.00    +0.000 A 
ATOM      2  C   UNL     1      45.173   3.492  12.019  0.00  0.00    +0.000 A 
ATOM      3  C   UNL     1      45.794   3.910  13.196  0.00  0.00    +0.000 A 
ATOM      4  C   UNL     1      46.249   5.227  13.318  0.00  0.00    +0.000 A 
ATOM      5  C   UNL     1      46.093   6.150  12.279  0.00  0.00    +0.000 A 
ATOM      6  C   UNL     1      45.426   5.712  11.125  0.00  0.00    +0.000 A 
ENDROOT
BRANCH   5   7
ATOM      7  N   UNL     1      46.669   7.406  12.361  0.00  0.00    +0.000 N 
ATOM      8  C   UNL     1      45.901   8.542  12.886  0.00  0.00    +0.000 C 
ATOM      9  C   UNL     1      46.364   9.834  12.179  0.00  0.00    +0.000 C 
ATOM     10  N   UNL     1      47.817  10.087  12.308  0.00  0.00    +0.000 NA
ATOM     11  C   UNL     1      48.554   8.901  11.813  0.00  0.00    +0.000 C 
ATOM     12  C   UNL     1      48.127   7.560  12.466  0.00  0.00    +0.000 C 
ATOM     13  H   UNL     1      48.027  10.200  13.298  0.00  0.00    +0.000 HD
ENDBRANCH   5   7
BRANCH   1  14
ATOM     14  C   UNL     1      44.328   3.902   9.682  0.00  0.00    +0.000 C 
BRANCH  14  15
ATOM     15  C   UNL     1      45.082   4.245   8.387  0.00  0.00    +0.000 C 
BRANCH  15  20
ATOM     16  C   UNL     1      47.414   2.139   6.244  0.00  0.00    +0.000 A 
ATOM     17  C   UNL     1      47.307   0.939   6.930  0.00  0.00    +0.000 A 
ATOM     18  N   UNL     1      46.525   0.760   8.014  0.00  0.00    +0.000 NA
ATOM     19  C   UNL     1      45.823   1.836   8.440  0.00  0.00    +0.000 A 
ATOM     20  C   UNL     1      45.866   3.085   7.834  0.00  0.00    +0.000 A 
ATOM     21  C   UNL     1      46.676   3.227   6.706  0.00  0.00    +0.000 A 
ENDBRANCH  15  20
ENDBRANCH  14  15
ENDBRANCH   1  14
TORSDOF 4
ENDMDL
MODEL 4
REMARK VINA RESULT:    -6.886      1.329      2.531
REMARK INTER + INTRA:          -8.977
REMARK INTER:                  -8.289
REMARK INTRA:                  -0.688
REMARK UNBOUND:                -0.481
REMARK  Name = 
REMARK  4 active torsions:
REMARK  status: ('A' for Active; 'I' for Inactive)
REMARK    1  A    between atoms: C_5  and  C_6
REMARK    2  A    between atoms: C_6  and  C_7
REMARK    3  A    between atoms: C_7  and  C_8
REMARK    4  A    between atoms: C_12  and  N_13
REMARK                            x       y       z     vdW  Elec       q    Type
REMARK                         _______ _______ _______ _____ _____    ______ ____
ROOT
ATOM      1  C   UNL     1      45.486   4.876  11.997  0.00  0.00    +0.000 A 
ATOM      2  C   UNL     1      45.844   6.043  11.314  0.00  0.00    +0.000 A 
ATOM      3  C   UNL     1      46.824   6.892  11.828  0.00  0.00    +0.000 A 
ATOM      4  C   UNL     1      47.453   6.583  13.039  0.00  0.00    +0.000 A 
ATOM      5  C   UNL     1      47.123   5.428  13.756  0.00  0.00    +0.000 A 
ATOM      6  C   UNL     1      46.165   4.572  13.191  0.00  0.00    +0.000 A 
ENDROOT
BRANCH   5   7
ATOM      7  N   UNL     1      47.651   5.207  15.016  0.00  0.00    +0.000 N 
ATOM      8  C   UNL     1      48.363   6.281  15.721  0.00  0.00    +0.000 C 
ATOM      9  C   UNL     1      49.468   5.660  16.602  0.00  0.00    +0.000 C 
ATOM     10  N   UNL     1      48.960   4.657  17.564  0.00  0.00    +0.000 NA
ATOM     11  C   UNL     1      48.209   3.618  16.820  0.00  0.00    +0.000 C 
ATOM     12  C   UNL     1      47.092   4.171  15.897  0.00  0.00    +0.000 C 
ATOM     13  H   UNL     1      48.311   5.127  18.192  0.00  0.00    +0.000 HD
ENDBRANCH   5   7
BRANCH   1  14
ATOM     14  C   UNL     1      44.408   3.976  11.424  0.00  0.00    +0.000 C 
BRANCH  14  15
ATOM     15  C   UNL     1      44.110   4.192   9.932  0.00  0.00    +0.000 C 
BRANCH  15  20
ATOM     16  C   UNL     1      46.687   3.388   7.253  0.00  0.00    +0.000 A 
ATOM     17  C   UNL     1      46.790   2.022   7.461  0.00  0.00    +0.000 A 
ATOM     18  N   UNL     1      46.075   1.346   8.384  0.00  0.00    +0.000 NA
ATOM     19  C   UNL     1      45.224   2.073   9.144  0.00  0.00    +0.000 A 
ATOM     20  C   UNL     1      45.052   3.446   9.026  0.00  0.00    +0.000 A 
ATOM     21  C   UNL     1      45.798   4.108   8.049  0.00  0.00    +0.000 A 
ENDBRANCH  15  20
ENDBRANCH  14  15
ENDBRANCH   1  14
TORSDOF 4
ENDMDL
MODEL 5
REMARK VINA RESULT:    -6.415      2.452      6.680
REMARK INTER + INTRA:          -8.396
REMARK INTER:                  -7.718
REMARK INTRA:                  -0.679
REMARK UNBOUND:                -0.481
REMARK  Name = 
REMARK  4 active torsions:
REMARK  status: ('A' for Active; 'I' for Inactive)
REMARK    1  A    between atoms: C_5  and  C_6
REMARK    2  A    between atoms: C_6  and  C_7
REMARK    3  A    between atoms: C_7  and  C_8
REMARK    4  A    between atoms: C_12  and  N_13
REMARK                            x       y       z     vdW  Elec       q    Type
REMARK                         _______ _______ _______ _____ _____    ______ ____
ROOT
ATOM      1  C   UNL     1      44.318   5.240  11.110  0.00  0.00    +0.000 A 
ATOM      2  C   UNL     1      43.479   4.411  11.862  0.00  0.00    +0.000 A 
ATOM      3  C   UNL     1      43.377   3.052  11.564  0.00  0.00    +0.000 A 
ATOM      4  C   UNL     1      44.109   2.511  10.502  0.00  0.00    +0.000 A 
ATOM      5  C   UNL     1      44.956   3.305   9.722  0.00  0.00    +0.000 A 
ATOM      6  C   UNL     1      45.072   4.659  10.075  0.00  0.00    +0.000 A 
ENDROOT
BRANCH   5   7
ATOM      7  N   UNL     1      45.566   2.787   8.593  0.00  0.00    +0.000 N 
ATOM      8  C   UNL     1      45.675   1.334   8.410  0.00  0.00    +0.000 C 
ATOM      9  C   UNL     1      46.971   1.019   7.632  0.00  0.00    +0.000 C 
ATOM     10  N   UNL     1      47.057   1.714   6.328  0.00  0.00    +0.000 NA
ATOM     11  C   UNL     1      46.895   3.170   6.550  0.00  0.00    +0.000 C 
ATOM     12  C   UNL     1      45.622   3.561   7.345  0.00  0.00    +0.000 C 
ATOM     13  H   UNL     1      46.282   1.394   5.751  0.00  0.00    +0.000 HD
ENDBRANCH   5   7
BRANCH   1  14
ATOM     14  C   UNL     1      44.403   6.717  11.446  0.00  0.00    +0.000 C 
BRANCH  14  15
ATOM     15  C   UNL     1      45.269   7.054  12.670  0.00  0.00    +0.000 C 
BRANCH  15  20
ATOM     16  C   UNL     1      48.840   7.794  11.588  0.00  0.00    +0.000 A 
ATOM     17  C   UNL     1      48.789   9.179  11.621  0.00  0.00    +0.000 A 
ATOM     18  N   UNL     1      47.697   9.882  11.985  0.00  0.00    +0.000 NA
ATOM     19  C   UNL     1      46.599   9.168  12.323  0.00  0.00    +0.000 A 
ATOM     20  C   UNL     1      46.539   7.780  12.314  0.00  0.00    +0.000 A 
ATOM     21  C   UNL     1      47.694   7.086  11.945  0.00  0.00    +0.000 A 
ENDBRANCH  15  20
ENDBRANCH  14  15
ENDBRANCH   1  14
TORSDOF 4
ENDMDL
MODEL 6
REMARK VINA RESULT:    -6.392      3.327      7.428
REMARK INTER + INTRA:          -8.368
REMARK INTER:                  -7.752
REMARK INTRA:                  -0.616
REMARK UNBOUND:                -0.481
REMARK  Name = 
REMARK  4 active torsions:
REMARK  status: ('A' for Active; 'I' for Inactive)
REMARK    1  A    between atoms: C_5  and  C_6
REMARK    2  A    between atoms: C_6  and  C_7
REMARK    3  A    between atoms: C_7  and  C_8
REMARK    4  A    between atoms: C_12  and  N_13
REMARK                            x       y       z     vdW  Elec       q    Type
REMARK                         _______ _______ _______ _____ _____    ______ ____
ROOT
ATOM      1  C   UNL     1      48.026   6.350  14.376  0.00  0.00    +0.000 A 
ATOM      2  C   UNL     1      48.682   7.070  13.372  0.00  0.00    +0.000 A 
ATOM      3  C   UNL     1      48.140   7.148  12.088  0.00  0.00    +0.000 A 
ATOM      4  C   UNL     1      46.937   6.498  11.796  0.00  0.00    +0.000 A 
ATOM      5  C   UNL     1      46.250   5.765  12.770  0.00  0.00    +0.000 A 
ATOM      6  C   UNL     1      46.798   5.742  14.062  0.00  0.00    +0.000 A 
ENDROOT
BRANCH   5   7
ATOM      7  N   UNL     1      45.137   5.015  12.432  0.00  0.00    +0.000 N 
ATOM      8  C   UNL     1      45.266   3.579  12.154  0.00  0.00    +0.000 C 
ATOM      9  C   UNL     1      44.215   3.172  11.099  0.00  0.00    +0.000 C 
ATOM     10  N   UNL     1      42.827   3.502  11.494  0.00  0.00    +0.000 NA
ATOM     11  C   UNL     1      42.750   4.947  11.811  0.00  0.00    +0.000 C 
ATOM     12  C   UNL     1      43.792   5.432  12.853  0.00  0.00    +0.000 C 
ATOM     13  H   UNL     1      42.612   2.980  12.341  0.00  0.00    +0.000 HD
ENDBRANCH   5   7
BRANCH   1  14
ATOM     14  C   UNL     1      48.642   6.270  15.759  0.00  0.00    +0.000 C 
BRANCH  14  15
ATOM     15  C   UNL     1      48.080   5.155  16.655  0.00  0.00    +0.000 C 
BRANCH  15  20
ATOM     16  C   UNL     1      51.028   2.944  17.597  0.00  0.00    +0.000 A 
ATOM     17  C   UNL     1      50.602   1.762  17.013  0.00  0.00    +0.000 A 
ATOM     18  N   UNL     1      49.449   1.637  16.324  0.00  0.00    +0.000 NA
ATOM     19  C   UNL     1      48.679   2.744  16.224  0.00  0.00    +0.000 A 
ATOM     20  C   UNL     1      49.005   3.974  16.780  0.00  0.00    +0.000 A 
ATOM     21  C   UNL     1      50.214   4.069  17.473  0.00  0.00    +0.000 A 
ENDBRANCH  15  20
ENDBRANCH  14  15
ENDBRANCH   1  14
TORSDOF 4
ENDMDL
MODEL 7
REMARK VINA RESULT:    -5.960      1.952      4.027
REMARK INTER + INTRA:          -7.835
REMARK INTER:                  -7.286
REMARK INTRA:                  -0.549
REMARK UNBOUND:                -0.481
REMARK  Name = 
REMARK  4 active torsions:
REMARK  status: ('A' for Active; 'I' for Inactive)
REMARK    1  A    between atoms: C_5  and  C_6
REMARK    2  A    between atoms: C_6  and  C_7
REMARK    3  A    between atoms: C_7  and  C_8
REMARK    4  A    between atoms: C_12  and  N_13
REMARK                            x       y       z     vdW  Elec       q    Type
REMARK                         _______ _______ _______ _____ _____    ______ ____
ROOT
ATOM      1  C   UNL     1      46.988   6.643  12.557  0.00  0.00    +0.000 A 
ATOM      2  C   UNL     1      48.023   7.551  12.310  0.00  0.00    +0.000 A 
ATOM      3  C   UNL     1      49.078   7.684  13.214  0.00  0.00    +0.000 A 
ATOM      4  C   UNL     1      49.101   6.913  14.381  0.00  0.00    +0.000 A 
ATOM      5  C   UNL     1      48.084   5.996  14.668  0.00  0.00    +0.000 A 
ATOM      6  C   UNL     1      47.061   5.853  13.718  0.00  0.00    +0.000 A 
ENDROOT
BRANCH   5   7
ATOM      7  N   UNL     1      48.050   5.342  15.888  0.00  0.00    +0.000 N 
ATOM      8  C   UNL     1      47.719   3.913  15.954  0.00  0.00    +0.000 C 
ATOM      9  C   UNL     1      46.985   3.626  17.281  0.00  0.00    +0.000 C 
ATOM     10  N   UNL     1      47.752   4.037  18.479  0.00  0.00    +0.000 NA
ATOM     11  C   UNL     1      48.106   5.470  18.351  0.00  0.00    +0.000 C 
ATOM     12  C   UNL     1      48.831   5.837  17.030  0.00  0.00    +0.000 C 
ATOM     13  H   UNL     1      48.615   3.498  18.497  0.00  0.00    +0.000 HD
ENDBRANCH   5   7
BRANCH   1  14
ATOM     14  C   UNL     1      45.847   6.526  11.566  0.00  0.00    +0.000 C 
BRANCH  14  15
ATOM     15  C   UNL     1      45.074   5.199  11.621  0.00  0.00    +0.000 C 
BRANCH  15  20
ATOM     16  C   UNL     1      44.803   2.392   9.068  0.00  0.00    +0.000 A 
ATOM     17  C   UNL     1      45.300   3.063   7.962  0.00  0.00    +0.000 A 
ATOM     18  N   UNL     1      45.732   4.341   7.989  0.00  0.00    +0.000 NA
ATOM     19  C   UNL     1      45.653   4.983   9.177  0.00  0.00    +0.000 A 
ATOM     20  C   UNL     1      45.162   4.409  10.343  0.00  0.00    +0.000 A 
ATOM     21  C   UNL     1      44.738   3.080  10.279  0.00  0.00    +0.000 A 
ENDBRANCH  15  20
ENDBRANCH  14  15
ENDBRANCH   1  14
TORSDOF 4
ENDMDL
MODEL 8
REMARK VINA RESULT:    -5.785      3.313      5.364
REMARK INTER + INTRA:          -7.619
REMARK INTER:                  -6.914
REMARK INTRA:                  -0.706
REMARK UNBOUND:                -0.481
REMARK  Name = 
REMARK  4 active torsions:
REMARK  status: ('A' for Active; 'I' for Inactive)
REMARK    1  A    between atoms: C_5  and  C_6
REMARK    2  A    between atoms: C_6  and  C_7
REMARK    3  A    between atoms: C_7  and  C_8
REMARK    4  A    between atoms: C_12  and  N_13
REMARK                            x       y       z     vdW  Elec       q    Type
REMARK                         _______ _______ _______ _____ _____    ______ ____
ROOT
ATOM      1  C   UNL     1      47.876   6.949  12.995  0.00  0.00    +0.000 A 
ATOM      2  C   UNL     1      48.826   7.966  13.143  0.00  0.00    +0.000 A 
ATOM      3  C   UNL     1      49.578   8.065  14.314  0.00  0.00    +0.000 A 
ATOM      4  C   UNL     1      49.381   7.150  15.353  0.00  0.00    +0.000 A 
ATOM      5  C   UNL     1      48.440   6.120  15.247  0.00  0.00    +0.000 A 
ATOM      6  C   UNL     1      47.730   6.020  14.041  0.00  0.00    +0.000 A 
ENDROOT
BRANCH   5   7
ATOM      7  N   UNL     1      48.159   5.309  16.333  0.00  0.00    +0.000 N 
ATOM      8  C   UNL     1      48.342   5.811  17.701  0.00  0.00    +0.000 C 
ATOM      9  C   UNL     1      48.752   4.639  18.618  0.00  0.00    +0.000 C 
ATOM     10  N   UNL     1      47.788   3.516  18.603  0.00  0.00    +0.000 NA
ATOM     11  C   UNL     1      47.595   3.070  17.203  0.00  0.00    +0.000 C 
ATOM     12  C   UNL     1      47.200   4.201  16.218  0.00  0.00    +0.000 C 
ATOM     13  H   UNL     1      46.897   3.864  18.950  0.00  0.00    +0.000 HD
ENDBRANCH   5   7
BRANCH   1  14
ATOM     14  C   UNL     1      47.062   6.869  11.718  0.00  0.00    +0.000 C 
BRANCH  14  15
ATOM     15  C   UNL     1      45.553   7.105  11.896  0.00  0.00    +0.000 C 
BRANCH  15  20
ATOM     16  C   UNL     1      44.043   3.834  10.675  0.00  0.00    +0.000 A 
ATOM     17  C   UNL     1      43.291   3.516  11.795  0.00  0.00    +0.000 A 
ATOM     18  N   UNL     1      43.222   4.290  12.898  0.00  0.00    +0.000 NA
ATOM     19  C   UNL     1      43.949   5.430  12.886  0.00  0.00    +0.000 A 
ATOM     20  C   UNL     1      44.744   5.837  11.823  0.00  0.00    +0.000 A 
ATOM     21  C   UNL     1      44.779   5.018  10.692  0.00  0.00    +0.000 A 
ENDBRANCH  15  20
ENDBRANCH  14  15
ENDBRANCH   1  14
TORSDOF 4
ENDMDL
MODEL 9
REMARK VINA RESULT:    -5.690      3.719      7.775
REMARK INTER + INTRA:          -7.501
REMARK INTER:                  -6.864
REMARK INTRA:                  -0.637
REMARK UNBOUND:                -0.481
REMARK  Name = 
REMARK  4 active torsions:
REMARK  status: ('A' for Active; 'I' for Inactive)
REMARK    1  A    between atoms: C_5  and  C_6
REMARK    2  A    between atoms: C_6  and  C_7
REMARK    3  A    between atoms: C_7  and  C_8
REMARK    4  A    between atoms: C_12  and  N_13
REMARK                            x       y       z     vdW  Elec       q    Type
REMARK                         _______ _______ _______ _____ _____    ______ ____
ROOT
ATOM      1  C   UNL     1      47.741   7.112  13.949  0.00  0.00    +0.000 A 
ATOM      2  C   UNL     1      47.497   8.462  13.673  0.00  0.00    +0.000 A 
ATOM      3  C   UNL     1      46.342   8.847  12.990  0.00  0.00    +0.000 A 
ATOM      4  C   UNL     1      45.423   7.881  12.569  0.00  0.00    +0.000 A 
ATOM      5  C   UNL     1      45.631   6.520  12.820  0.00  0.00    +0.000 A 
ATOM      6  C   UNL     1      46.778   6.169  13.547  0.00  0.00    +0.000 A 
ENDROOT
BRANCH   5   7
ATOM      7  N   UNL     1      44.785   5.567  12.278  0.00  0.00    +0.000 N 
ATOM      8  C   UNL     1      43.696   5.968  11.379  0.00  0.00    +0.000 C 
ATOM      9  C   UNL     1      42.510   4.995  11.558  0.00  0.00    +0.000 C 
ATOM     10  N   UNL     1      42.874   3.578  11.334  0.00  0.00    +0.000 NA
ATOM     11  C   UNL     1      44.005   3.227  12.224  0.00  0.00    +0.000 C 
ATOM     12  C   UNL     1      45.228   4.175  12.112  0.00  0.00    +0.000 C 
ATOM     13  H   UNL     1      43.188   3.485  10.370  0.00  0.00    +0.000 HD
ENDBRANCH   5   7
BRANCH   1  14
ATOM     14  C   UNL     1      49.009   6.718  14.681  0.00  0.00    +0.000 C 
BRANCH  14  15
ATOM     15  C   UNL     1      48.972   6.934  16.202  0.00  0.00    +0.000 C 
BRANCH  15  20
ATOM     16  C   UNL     1      47.876   3.420  17.163  0.00  0.00    +0.000 A 
ATOM     17  C   UNL     1      48.451   3.355  18.422  0.00  0.00    +0.000 A 
ATOM     18  N   UNL     1      49.144   4.367  18.986  0.00  0.00    +0.000 NA
ATOM     19  C   UNL     1      49.277   5.494  18.250  0.00  0.00    +0.000 A 
ATOM     20  C   UNL     1      48.752   5.660  16.975  0.00  0.00    +0.000 A 
ATOM     21  C   UNL     1      48.029   4.596  16.431  0.00  0.00    +0.000 A 
ENDBRANCH  15  20
ENDBRANCH  14  15
ENDBRANCH   1  14
TORSDOF 4
ENDMDL
