MODEL 1
REMARK VINA RESULT:    -8.891      0.000      0.000
REMARK INTER + INTRA:         -13.710
REMARK INTER:                 -12.529
REMARK INTRA:                  -1.181
REMARK UNBOUND:                -1.181
REMARK  Name = 
REMARK  8 active torsions:
REMARK  status: ('A' for Active; 'I' for Inactive)
REMARK    1  A    between atoms: C_1  and  C_2
REMARK    2  A    between atoms: C_2  and  O_3
REMARK    3  A    between atoms: O_3  and  C_4
REMARK    4  A    between atoms: C_6  and  C_7
REMARK    5  A    between atoms: C_7  and  C_8
REMARK    6  A    between atoms: C_8  and  N_9
REMARK    7  A    between atoms: C_13  and  C_14
REMARK    8  A    between atoms: C_20  and  C_21
REMARK                            x       y       z     vdW  Elec       q    Type
REMARK                         _______ _______ _______ _____ _____    ______ ____
ROOT
ATOM      1  C   UNL     1      46.917   4.606  13.923  0.00  0.00    +0.000 A 
ATOM      2  C   UNL     1      45.593   4.515  13.494  0.00  0.00    +0.000 A 
ATOM      3  C   UNL     1      45.079   5.449  12.587  0.00  0.00    +0.000 A 
ATOM      4  C   UNL     1      45.912   6.476  12.115  0.00  0.00    +0.000 A 
ATOM      5  C   UNL     1      47.237   6.625  12.564  0.00  0.00    +0.000 A 
ATOM      6  C   UNL     1      47.725   5.650  13.454  0.00  0.00    +0.000 A 
ENDROOT
BRANCH   5   7
ATOM      7  C   UNL     1      48.044   7.814  12.193  0.00  0.00    +0.000 A 
ATOM      8  C   UNL     1      49.397   7.676  11.823  0.00  0.00    +0.000 A 
ATOM      9  C   UNL     1      50.164   8.768  11.409  0.00  0.00    +0.000 A 
ATOM     10  C   UNL     1      49.592  10.032  11.346  0.00  0.00    +0.000 A 
ATOM     11  C   UNL     1      48.259  10.203  11.710  0.00  0.00    +0.000 A 
ATOM     12  C   UNL     1      47.497   9.108  12.135  0.00  0.00    +0.000 A 
ENDBRANCH   5   7
BRANCH   1  13
ATOM     13  O   UNL     1      47.521   3.767  14.823  0.00  0.00    +0.000 OA
BRANCH  13  15
ATOM     14  C   UNL     1      47.943   2.948  17.029  0.00  0.00    +0.000 C 
ATOM     15  C   UNL     1      47.293   4.042  16.205  0.00  0.00    +0.000 C 
ENDBRANCH  13  15
ENDBRANCH   1  13
BRANCH   3  16
ATOM     16  C   UNL     1      43.609   5.437  12.228  0.00  0.00    +0.000 C 
BRANCH  16  17
ATOM     17  C   UNL     1      43.337   4.335  11.196  0.00  0.00    +0.000 C 
BRANCH  17  18
ATOM     18  N   UNL     1      43.721   4.749   9.852  0.00  0.00    +0.000 N 
ATOM     19  C   UNL     1      44.666   3.985   9.177  0.00  0.00    +0.000 A 
ATOM     20  C   UNL     1      44.753   2.603   9.301  0.00  0.00    +0.000 A 
ATOM     21  C   UNL     1      45.696   1.895   8.556  0.00  0.00    +0.000 A 
ATOM     22  C   UNL     1      46.525   2.573   7.669  0.00  0.00    +0.000 A 
ATOM     23  C   UNL     1      46.370   3.949   7.596  0.00  0.00    +0.000 A 
ATOM     24  N   UNL     1      45.470   4.661   8.332  0.00  0.00    +0.000 NA
ATOM     25  H   UNL     1      43.977   5.726   9.733  0.00  0.00    +0.000 HD
BRANCH  22  26
ATOM     26  C   UNL     1      47.494   1.787   6.865  0.00  0.00    +0.000 C 
ATOM     27  N   UNL     1      48.607   2.403   6.369  0.00  0.00    +0.000 N 
ATOM     28  O   UNL     1      47.306   0.598   6.634  0.00  0.00    +0.000 OA
ATOM     29  H   UNL     1      48.835   3.380   6.458  0.00  0.00    +0.000 HD
ATOM     30  H   UNL     1      49.223   1.829   5.804  0.00  0.00    +0.000 HD
ENDBRANCH  22  26
ENDBRANCH  17  18
ENDBRANCH  16  17
ENDBRANCH   3  16
TORSDOF 7
ENDMDL
MODEL 2
REMARK VINA RESULT:    -7.827      1.587      2.103
REMARK INTER + INTRA:         -12.211
REMARK INTER:                 -11.195
REMARK INTRA:                  -1.016
REMARK UNBOUND:                -1.181
REMARK  Name = 
REMARK  8 active torsions:
REMARK  status: ('A' for Active; 'I' for Inactive)
REMARK    1  A    between atoms: C_1  and  C_2
REMARK    2  A    between atoms: C_2  and  O_3
REMARK    3  A    between atoms: O_3  and  C_4
REMARK    4  A    between atoms: C_6  and  C_7
REMARK    5  A    between atoms: C_7  and  C_8
REMARK    6  A    between atoms: C_8  and  N_9
REMARK    7  A    between atoms: C_13  and  C_14
REMARK    8  A    between atoms: C_20  and  C_21
REMARK                            x       y       z     vdW  Elec       q    Type
REMARK                         _______ _______ _______ _____ _____    ______ ____
ROOT
ATOM      1  C   UNL     1      46.713   5.132  13.773  0.00  0.00    +0.000 A 
ATOM      2  C   UNL     1      45.688   4.319  13.290  0.00  0.00    +0.000 A 
ATOM      3  C   UNL     1      44.758   4.825  12.375  0.00  0.00    +0.000 A 
ATOM      4  C   UNL     1      44.870   6.158  11.949  0.00  0.00    +0.000 A 
ATOM      5  C   UNL     1      45.863   7.019  12.454  0.00  0.00    +0.000 A 
ATOM      6  C   UNL     1      46.795   6.466  13.350  0.00  0.00    +0.000 A 
ENDROOT
BRANCH   5   7
ATOM      7  C   UNL     1      45.858   8.468  12.130  0.00  0.00    +0.000 A 
ATOM      8  C   UNL     1      47.010   9.252  12.338  0.00  0.00    +0.000 A 
ATOM      9  C   UNL     1      47.056  10.604  11.985  0.00  0.00    +0.000 A 
ATOM     10  C   UNL     1      45.947  11.206  11.405  0.00  0.00    +0.000 A 
ATOM     11  C   UNL     1      44.791  10.460  11.192  0.00  0.00    +0.000 A 
ATOM     12  C   UNL     1      44.746   9.108  11.557  0.00  0.00    +0.000 A 
ENDBRANCH   5   7
BRANCH   1  13
ATOM     13  O   UNL     1      47.664   4.756  14.685  0.00  0.00    +0.000 OA
BRANCH  13  15
ATOM     14  C   UNL     1      48.086   3.075  16.333  0.00  0.00    +0.000 C 
ATOM     15  C   UNL     1      47.187   4.226  15.922  0.00  0.00    +0.000 C 
ENDBRANCH  13  15
ENDBRANCH   1  13
BRANCH   3  16
ATOM     16  C   UNL     1      43.566   3.991  11.957  0.00  0.00    +0.000 C 
BRANCH  16  17
ATOM     17  C   UNL     1      43.738   3.536  10.502  0.00  0.00    +0.000 C 
BRANCH  17  18
ATOM     18  N   UNL     1      44.832   2.584  10.361  0.00  0.00    +0.000 N 
ATOM     19  C   UNL     1      45.427   2.451   9.112  0.00  0.00    +0.000 A 
ATOM     20  C   UNL     1      45.599   3.518   8.237  0.00  0.00    +0.000 A 
ATOM     21  C   UNL     1      46.248   3.321   7.019  0.00  0.00    +0.000 A 
ATOM     22  C   UNL     1      46.750   2.065   6.698  0.00  0.00    +0.000 A 
ATOM     23  C   UNL     1      46.547   1.055   7.627  0.00  0.00    +0.000 A 
ATOM     24  N   UNL     1      45.894   1.222   8.813  0.00  0.00    +0.000 NA
ATOM     25  H   UNL     1      44.668   1.647  10.722  0.00  0.00    +0.000 HD
BRANCH  22  26
ATOM     26  C   UNL     1      47.467   1.896   5.410  0.00  0.00    +0.000 C 
ATOM     27  N   UNL     1      48.258   2.908   4.946  0.00  0.00    +0.000 N 
ATOM     28  O   UNL     1      47.355   0.865   4.755  0.00  0.00    +0.000 OA
ATOM     29  H   UNL     1      48.383   3.809   5.377  0.00  0.00    +0.000 HD
ATOM     30  H   UNL     1      48.703   2.752   4.048  0.00  0.00    +0.000 HD
ENDBRANCH  22  26
ENDBRANCH  17  18
ENDBRANCH  16  17
ENDBRANCH   3  16
TORSDOF 7
ENDMDL
MODEL 3
REMARK VINA RESULT:    -7.663      3.071      7.345
REMARK INTER + INTRA:         -11.980
REMARK INTER:                 -10.936
REMARK INTRA:                  -1.044
REMARK UNBOUND:                -1.181
REMARK  Name = 
REMARK  8 active torsions:
REMARK  status: ('A' for Active; 'I' for Inactive)
REMARK    1  A    between atoms: C_1  and  C_2
REMARK    2  A    between atoms: C_2  and  O_3
REMARK    3  A    between atoms: O_3  and  C_4
REMARK    4  A    between atoms: C_6  and  C_7
REMARK    5  A    between atoms: C_7  and  C_8
REMARK    6  A    between atoms: C_8  and  N_9
REMARK    7  A    between atoms: C_13  and  C_14
REMARK    8  A    between atoms: C_20  and  C_21
REMARK                            x       y       z     vdW  Elec       q    Type
REMARK                         _______ _______ _______ _____ _____    ______ ____
ROOT
ATOM      1  C   UNL     1      44.183   3.784  10.328  0.00  0.00    +0.000 A 
ATOM      2  C   UNL     1      44.745   5.019  10.651  0.00  0.00    +0.000 A 
ATOM      3  C   UNL     1      45.775   5.553   9.869  0.00  0.00    +0.000 A 
ATOM      4  C   UNL     1      46.233   4.832   8.755  0.00  0.00    +0.000 A 
ATOM      5  C   UNL     1      45.721   3.562   8.428  0.00  0.00    +0.000 A 
ATOM      6  C   UNL     1      44.668   3.072   9.222  0.00  0.00    +0.000 A 
ENDROOT
BRANCH   5   7
ATOM      7  C   UNL     1      46.337   2.738   7.358  0.00  0.00    +0.000 A 
ATOM      8  C   UNL     1      46.661   1.386   7.590  0.00  0.00    +0.000 A 
ATOM      9  C   UNL     1      47.184   0.569   6.584  0.00  0.00    +0.000 A 
ATOM     10  C   UNL     1      47.390   1.085   5.311  0.00  0.00    +0.000 A 
ATOM     11  C   UNL     1      47.085   2.418   5.051  0.00  0.00    +0.000 A 
ATOM     12  C   UNL     1      46.572   3.237   6.065  0.00  0.00    +0.000 A 
ENDBRANCH   5   7
BRANCH   1  13
ATOM     13  O   UNL     1      43.190   3.153  11.031  0.00  0.00    +0.000 OA
BRANCH  13  15
ATOM     14  C   UNL     1      43.161   4.040  13.252  0.00  0.00    +0.000 C 
ATOM     15  C   UNL     1      43.477   2.831  12.392  0.00  0.00    +0.000 C 
ENDBRANCH  13  15
ENDBRANCH   1  13
BRANCH   3  16
ATOM     16  C   UNL     1      46.480   6.821  10.296  0.00  0.00    +0.000 C 
BRANCH  16  17
ATOM     17  C   UNL     1      46.280   7.044  11.800  0.00  0.00    +0.000 C 
BRANCH  17  18
ATOM     18  N   UNL     1      47.513   6.828  12.545  0.00  0.00    +0.000 N 
ATOM     19  C   UNL     1      47.464   6.012  13.670  0.00  0.00    +0.000 A 
ATOM     20  C   UNL     1      46.643   4.894  13.760  0.00  0.00    +0.000 A 
ATOM     21  C   UNL     1      46.680   4.093  14.901  0.00  0.00    +0.000 A 
ATOM     22  C   UNL     1      47.563   4.399  15.931  0.00  0.00    +0.000 A 
ATOM     23  C   UNL     1      48.355   5.524  15.762  0.00  0.00    +0.000 A 
ATOM     24  N   UNL     1      48.317   6.333  14.664  0.00  0.00    +0.000 NA
ATOM     25  H   UNL     1      48.046   7.659  12.794  0.00  0.00    +0.000 HD
BRANCH  22  26
ATOM     26  C   UNL     1      47.604   3.507  17.116  0.00  0.00    +0.000 C 
ATOM     27  N   UNL     1      48.781   3.343  17.790  0.00  0.00    +0.000 N 
ATOM     28  O   UNL     1      46.601   2.913  17.495  0.00  0.00    +0.000 OA
ATOM     29  H   UNL     1      49.670   3.744  17.539  0.00  0.00    +0.000 HD
ATOM     30  H   UNL     1      48.762   2.702  18.575  0.00  0.00    +0.000 HD
ENDBRANCH  22  26
ENDBRANCH  17  18
ENDBRANCH  16  17
ENDBRANCH   3  16
TORSDOF 7
ENDMDL
MODEL 4
REMARK VINA RESULT:    -7.600      2.213      3.589
REMARK INTER + INTRA:         -11.892
REMARK INTER:                 -10.840
REMARK INTRA:                  -1.052
REMARK UNBOUND:                -1.181
REMARK  Name = 
REMARK  8 active torsions:
REMARK  status: ('A' for Active; 'I' for Inactive)
REMARK    1  A    between atoms: C_1  and  C_2
REMARK    2  A    between atoms: C_2  and  O_3
REMARK    3  A    between atoms: O_3  and  C_4
REMARK    4  A    between atoms: C_6  and  C_7
REMARK    5  A    between atoms: C_7  and  C_8
REMARK    6  A    between atoms: C_8  and  N_9
REMARK    7  A    between atoms: C_13  and  C_14
REMARK    8  A    between atoms: C_20  and  C_21
REMARK                            x       y       z     vdW  Elec       q    Type
REMARK                         _______ _______ _______ _____ _____    ______ ____
ROOT
ATOM      1  C   UNL     1      45.448   8.808  12.391  0.00  0.00    +0.000 A 
ATOM      2  C   UNL     1      45.062   7.469  12.351  0.00  0.00    +0.000 A 
ATOM      3  C   UNL     1      46.021   6.462  12.194  0.00  0.00    +0.000 A 
ATOM      4  C   UNL     1      47.375   6.817  12.078  0.00  0.00    +0.000 A 
ATOM      5  C   UNL     1      47.793   8.161  12.066  0.00  0.00    +0.000 A 
ATOM      6  C   UNL     1      46.803   9.142  12.255  0.00  0.00    +0.000 A 
ENDROOT
BRANCH   5   7
ATOM      7  C   UNL     1      49.201   8.523  11.766  0.00  0.00    +0.000 A 
ATOM      8  C   UNL     1      49.688   9.812  12.064  0.00  0.00    +0.000 A 
ATOM      9  C   UNL     1      51.025  10.163  11.850  0.00  0.00    +0.000 A 
ATOM     10  C   UNL     1      51.913   9.226  11.337  0.00  0.00    +0.000 A 
ATOM     11  C   UNL     1      51.461   7.946  11.028  0.00  0.00    +0.000 A 
ATOM     12  C   UNL     1      50.119   7.602  11.233  0.00  0.00    +0.000 A 
ENDBRANCH   5   7
BRANCH   1  13
ATOM     13  O   UNL     1      44.600   9.877  12.517  0.00  0.00    +0.000 OA
BRANCH  13  15
ATOM     14  C   UNL     1      43.438  10.196  10.452  0.00  0.00    +0.000 C 
ATOM     15  C   UNL     1      44.495  10.746  11.389  0.00  0.00    +0.000 C 
ENDBRANCH  13  15
ENDBRANCH   1  13
BRANCH   3  16
ATOM     16  C   UNL     1      45.595   5.022  12.010  0.00  0.00    +0.000 C 
BRANCH  16  17
ATOM     17  C   UNL     1      44.298   4.967  11.193  0.00  0.00    +0.000 C 
BRANCH  17  18
ATOM     18  N   UNL     1      44.546   5.183   9.773  0.00  0.00    +0.000 N 
ATOM     19  C   UNL     1      45.247   4.207   9.075  0.00  0.00    +0.000 A 
ATOM     20  C   UNL     1      45.124   2.847   9.343  0.00  0.00    +0.000 A 
ATOM     21  C   UNL     1      45.822   1.920   8.570  0.00  0.00    +0.000 A 
ATOM     22  C   UNL     1      46.613   2.357   7.514  0.00  0.00    +0.000 A 
ATOM     23  C   UNL     1      46.676   3.726   7.305  0.00  0.00    +0.000 A 
ATOM     24  N   UNL     1      46.020   4.651   8.064  0.00  0.00    +0.000 NA
ATOM     25  H   UNL     1      44.938   6.085   9.512  0.00  0.00    +0.000 HD
BRANCH  22  26
ATOM     26  C   UNL     1      47.315   1.343   6.688  0.00  0.00    +0.000 C 
ATOM     27  N   UNL     1      48.331   1.737   5.865  0.00  0.00    +0.000 N 
ATOM     28  O   UNL     1      46.993   0.161   6.730  0.00  0.00    +0.000 OA
ATOM     29  H   UNL     1      48.645   2.683   5.719  0.00  0.00    +0.000 HD
ATOM     30  H   UNL     1      48.759   1.011   5.302  0.00  0.00    +0.000 HD
ENDBRANCH  22  26
ENDBRANCH  17  18
ENDBRANCH  16  17
ENDBRANCH   3  16
TORSDOF 7
ENDMDL
MODEL 5
REMARK VINA RESULT:    -7.521      1.719      2.453
REMARK INTER + INTRA:         -11.780
REMARK INTER:                 -11.541
REMARK INTRA:                  -0.239
REMARK UNBOUND:                -1.181
REMARK  Name = 
REMARK  8 active torsions:
REMARK  status: ('A' for Active; 'I' for Inactive)
REMARK    1  A    between atoms: C_1  and  C_2
REMARK    2  A    between atoms: C_2  and  O_3
REMARK    3  A    between atoms: O_3  and  C_4
REMARK    4  A    between atoms: C_6  and  C_7
REMARK    5  A    between atoms: C_7  and  C_8
REMARK    6  A    between atoms: C_8  and  N_9
REMARK    7  A    between atoms: C_13  and  C_14
REMARK    8  A    between atoms: C_20  and  C_21
REMARK                            x       y       z     vdW  Elec       q    Type
REMARK                         _______ _______ _______ _____ _____    ______ ____
ROOT
ATOM      1  C   UNL     1      47.443   5.999  13.799  0.00  0.00    +0.000 A 
ATOM      2  C   UNL     1      46.716   4.909  13.323  0.00  0.00    +0.000 A 
ATOM      3  C   UNL     1      45.735   5.088  12.341  0.00  0.00    +0.000 A 
ATOM      4  C   UNL     1      45.494   6.378  11.841  0.00  0.00    +0.000 A 
ATOM      5  C   UNL     1      46.175   7.507  12.335  0.00  0.00    +0.000 A 
ATOM      6  C   UNL     1      47.173   7.281  13.301  0.00  0.00    +0.000 A 
ENDROOT
BRANCH   5   7
ATOM      7  C   UNL     1      45.784   8.879  11.925  0.00  0.00    +0.000 A 
ATOM      8  C   UNL     1      44.509   9.128  11.379  0.00  0.00    +0.000 A 
ATOM      9  C   UNL     1      44.090  10.418  11.042  0.00  0.00    +0.000 A 
ATOM     10  C   UNL     1      44.937  11.499  11.253  0.00  0.00    +0.000 A 
ATOM     11  C   UNL     1      46.206  11.285  11.786  0.00  0.00    +0.000 A 
ATOM     12  C   UNL     1      46.626   9.989  12.111  0.00  0.00    +0.000 A 
ENDBRANCH   5   7
BRANCH   1  13
ATOM     13  O   UNL     1      48.407   5.949  14.772  0.00  0.00    +0.000 OA
BRANCH  13  15
ATOM     14  C   UNL     1      50.383   7.161  15.358  0.00  0.00    +0.000 C 
ATOM     15  C   UNL     1      48.869   7.201  15.279  0.00  0.00    +0.000 C 
ENDBRANCH  13  15
ENDBRANCH   1  13
BRANCH   3  16
ATOM     16  C   UNL     1      44.850   3.934  11.923  0.00  0.00    +0.000 C 
BRANCH  16  17
ATOM     17  C   UNL     1      43.638   4.465  11.148  0.00  0.00    +0.000 C 
BRANCH  17  18
ATOM     18  N   UNL     1      43.998   4.864   9.793  0.00  0.00    +0.000 N 
ATOM     19  C   UNL     1      44.871   4.050   9.081  0.00  0.00    +0.000 A 
ATOM     20  C   UNL     1      44.879   2.664   9.196  0.00  0.00    +0.000 A 
ATOM     21  C   UNL     1      45.751   1.906   8.415  0.00  0.00    +0.000 A 
ATOM     22  C   UNL     1      46.587   2.538   7.502  0.00  0.00    +0.000 A 
ATOM     23  C   UNL     1      46.514   3.921   7.440  0.00  0.00    +0.000 A 
ATOM     24  N   UNL     1      45.684   4.682   8.212  0.00  0.00    +0.000 NA
ATOM     25  H   UNL     1      44.309   5.825   9.669  0.00  0.00    +0.000 HD
BRANCH  22  26
ATOM     26  C   UNL     1      47.478   1.701   6.660  0.00  0.00    +0.000 C 
ATOM     27  N   UNL     1      48.544   2.279   6.032  0.00  0.00    +0.000 N 
ATOM     28  O   UNL     1      47.267   0.502   6.515  0.00  0.00    +0.000 OA
ATOM     29  H   UNL     1      48.781   3.258   6.045  0.00  0.00    +0.000 HD
ATOM     30  H   UNL     1      49.105   1.670   5.448  0.00  0.00    +0.000 HD
ENDBRANCH  22  26
ENDBRANCH  17  18
ENDBRANCH  16  17
ENDBRANCH   3  16
TORSDOF 7
ENDMDL
MODEL 6
REMARK VINA RESULT:    -7.327      2.694      3.956
REMARK INTER + INTRA:         -11.507
REMARK INTER:                 -10.768
REMARK INTRA:                  -0.739
REMARK UNBOUND:                -1.181
REMARK  Name = 
REMARK  8 active torsions:
REMARK  status: ('A' for Active; 'I' for Inactive)
REMARK    1  A    between atoms: C_1  and  C_2
REMARK    2  A    between atoms: C_2  and  O_3
REMARK    3  A    between atoms: O_3  and  C_4
REMARK    4  A    between atoms: C_6  and  C_7
REMARK    5  A    between atoms: C_7  and  C_8
REMARK    6  A    between atoms: C_8  and  N_9
REMARK    7  A    between atoms: C_13  and  C_14
REMARK    8  A    between atoms: C_20  and  C_21
REMARK                            x       y       z     vdW  Elec       q    Type
REMARK                         _______ _______ _______ _____ _____    ______ ____
ROOT
ATOM      1  C   UNL     1      47.163   8.171  12.426  0.00  0.00    +0.000 A 
ATOM      2  C   UNL     1      46.801   6.825  12.395  0.00  0.00    +0.000 A 
ATOM      3  C   UNL     1      45.535   6.445  11.935  0.00  0.00    +0.000 A 
ATOM      4  C   UNL     1      44.637   7.434  11.504  0.00  0.00    +0.000 A 
ATOM      5  C   UNL     1      44.952   8.804  11.568  0.00  0.00    +0.000 A 
ATOM      6  C   UNL     1      46.244   9.144  12.010  0.00  0.00    +0.000 A 
ENDROOT
BRANCH   5   7
ATOM      7  C   UNL     1      43.931   9.841  11.279  0.00  0.00    +0.000 A 
ATOM      8  C   UNL     1      44.211  11.205  11.498  0.00  0.00    +0.000 A 
ATOM      9  C   UNL     1      43.292  12.208  11.176  0.00  0.00    +0.000 A 
ATOM     10  C   UNL     1      42.066  11.871  10.617  0.00  0.00    +0.000 A 
ATOM     11  C   UNL     1      41.757  10.532  10.393  0.00  0.00    +0.000 A 
ATOM     12  C   UNL     1      42.676   9.529  10.726  0.00  0.00    +0.000 A 
ENDBRANCH   5   7
BRANCH   1  13
ATOM     13  O   UNL     1      48.361   8.663  12.876  0.00  0.00    +0.000 OA
BRANCH  13  15
ATOM     14  C   UNL     1      50.323   7.777  11.834  0.00  0.00    +0.000 C 
ATOM     15  C   UNL     1      49.415   7.716  13.048  0.00  0.00    +0.000 C 
ENDBRANCH  13  15
ENDBRANCH   1  13
BRANCH   3  16
ATOM     16  C   UNL     1      45.088   5.002  12.030  0.00  0.00    +0.000 C 
BRANCH  16  17
ATOM     17  C   UNL     1      43.868   4.777  11.128  0.00  0.00    +0.000 C 
BRANCH  17  18
ATOM     18  N   UNL     1      44.184   5.017   9.726  0.00  0.00    +0.000 N 
ATOM     19  C   UNL     1      44.983   4.090   9.067  0.00  0.00    +0.000 A 
ATOM     20  C   UNL     1      44.929   2.724   9.324  0.00  0.00    +0.000 A 
ATOM     21  C   UNL     1      45.727   1.846   8.591  0.00  0.00    +0.000 A 
ATOM     22  C   UNL     1      46.549   2.338   7.584  0.00  0.00    +0.000 A 
ATOM     23  C   UNL     1      46.540   3.709   7.382  0.00  0.00    +0.000 A 
ATOM     24  N   UNL     1      45.785   4.587   8.104  0.00  0.00    +0.000 NA
ATOM     25  H   UNL     1      44.534   5.943   9.490  0.00  0.00    +0.000 HD
BRANCH  22  26
ATOM     26  C   UNL     1      47.359   1.374   6.797  0.00  0.00    +0.000 C 
ATOM     27  N   UNL     1      48.468   1.816   6.133  0.00  0.00    +0.000 N 
ATOM     28  O   UNL     1      47.044   0.191   6.730  0.00  0.00    +0.000 OA
ATOM     29  H   UNL     1      48.789   2.769   6.083  0.00  0.00    +0.000 HD
ATOM     30  H   UNL     1      48.970   1.123   5.589  0.00  0.00    +0.000 HD
ENDBRANCH  22  26
ENDBRANCH  17  18
ENDBRANCH  16  17
ENDBRANCH   3  16
TORSDOF 7
ENDMDL
MODEL 7
REMARK VINA RESULT:    -6.844      1.961      4.402
REMARK INTER + INTRA:         -10.825
REMARK INTER:                  -9.757
REMARK INTRA:                  -1.068
REMARK UNBOUND:                -1.181
REMARK  Name = 
REMARK  8 active torsions:
REMARK  status: ('A' for Active; 'I' for Inactive)
REMARK    1  A    between atoms: C_1  and  C_2
REMARK    2  A    between atoms: C_2  and  O_3
REMARK    3  A    between atoms: O_3  and  C_4
REMARK    4  A    between atoms: C_6  and  C_7
REMARK    5  A    between atoms: C_7  and  C_8
REMARK    6  A    between atoms: C_8  and  N_9
REMARK    7  A    between atoms: C_13  and  C_14
REMARK    8  A    between atoms: C_20  and  C_21
REMARK                            x       y       z     vdW  Elec       q    Type
REMARK                         _______ _______ _______ _____ _____    ______ ____
ROOT
ATOM      1  C   UNL     1      46.501   6.913  12.205  0.00  0.00    +0.000 A 
ATOM      2  C   UNL     1      45.395   6.208  11.730  0.00  0.00    +0.000 A 
ATOM      3  C   UNL     1      44.918   5.091  12.424  0.00  0.00    +0.000 A 
ATOM      4  C   UNL     1      45.565   4.689  13.604  0.00  0.00    +0.000 A 
ATOM      5  C   UNL     1      46.712   5.348  14.084  0.00  0.00    +0.000 A 
ATOM      6  C   UNL     1      47.144   6.484  13.374  0.00  0.00    +0.000 A 
ENDROOT
BRANCH   5   7
ATOM      7  C   UNL     1      47.486   4.806  15.229  0.00  0.00    +0.000 A 
ATOM      8  C   UNL     1      48.373   5.630  15.950  0.00  0.00    +0.000 A 
ATOM      9  C   UNL     1      49.068   5.164  17.070  0.00  0.00    +0.000 A 
ATOM     10  C   UNL     1      48.886   3.857  17.504  0.00  0.00    +0.000 A 
ATOM     11  C   UNL     1      48.021   3.016  16.809  0.00  0.00    +0.000 A 
ATOM     12  C   UNL     1      47.335   3.483  15.681  0.00  0.00    +0.000 A 
ENDBRANCH   5   7
BRANCH   1  13
ATOM     13  O   UNL     1      47.069   8.003  11.600  0.00  0.00    +0.000 OA
BRANCH  13  15
ATOM     14  C   UNL     1      45.648   9.882  12.010  0.00  0.00    +0.000 C 
ATOM     15  C   UNL     1      46.990   9.240  12.307  0.00  0.00    +0.000 C 
ENDBRANCH  13  15
ENDBRANCH   1  13
BRANCH   3  16
ATOM     16  C   UNL     1      43.809   4.243  11.840  0.00  0.00    +0.000 C 
BRANCH  16  17
ATOM     17  C   UNL     1      44.122   3.920  10.374  0.00  0.00    +0.000 C 
BRANCH  17  18
ATOM     18  N   UNL     1      45.082   2.830  10.255  0.00  0.00    +0.000 N 
ATOM     19  C   UNL     1      45.604   2.551   8.998  0.00  0.00    +0.000 A 
ATOM     20  C   UNL     1      45.871   3.536   8.053  0.00  0.00    +0.000 A 
ATOM     21  C   UNL     1      46.440   3.188   6.828  0.00  0.00    +0.000 A 
ATOM     22  C   UNL     1      46.767   1.862   6.569  0.00  0.00    +0.000 A 
ATOM     23  C   UNL     1      46.478   0.942   7.565  0.00  0.00    +0.000 A 
ATOM     24  N   UNL     1      45.901   1.258   8.760  0.00  0.00    +0.000 NA
ATOM     25  H   UNL     1      44.818   1.944  10.679  0.00  0.00    +0.000 HD
BRANCH  22  26
ATOM     26  C   UNL     1      47.404   1.530   5.270  0.00  0.00    +0.000 C 
ATOM     27  N   UNL     1      47.090   0.353   4.653  0.00  0.00    +0.000 N 
ATOM     28  O   UNL     1      48.210   2.291   4.749  0.00  0.00    +0.000 OA
ATOM     29  H   UNL     1      46.479  -0.363   5.013  0.00  0.00    +0.000 HD
ATOM     30  H   UNL     1      47.573   0.161   3.782  0.00  0.00    +0.000 HD
ENDBRANCH  22  26
ENDBRANCH  17  18
ENDBRANCH  16  17
ENDBRANCH   3  16
TORSDOF 7
ENDMDL
MODEL 8
REMARK VINA RESULT:    -6.741      4.136      7.951
REMARK INTER + INTRA:         -10.680
REMARK INTER:                  -9.235
REMARK INTRA:                  -1.445
REMARK UNBOUND:                -1.181
REMARK  Name = 
REMARK  8 active torsions:
REMARK  status: ('A' for Active; 'I' for Inactive)
REMARK    1  A    between atoms: C_1  and  C_2
REMARK    2  A    between atoms: C_2  and  O_3
REMARK    3  A    between atoms: O_3  and  C_4
REMARK    4  A    between atoms: C_6  and  C_7
REMARK    5  A    between atoms: C_7  and  C_8
REMARK    6  A    between atoms: C_8  and  N_9
REMARK    7  A    between atoms: C_13  and  C_14
REMARK    8  A    between atoms: C_20  and  C_21
REMARK                            x       y       z     vdW  Elec       q    Type
REMARK                         _______ _______ _______ _____ _____    ______ ____
ROOT
ATOM      1  C   UNL     1      45.349   9.384  12.075  0.00  0.00    +0.000 A 
ATOM      2  C   UNL     1      46.731   9.466  12.241  0.00  0.00    +0.000 A 
ATOM      3  C   UNL     1      47.521   8.313  12.166  0.00  0.00    +0.000 A 
ATOM      4  C   UNL     1      46.905   7.075  11.920  0.00  0.00    +0.000 A 
ATOM      5  C   UNL     1      45.509   6.951  11.796  0.00  0.00    +0.000 A 
ATOM      6  C   UNL     1      44.753   8.136  11.850  0.00  0.00    +0.000 A 
ENDROOT
BRANCH   5   7
ATOM      7  C   UNL     1      44.862   5.617  11.714  0.00  0.00    +0.000 A 
ATOM      8  C   UNL     1      44.209   5.068  12.836  0.00  0.00    +0.000 A 
ATOM      9  C   UNL     1      43.538   3.843  12.773  0.00  0.00    +0.000 A 
ATOM     10  C   UNL     1      43.495   3.138  11.577  0.00  0.00    +0.000 A 
ATOM     11  C   UNL     1      44.135   3.652  10.452  0.00  0.00    +0.000 A 
ATOM     12  C   UNL     1      44.816   4.874  10.522  0.00  0.00    +0.000 A 
ENDBRANCH   5   7
BRANCH   1  13
ATOM     13  O   UNL     1      44.475  10.437  12.152  0.00  0.00    +0.000 OA
BRANCH  13  15
ATOM     14  C   UNL     1      44.405  11.230   9.897  0.00  0.00    +0.000 C 
ATOM     15  C   UNL     1      43.605  10.627  11.036  0.00  0.00    +0.000 C 
ENDBRANCH  13  15
ENDBRANCH   1  13
BRANCH   3  16
ATOM     16  C   UNL     1      48.999   8.377  12.483  0.00  0.00    +0.000 C 
BRANCH  16  17
ATOM     17  C   UNL     1      49.196   8.593  13.988  0.00  0.00    +0.000 C 
BRANCH  17  18
ATOM     18  N   UNL     1      50.019   7.545  14.580  0.00  0.00    +0.000 N 
ATOM     19  C   UNL     1      49.391   6.582  15.360  0.00  0.00    +0.000 A 
ATOM     20  C   UNL     1      48.115   6.100  15.088  0.00  0.00    +0.000 A 
ATOM     21  C   UNL     1      47.565   5.097  15.886  0.00  0.00    +0.000 A 
ATOM     22  C   UNL     1      48.308   4.562  16.932  0.00  0.00    +0.000 A 
ATOM     23  C   UNL     1      49.574   5.089  17.134  0.00  0.00    +0.000 A 
ATOM     24  N   UNL     1      50.121   6.085  16.379  0.00  0.00    +0.000 NA
ATOM     25  H   UNL     1      50.851   7.849  15.081  0.00  0.00    +0.000 HD
BRANCH  22  26
ATOM     26  C   UNL     1      47.708   3.472  17.742  0.00  0.00    +0.000 C 
ATOM     27  N   UNL     1      48.367   3.019  18.849  0.00  0.00    +0.000 N 
ATOM     28  O   UNL     1      46.635   2.969  17.427  0.00  0.00    +0.000 OA
ATOM     29  H   UNL     1      49.271   3.328  19.169  0.00  0.00    +0.000 HD
ATOM     30  H   UNL     1      47.928   2.255  19.350  0.00  0.00    +0.000 HD
ENDBRANCH  22  26
ENDBRANCH  17  18
ENDBRANCH  16  17
ENDBRANCH   3  16
TORSDOF 7
ENDMDL
MODEL 9
REMARK VINA RESULT:    -6.436      4.286      6.427
REMARK INTER + INTRA:         -10.251
REMARK INTER:                  -9.028
REMARK INTRA:                  -1.223
REMARK UNBOUND:                -1.181
REMARK  Name = 
REMARK  8 active torsions:
REMARK  status: ('A' for Active; 'I' for Inactive)
REMARK    1  A    between atoms: C_1  and  C_2
REMARK    2  A    between atoms: C_2  and  O_3
REMARK    3  A    between atoms: O_3  and  C_4
REMARK    4  A    between atoms: C_6  and  C_7
REMARK    5  A    between atoms: C_7  and  C_8
REMARK    6  A    between atoms: C_8  and  N_9
REMARK    7  A    between atoms: C_13  and  C_14
REMARK    8  A    between atoms: C_20  and  C_21
REMARK                            x       y       z     vdW  Elec       q    Type
REMARK                         _______ _______ _______ _____ _____    ______ ____
ROOT
ATOM      1  C   UNL     1      48.451   5.293  17.667  0.00  0.00    +0.000 A 
ATOM      2  C   UNL     1      48.836   5.913  16.478  0.00  0.00    +0.000 A 
ATOM      3  C   UNL     1      48.858   7.309  16.385  0.00  0.00    +0.000 A 
ATOM      4  C   UNL     1      48.489   8.076  17.502  0.00  0.00    +0.000 A 
ATOM      5  C   UNL     1      48.050   7.483  18.700  0.00  0.00    +0.000 A 
ATOM      6  C   UNL     1      48.068   6.077  18.764  0.00  0.00    +0.000 A 
ENDROOT
BRANCH   5   7
ATOM      7  C   UNL     1      47.496   8.305  19.805  0.00  0.00    +0.000 A 
ATOM      8  C   UNL     1      47.521   7.831  21.132  0.00  0.00    +0.000 A 
ATOM      9  C   UNL     1      47.065   8.608  22.201  0.00  0.00    +0.000 A 
ATOM     10  C   UNL     1      46.577   9.888  21.969  0.00  0.00    +0.000 A 
ATOM     11  C   UNL     1      46.534  10.382  20.668  0.00  0.00    +0.000 A 
ATOM     12  C   UNL     1      46.982   9.597  19.599  0.00  0.00    +0.000 A 
ENDBRANCH   5   7
BRANCH   1  13
ATOM     13  O   UNL     1      48.368   3.940  17.868  0.00  0.00    +0.000 OA
BRANCH  13  15
ATOM     14  C   UNL     1      49.196   2.099  16.585  0.00  0.00    +0.000 C 
ATOM     15  C   UNL     1      48.100   3.138  16.717  0.00  0.00    +0.000 C 
ENDBRANCH  13  15
ENDBRANCH   1  13
BRANCH   3  16
ATOM     16  C   UNL     1      49.139   7.982  15.060  0.00  0.00    +0.000 C 
BRANCH  16  17
ATOM     17  C   UNL     1      48.953   6.975  13.918  0.00  0.00    +0.000 C 
BRANCH  17  18
ATOM     18  N   UNL     1      47.785   7.292  13.105  0.00  0.00    +0.000 N 
ATOM     19  C   UNL     1      46.932   6.253  12.753  0.00  0.00    +0.000 A 
ATOM     20  C   UNL     1      46.661   5.176  13.591  0.00  0.00    +0.000 A 
ATOM     21  C   UNL     1      45.757   4.193  13.190  0.00  0.00    +0.000 A 
ATOM     22  C   UNL     1      45.106   4.310  11.967  0.00  0.00    +0.000 A 
ATOM     23  C   UNL     1      45.423   5.416  11.193  0.00  0.00    +0.000 A 
ATOM     24  N   UNL     1      46.322   6.377  11.557  0.00  0.00    +0.000 NA
ATOM     25  H   UNL     1      47.950   7.848  12.270  0.00  0.00    +0.000 HD
BRANCH  22  26
ATOM     26  C   UNL     1      44.124   3.266  11.585  0.00  0.00    +0.000 C 
ATOM     27  N   UNL     1      43.729   2.345  12.513  0.00  0.00    +0.000 N 
ATOM     28  O   UNL     1      43.667   3.214  10.448  0.00  0.00    +0.000 OA
ATOM     29  H   UNL     1      44.073   2.268  13.456  0.00  0.00    +0.000 HD
ATOM     30  H   UNL     1      43.077   1.638  12.193  0.00  0.00    +0.000 HD
ENDBRANCH  22  26
ENDBRANCH  17  18
ENDBRANCH  16  17
ENDBRANCH   3  16
TORSDOF 7
ENDMDL
