MODEL 1
REMARK VINA RESULT:    -8.014      0.000      0.000
REMARK INTER + INTRA:         -13.561
REMARK INTER:                 -12.699
REMARK INTRA:                  -0.861
REMARK UNBOUND:                -0.861
REMARK  Name = 
REMARK  11 active torsions:
REMARK  status: ('A' for Active; 'I' for Inactive)
REMARK    1  A    between atoms: C_2  and  C_3
REMARK    2  A    between atoms: C_3  and  C_4
REMARK    3  A    between atoms: C_3  and  C_22
REMARK    4  A    between atoms: C_4  and  C_5
REMARK    5  A    between atoms: C_8  and  C_9
REMARK    6  A    between atoms: C_9  and  N_10
REMARK    7  A    between atoms: N_10  and  CA_11
REMARK    8  A    between atoms: CA_11  and  C_12
REMARK    9  A    between atoms: CA_11  and  C_14
REMARK   10  A    between atoms: C_12  and  O_13
REMARK   11  A    between atoms: C_29  and  O_30
REMARK                            x       y       z     vdW  Elec       q    Type
REMARK                         _______ _______ _______ _____ _____    ______ ____
ROOT
ATOM      1  C   UNL     1      47.747   5.890  14.730  0.00  0.00    +0.000 A 
ATOM      2  C   UNL     1      46.908   4.770  14.686  0.00  0.00    +0.000 A 
ATOM      3  C   UNL     1      45.945   4.644  13.687  0.00  0.00    +0.000 A 
ATOM      4  C   UNL     1      45.779   5.645  12.724  0.00  0.00    +0.000 A 
ATOM      5  C   UNL     1      46.642   6.752  12.748  0.00  0.00    +0.000 A 
ATOM      6  C   UNL     1      47.617   6.873  13.742  0.00  0.00    +0.000 A 
ENDROOT
BRANCH   1   7
ATOM      7  C   UNL     1      48.786   6.015  15.822  0.00  0.00    +0.000 C 
BRANCH   7   8
ATOM      8  C   UNL     1      48.683   4.935  16.914  0.00  0.00    +0.000 C 
BRANCH   8   9
ATOM      9  C   UNL     1      50.045   4.599  17.490  0.00  0.00    +0.000 A 
ATOM     10  C   UNL     1      50.909   5.426  18.204  0.00  0.00    +0.000 A 
ATOM     11  N   UNL     1      51.995   4.685  18.597  0.00  0.00    +0.000 N 
ATOM     12  C   UNL     1      51.869   3.406  18.136  0.00  0.00    +0.000 A 
ATOM     13  N   UNL     1      52.747   2.416  18.357  0.00  0.00    +0.000 NA
ATOM     14  C   UNL     1      52.352   1.266  17.778  0.00  0.00    +0.000 A 
ATOM     15  N   UNL     1      51.250   1.041  17.033  0.00  0.00    +0.000 NA
ATOM     16  C   UNL     1      50.426   2.080  16.858  0.00  0.00    +0.000 A 
ATOM     17  C   UNL     1      50.688   3.323  17.419  0.00  0.00    +0.000 A 
ATOM     18  H   UNL     1      52.770   5.010  19.158  0.00  0.00    +0.000 HD
BRANCH  16  19
ATOM     19  O   UNL     1      49.324   1.825  16.093  0.00  0.00    +0.000 OA
ATOM     20  H   UNL     1      48.979   2.730  15.987  0.00  0.00    +0.000 HD
ENDBRANCH  16  19
ENDBRANCH   8   9
BRANCH   8  22
ATOM     21  N   UNL     1      47.054   5.691  18.846  0.00  0.00    +0.000 NA
ATOM     22  C   UNL     1      47.772   5.347  18.002  0.00  0.00    +0.000 C 
ENDBRANCH   8  22
ENDBRANCH   7   8
ENDBRANCH   1   7
BRANCH   4  23
ATOM     23  C   UNL     1      44.729   5.528  11.641  0.00  0.00    +0.000 C 
BRANCH  23  24
ATOM     24  N   UNL     1      45.283   4.992  10.402  0.00  0.00    +0.000 NA
ATOM     25  H   UNL     1      46.274   4.782  10.499  0.00  0.00    +0.000 HD
BRANCH  24  26
ATOM     26  CA  UNL     1      44.563   3.830   9.858  0.00  0.00    +0.000 C 
BRANCH  26  27
ATOM     27  C   UNL     1      45.402   3.196   8.744  0.00  0.00    +0.000 A 
ATOM     28  C   UNL     1      45.979   3.938   7.701  0.00  0.00    +0.000 A 
ATOM     29  C   UNL     1      46.805   3.330   6.752  0.00  0.00    +0.000 A 
ATOM     30  C   UNL     1      47.056   1.963   6.813  0.00  0.00    +0.000 A 
ATOM     31  C   UNL     1      46.461   1.197   7.812  0.00  0.00    +0.000 A 
ATOM     32  C   UNL     1      45.644   1.807   8.768  0.00  0.00    +0.000 A 
ENDBRANCH  26  27
BRANCH  26  33
ATOM     33  C   UNL     1      44.084   2.842  10.962  0.00  0.00    +0.000 C 
BRANCH  33  34
ATOM     34  O   UNL     1      42.723   3.050  11.348  0.00  0.00    +0.000 OA
ATOM     35  H   UNL     1      42.191   2.365  10.909  0.00  0.00    +0.000 HD
ENDBRANCH  33  34
ENDBRANCH  26  33
ENDBRANCH  24  26
ENDBRANCH  23  24
ENDBRANCH   4  23
TORSDOF 11
ENDMDL
MODEL 2
REMARK VINA RESULT:    -7.832      1.767      2.319
REMARK INTER + INTRA:         -13.272
REMARK INTER:                 -11.844
REMARK INTRA:                  -1.428
REMARK UNBOUND:                -0.861
REMARK  Name = 
REMARK  11 active torsions:
REMARK  status: ('A' for Active; 'I' for Inactive)
REMARK    1  A    between atoms: C_2  and  C_3
REMARK    2  A    between atoms: C_3  and  C_4
REMARK    3  A    between atoms: C_3  and  C_22
REMARK    4  A    between atoms: C_4  and  C_5
REMARK    5  A    between atoms: C_8  and  C_9
REMARK    6  A    between atoms: C_9  and  N_10
REMARK    7  A    between atoms: N_10  and  CA_11
REMARK    8  A    between atoms: CA_11  and  C_12
REMARK    9  A    between atoms: CA_11  and  C_14
REMARK   10  A    between atoms: C_12  and  O_13
REMARK   11  A    between atoms: C_29  and  O_30
REMARK                            x       y       z     vdW  Elec       q    Type
REMARK                         _______ _______ _______ _____ _____    ______ ____
ROOT
ATOM      1  C   UNL     1      47.664   7.381  13.536  0.00  0.00    +0.000 A 
ATOM      2  C   UNL     1      47.603   6.065  13.062  0.00  0.00    +0.000 A 
ATOM      3  C   UNL     1      46.474   5.607  12.385  0.00  0.00    +0.000 A 
ATOM      4  C   UNL     1      45.370   6.442  12.189  0.00  0.00    +0.000 A 
ATOM      5  C   UNL     1      45.444   7.771  12.635  0.00  0.00    +0.000 A 
ATOM      6  C   UNL     1      46.580   8.236  13.303  0.00  0.00    +0.000 A 
ENDROOT
BRANCH   1   7
ATOM      7  C   UNL     1      48.893   7.864  14.271  0.00  0.00    +0.000 C 
BRANCH   7   8
ATOM      8  C   UNL     1      48.795   7.751  15.803  0.00  0.00    +0.000 C 
BRANCH   8   9
ATOM      9  C   UNL     1      49.729   6.685  16.341  0.00  0.00    +0.000 A 
ATOM     10  C   UNL     1      51.098   6.776  16.582  0.00  0.00    +0.000 A 
ATOM     11  N   UNL     1      51.522   5.597  17.141  0.00  0.00    +0.000 N 
ATOM     12  C   UNL     1      50.468   4.735  17.247  0.00  0.00    +0.000 A 
ATOM     13  N   UNL     1      50.530   3.500  17.767  0.00  0.00    +0.000 NA
ATOM     14  C   UNL     1      49.330   2.890  17.737  0.00  0.00    +0.000 A 
ATOM     15  N   UNL     1      48.165   3.361  17.248  0.00  0.00    +0.000 NA
ATOM     16  C   UNL     1      48.187   4.599  16.745  0.00  0.00    +0.000 A 
ATOM     17  C   UNL     1      49.346   5.363  16.733  0.00  0.00    +0.000 A 
ATOM     18  H   UNL     1      52.459   5.385  17.452  0.00  0.00    +0.000 HD
BRANCH  16  19
ATOM     19  O   UNL     1      46.996   5.046  16.249  0.00  0.00    +0.000 OA
ATOM     20  H   UNL     1      47.312   5.760  15.667  0.00  0.00    +0.000 HD
ENDBRANCH  16  19
ENDBRANCH   8   9
BRANCH   8  22
ATOM     21  N   UNL     1      49.312  10.044  17.002  0.00  0.00    +0.000 NA
ATOM     22  C   UNL     1      49.084   9.042  16.463  0.00  0.00    +0.000 C 
ENDBRANCH   8  22
ENDBRANCH   7   8
ENDBRANCH   1   7
BRANCH   4  23
ATOM     23  C   UNL     1      44.132   5.955  11.468  0.00  0.00    +0.000 C 
BRANCH  23  24
ATOM     24  N   UNL     1      44.452   5.385  10.163  0.00  0.00    +0.000 NA
ATOM     25  H   UNL     1      45.430   5.536   9.923  0.00  0.00    +0.000 HD
BRANCH  24  26
ATOM     26  CA  UNL     1      44.099   3.965  10.008  0.00  0.00    +0.000 C 
BRANCH  26  27
ATOM     27  C   UNL     1      45.044   3.321   8.989  0.00  0.00    +0.000 A 
ATOM     28  C   UNL     1      45.767   4.060   8.039  0.00  0.00    +0.000 A 
ATOM     29  C   UNL     1      46.680   3.440   7.182  0.00  0.00    +0.000 A 
ATOM     30  C   UNL     1      46.877   2.064   7.244  0.00  0.00    +0.000 A 
ATOM     31  C   UNL     1      46.142   1.302   8.148  0.00  0.00    +0.000 A 
ATOM     32  C   UNL     1      45.236   1.924   9.012  0.00  0.00    +0.000 A 
ENDBRANCH  26  27
BRANCH  26  33
ATOM     33  C   UNL     1      43.990   3.214  11.368  0.00  0.00    +0.000 C 
BRANCH  33  34
ATOM     34  O   UNL     1      42.766   2.490  11.512  0.00  0.00    +0.000 OA
ATOM     35  H   UNL     1      42.548   2.117  10.641  0.00  0.00    +0.000 HD
ENDBRANCH  33  34
ENDBRANCH  26  33
ENDBRANCH  24  26
ENDBRANCH  23  24
ENDBRANCH   4  23
TORSDOF 11
ENDMDL
MODEL 3
REMARK VINA RESULT:    -7.801      2.815      4.087
REMARK INTER + INTRA:         -13.223
REMARK INTER:                 -11.532
REMARK INTRA:                  -1.690
REMARK UNBOUND:                -0.861
REMARK  Name = 
REMARK  11 active torsions:
REMARK  status: ('A' for Active; 'I' for Inactive)
REMARK    1  A    between atoms: C_2  and  C_3
REMARK    2  A    between atoms: C_3  and  C_4
REMARK    3  A    between atoms: C_3  and  C_22
REMARK    4  A    between atoms: C_4  and  C_5
REMARK    5  A    between atoms: C_8  and  C_9
REMARK    6  A    between atoms: C_9  and  N_10
REMARK    7  A    between atoms: N_10  and  CA_11
REMARK    8  A    between atoms: CA_11  and  C_12
REMARK    9  A    between atoms: CA_11  and  C_14
REMARK   10  A    between atoms: C_12  and  O_13
REMARK   11  A    between atoms: C_29  and  O_30
REMARK                            x       y       z     vdW  Elec       q    Type
REMARK                         _______ _______ _______ _____ _____    ______ ____
ROOT
ATOM      1  C   UNL     1      47.312   8.082  12.008  0.00  0.00    +0.000 A 
ATOM      2  C   UNL     1      46.056   8.692  12.102  0.00  0.00    +0.000 A 
ATOM      3  C   UNL     1      44.891   7.952  11.905  0.00  0.00    +0.000 A 
ATOM      4  C   UNL     1      44.954   6.592  11.584  0.00  0.00    +0.000 A 
ATOM      5  C   UNL     1      46.213   5.973  11.521  0.00  0.00    +0.000 A 
ATOM      6  C   UNL     1      47.381   6.711  11.732  0.00  0.00    +0.000 A 
ENDROOT
BRANCH   1   7
ATOM      7  C   UNL     1      48.567   8.898  12.222  0.00  0.00    +0.000 C 
BRANCH   7   8
ATOM      8  C   UNL     1      48.748   9.409  13.662  0.00  0.00    +0.000 C 
BRANCH   8   9
ATOM      9  C   UNL     1      49.979   8.810  14.312  0.00  0.00    +0.000 A 
ATOM     10  C   UNL     1      51.294   9.266  14.256  0.00  0.00    +0.000 A 
ATOM     11  N   UNL     1      52.069   8.462  15.054  0.00  0.00    +0.000 N 
ATOM     12  C   UNL     1      51.294   7.481  15.606  0.00  0.00    +0.000 A 
ATOM     13  N   UNL     1      51.733   6.536  16.451  0.00  0.00    +0.000 NA
ATOM     14  C   UNL     1      50.738   5.710  16.829  0.00  0.00    +0.000 A 
ATOM     15  N   UNL     1      49.445   5.731  16.446  0.00  0.00    +0.000 NA
ATOM     16  C   UNL     1      49.089   6.703  15.600  0.00  0.00    +0.000 A 
ATOM     17  C   UNL     1      50.000   7.646  15.145  0.00  0.00    +0.000 A 
ATOM     18  H   UNL     1      53.057   8.571  15.235  0.00  0.00    +0.000 HD
BRANCH  16  19
ATOM     19  O   UNL     1      47.776   6.693  15.223  0.00  0.00    +0.000 OA
ATOM     20  H   UNL     1      47.389   7.218  15.946  0.00  0.00    +0.000 HD
ENDBRANCH  16  19
ENDBRANCH   8   9
BRANCH   8  22
ATOM     21  N   UNL     1      48.913  12.040  13.760  0.00  0.00    +0.000 NA
ATOM     22  C   UNL     1      48.829  10.884  13.710  0.00  0.00    +0.000 C 
ENDBRANCH   8  22
ENDBRANCH   7   8
ENDBRANCH   1   7
BRANCH   4  23
ATOM     23  C   UNL     1      43.700   5.779  11.353  0.00  0.00    +0.000 C 
BRANCH  23  24
ATOM     24  N   UNL     1      43.684   5.167  10.028  0.00  0.00    +0.000 NA
ATOM     25  H   UNL     1      44.402   5.566   9.427  0.00  0.00    +0.000 HD
BRANCH  24  26
ATOM     26  CA  UNL     1      43.773   3.699  10.028  0.00  0.00    +0.000 C 
BRANCH  26  27
ATOM     27  C   UNL     1      44.909   3.265   9.095  0.00  0.00    +0.000 A 
ATOM     28  C   UNL     1      45.325   1.930   8.963  0.00  0.00    +0.000 A 
ATOM     29  C   UNL     1      46.309   1.568   8.039  0.00  0.00    +0.000 A 
ATOM     30  C   UNL     1      46.912   2.535   7.241  0.00  0.00    +0.000 A 
ATOM     31  C   UNL     1      46.547   3.870   7.382  0.00  0.00    +0.000 A 
ATOM     32  C   UNL     1      45.555   4.232   8.298  0.00  0.00    +0.000 A 
ENDBRANCH  26  27
BRANCH  26  33
ATOM     33  C   UNL     1      43.835   3.093  11.461  0.00  0.00    +0.000 C 
BRANCH  33  34
ATOM     34  O   UNL     1      42.920   2.011  11.652  0.00  0.00    +0.000 OA
ATOM     35  H   UNL     1      43.301   1.231  11.214  0.00  0.00    +0.000 HD
ENDBRANCH  33  34
ENDBRANCH  26  33
ENDBRANCH  24  26
ENDBRANCH  23  24
ENDBRANCH   4  23
TORSDOF 11
ENDMDL
MODEL 4
REMARK VINA RESULT:    -7.752      1.868      2.691
REMARK INTER + INTRA:         -13.145
REMARK INTER:                 -11.782
REMARK INTRA:                  -1.364
REMARK UNBOUND:                -0.861
REMARK  Name = 
REMARK  11 active torsions:
REMARK  status: ('A' for Active; 'I' for Inactive)
REMARK    1  A    between atoms: C_2  and  C_3
REMARK    2  A    between atoms: C_3  and  C_4
REMARK    3  A    between atoms: C_3  and  C_22
REMARK    4  A    between atoms: C_4  and  C_5
REMARK    5  A    between atoms: C_8  and  C_9
REMARK    6  A    between atoms: C_9  and  N_10
REMARK    7  A    between atoms: N_10  and  CA_11
REMARK    8  A    between atoms: CA_11  and  C_12
REMARK    9  A    between atoms: CA_11  and  C_14
REMARK   10  A    between atoms: C_12  and  O_13
REMARK   11  A    between atoms: C_29  and  O_30
REMARK                            x       y       z     vdW  Elec       q    Type
REMARK                         _______ _______ _______ _____ _____    ______ ____
ROOT
ATOM      1  C   UNL     1      47.504   7.437  13.453  0.00  0.00    +0.000 A 
ATOM      2  C   UNL     1      46.437   8.279  13.118  0.00  0.00    +0.000 A 
ATOM      3  C   UNL     1      45.274   7.760  12.551  0.00  0.00    +0.000 A 
ATOM      4  C   UNL     1      45.160   6.392  12.280  0.00  0.00    +0.000 A 
ATOM      5  C   UNL     1      46.217   5.543  12.646  0.00  0.00    +0.000 A 
ATOM      6  C   UNL     1      47.378   6.061  13.227  0.00  0.00    +0.000 A 
ENDROOT
BRANCH   1   7
ATOM      7  C   UNL     1      48.759   8.014  14.066  0.00  0.00    +0.000 C 
BRANCH   7   8
ATOM      8  C   UNL     1      48.788   7.967  15.604  0.00  0.00    +0.000 C 
BRANCH   8   9
ATOM      9  C   UNL     1      49.854   7.016  16.110  0.00  0.00    +0.000 A 
ATOM     10  C   UNL     1      51.232   7.212  16.165  0.00  0.00    +0.000 A 
ATOM     11  N   UNL     1      51.805   6.120  16.766  0.00  0.00    +0.000 N 
ATOM     12  C   UNL     1      50.836   5.209  17.080  0.00  0.00    +0.000 A 
ATOM     13  N   UNL     1      51.050   4.036  17.694  0.00  0.00    +0.000 NA
ATOM     14  C   UNL     1      49.903   3.354  17.871  0.00  0.00    +0.000 A 
ATOM     15  N   UNL     1      48.656   3.705  17.495  0.00  0.00    +0.000 NA
ATOM     16  C   UNL     1      48.527   4.888  16.887  0.00  0.00    +0.000 A 
ATOM     17  C   UNL     1      49.618   5.716  16.660  0.00  0.00    +0.000 A 
ATOM     18  H   UNL     1      52.786   5.995  16.973  0.00  0.00    +0.000 HD
BRANCH  16  19
ATOM     19  O   UNL     1      47.255   5.213  16.510  0.00  0.00    +0.000 OA
ATOM     20  H   UNL     1      46.792   4.392  16.756  0.00  0.00    +0.000 HD
ENDBRANCH  16  19
ENDBRANCH   8   9
BRANCH   8  22
ATOM     21  N   UNL     1      49.160  10.372  16.624  0.00  0.00    +0.000 NA
ATOM     22  C   UNL     1      49.004   9.309  16.186  0.00  0.00    +0.000 C 
ENDBRANCH   8  22
ENDBRANCH   7   8
ENDBRANCH   1   7
BRANCH   4  23
ATOM     23  C   UNL     1      43.911   5.816  11.651  0.00  0.00    +0.000 C 
BRANCH  23  24
ATOM     24  N   UNL     1      44.159   5.323  10.300  0.00  0.00    +0.000 NA
ATOM     25  H   UNL     1      45.080   5.602   9.968  0.00  0.00    +0.000 HD
BRANCH  24  26
ATOM     26  CA  UNL     1      43.968   3.875  10.130  0.00  0.00    +0.000 C 
BRANCH  26  27
ATOM     27  C   UNL     1      45.009   3.345   9.137  0.00  0.00    +0.000 A 
ATOM     28  C   UNL     1      45.338   1.984   9.025  0.00  0.00    +0.000 A 
ATOM     29  C   UNL     1      46.232   1.535   8.050  0.00  0.00    +0.000 A 
ATOM     30  C   UNL     1      46.832   2.438   7.178  0.00  0.00    +0.000 A 
ATOM     31  C   UNL     1      46.555   3.797   7.296  0.00  0.00    +0.000 A 
ATOM     32  C   UNL     1      45.652   4.246   8.264  0.00  0.00    +0.000 A 
ENDBRANCH  26  27
BRANCH  26  33
ATOM     33  C   UNL     1      43.902   3.107  11.483  0.00  0.00    +0.000 C 
BRANCH  33  34
ATOM     34  O   UNL     1      42.885   2.102  11.508  0.00  0.00    +0.000 OA
ATOM     35  H   UNL     1      43.231   1.330  11.030  0.00  0.00    +0.000 HD
ENDBRANCH  33  34
ENDBRANCH  26  33
ENDBRANCH  24  26
ENDBRANCH  23  24
ENDBRANCH   4  23
TORSDOF 11
ENDMDL
MODEL 5
REMARK VINA RESULT:    -7.351      4.448      6.129
REMARK INTER + INTRA:         -12.509
REMARK INTER:                 -11.113
REMARK INTRA:                  -1.396
REMARK UNBOUND:                -0.861
REMARK  Name = 
REMARK  11 active torsions:
REMARK  status: ('A' for Active; 'I' for Inactive)
REMARK    1  A    between atoms: C_2  and  C_3
REMARK    2  A    between atoms: C_3  and  C_4
REMARK    3  A    between atoms: C_3  and  C_22
REMARK    4  A    between atoms: C_4  and  C_5
REMARK    5  A    between atoms: C_8  and  C_9
REMARK    6  A    between atoms: C_9  and  N_10
REMARK    7  A    between atoms: N_10  and  CA_11
REMARK    8  A    between atoms: CA_11  and  C_12
REMARK    9  A    between atoms: CA_11  and  C_14
REMARK   10  A    between atoms: C_12  and  O_13
REMARK   11  A    between atoms: C_29  and  O_30
REMARK                            x       y       z     vdW  Elec       q    Type
REMARK                         _______ _______ _______ _____ _____    ______ ____
ROOT
ATOM      1  C   UNL     1      47.009   8.254  12.147  0.00  0.00    +0.000 A 
ATOM      2  C   UNL     1      47.252   6.930  11.760  0.00  0.00    +0.000 A 
ATOM      3  C   UNL     1      46.195   6.079  11.442  0.00  0.00    +0.000 A 
ATOM      4  C   UNL     1      44.871   6.521  11.528  0.00  0.00    +0.000 A 
ATOM      5  C   UNL     1      44.629   7.857  11.884  0.00  0.00    +0.000 A 
ATOM      6  C   UNL     1      45.688   8.715  12.191  0.00  0.00    +0.000 A 
ENDROOT
BRANCH   1   7
ATOM      7  C   UNL     1      48.165   9.165  12.492  0.00  0.00    +0.000 C 
BRANCH   7   8
ATOM      8  C   UNL     1      49.551   8.561  12.202  0.00  0.00    +0.000 C 
BRANCH   8   9
ATOM      9  C   UNL     1      50.415   9.517  11.403  0.00  0.00    +0.000 A 
ATOM     10  C   UNL     1      50.279  10.897  11.267  0.00  0.00    +0.000 A 
ATOM     11  N   UNL     1      51.327  11.366  10.515  0.00  0.00    +0.000 N 
ATOM     12  C   UNL     1      52.125  10.322  10.140  0.00  0.00    +0.000 A 
ATOM     13  N   UNL     1      53.247  10.432   9.412  0.00  0.00    +0.000 NA
ATOM     14  C   UNL     1      53.820   9.231   9.203  0.00  0.00    +0.000 A 
ATOM     15  N   UNL     1      53.390   8.018   9.608  0.00  0.00    +0.000 NA
ATOM     16  C   UNL     1      52.262   7.995  10.326  0.00  0.00    +0.000 A 
ATOM     17  C   UNL     1      51.574   9.158  10.646  0.00  0.00    +0.000 A 
ATOM     18  H   UNL     1      51.510  12.331  10.279  0.00  0.00    +0.000 HD
BRANCH  16  19
ATOM     19  O   UNL     1      51.847   6.753  10.714  0.00  0.00    +0.000 OA
ATOM     20  H   UNL     1      52.461   6.201  10.197  0.00  0.00    +0.000 HD
ENDBRANCH  16  19
ENDBRANCH   8   9
BRANCH   8  22
ATOM     21  N   UNL     1      50.818   7.899  14.419  0.00  0.00    +0.000 NA
ATOM     22  C   UNL     1      50.251   8.182  13.447  0.00  0.00    +0.000 C 
ENDBRANCH   8  22
ENDBRANCH   7   8
ENDBRANCH   1   7
BRANCH   4  23
ATOM     23  C   UNL     1      43.713   5.604  11.199  0.00  0.00    +0.000 C 
BRANCH  23  24
ATOM     24  N   UNL     1      43.841   5.023   9.866  0.00  0.00    +0.000 NA
ATOM     25  H   UNL     1      44.611   5.445   9.350  0.00  0.00    +0.000 HD
BRANCH  24  26
ATOM     26  CA  UNL     1      43.951   3.557   9.842  0.00  0.00    +0.000 C 
BRANCH  26  27
ATOM     27  C   UNL     1      45.047   3.151   8.852  0.00  0.00    +0.000 A 
ATOM     28  C   UNL     1      45.700   4.067   8.012  0.00  0.00    +0.000 A 
ATOM     29  C   UNL     1      46.751   3.667   7.183  0.00  0.00    +0.000 A 
ATOM     30  C   UNL     1      47.160   2.338   7.161  0.00  0.00    +0.000 A 
ATOM     31  C   UNL     1      46.501   1.401   7.952  0.00  0.00    +0.000 A 
ATOM     32  C   UNL     1      45.457   1.803   8.790  0.00  0.00    +0.000 A 
ENDBRANCH  26  27
BRANCH  26  33
ATOM     33  C   UNL     1      44.088   2.934  11.263  0.00  0.00    +0.000 C 
BRANCH  33  34
ATOM     34  O   UNL     1      42.950   2.158  11.647  0.00  0.00    +0.000 OA
ATOM     35  H   UNL     1      42.173   2.740  11.596  0.00  0.00    +0.000 HD
ENDBRANCH  33  34
ENDBRANCH  26  33
ENDBRANCH  24  26
ENDBRANCH  23  24
ENDBRANCH   4  23
TORSDOF 11
ENDMDL
MODEL 6
REMARK VINA RESULT:    -6.838      3.410      8.573
REMARK INTER + INTRA:         -11.697
REMARK INTER:                  -9.492
REMARK INTRA:                  -2.205
REMARK UNBOUND:                -0.861
REMARK  Name = 
REMARK  11 active torsions:
REMARK  status: ('A' for Active; 'I' for Inactive)
REMARK    1  A    between atoms: C_2  and  C_3
REMARK    2  A    between atoms: C_3  and  C_4
REMARK    3  A    between atoms: C_3  and  C_22
REMARK    4  A    between atoms: C_4  and  C_5
REMARK    5  A    between atoms: C_8  and  C_9
REMARK    6  A    between atoms: C_9  and  N_10
REMARK    7  A    between atoms: N_10  and  CA_11
REMARK    8  A    between atoms: CA_11  and  C_12
REMARK    9  A    between atoms: CA_11  and  C_14
REMARK   10  A    between atoms: C_12  and  O_13
REMARK   11  A    between atoms: C_29  and  O_30
REMARK                            x       y       z     vdW  Elec       q    Type
REMARK                         _______ _______ _______ _____ _____    ______ ____
ROOT
ATOM      1  C   UNL     1      48.487   8.461  15.608  0.00  0.00    +0.000 A 
ATOM      2  C   UNL     1      48.080   9.221  16.711  0.00  0.00    +0.000 A 
ATOM      3  C   UNL     1      48.659   9.020  17.963  0.00  0.00    +0.000 A 
ATOM      4  C   UNL     1      49.637   8.038  18.149  0.00  0.00    +0.000 A 
ATOM      5  C   UNL     1      50.068   7.299  17.037  0.00  0.00    +0.000 A 
ATOM      6  C   UNL     1      49.498   7.508  15.778  0.00  0.00    +0.000 A 
ENDROOT
BRANCH   1   7
ATOM      7  C   UNL     1      47.849   8.688  14.257  0.00  0.00    +0.000 C 
BRANCH   7   8
ATOM      8  C   UNL     1      47.808   7.436  13.362  0.00  0.00    +0.000 C 
BRANCH   8   9
ATOM      9  C   UNL     1      46.387   7.077  12.976  0.00  0.00    +0.000 A 
ATOM     10  C   UNL     1      45.352   7.929  12.600  0.00  0.00    +0.000 A 
ATOM     11  N   UNL     1      44.261   7.168  12.262  0.00  0.00    +0.000 N 
ATOM     12  C   UNL     1      44.555   5.845  12.433  0.00  0.00    +0.000 A 
ATOM     13  N   UNL     1      43.716   4.830  12.177  0.00  0.00    +0.000 NA
ATOM     14  C   UNL     1      44.288   3.639  12.440  0.00  0.00    +0.000 A 
ATOM     15  N   UNL     1      45.523   3.393  12.923  0.00  0.00    +0.000 NA
ATOM     16  C   UNL     1      46.296   4.459  13.154  0.00  0.00    +0.000 A 
ATOM     17  C   UNL     1      45.853   5.751  12.904  0.00  0.00    +0.000 A 
ATOM     18  H   UNL     1      43.374   7.511  11.920  0.00  0.00    +0.000 HD
BRANCH  16  19
ATOM     19  O   UNL     1      47.537   4.180  13.650  0.00  0.00    +0.000 OA
ATOM     20  H   UNL     1      47.950   3.786  12.861  0.00  0.00    +0.000 HD
ENDBRANCH  16  19
ENDBRANCH   8   9
BRANCH   8  22
ATOM     21  N   UNL     1      49.252   7.734  11.174  0.00  0.00    +0.000 NA
ATOM     22  C   UNL     1      48.624   7.613  12.142  0.00  0.00    +0.000 C 
ENDBRANCH   8  22
ENDBRANCH   7   8
ENDBRANCH   1   7
BRANCH   4  23
ATOM     23  C   UNL     1      50.264   7.799  19.505  0.00  0.00    +0.000 C 
BRANCH  23  24
ATOM     24  N   UNL     1      50.287   6.382  19.852  0.00  0.00    +0.000 NA
ATOM     25  H   UNL     1      50.935   6.197  20.614  0.00  0.00    +0.000 HD
BRANCH  24  26
ATOM     26  CA  UNL     1      48.968   5.800  20.147  0.00  0.00    +0.000 C 
BRANCH  26  27
ATOM     27  C   UNL     1      48.567   4.860  19.006  0.00  0.00    +0.000 A 
ATOM     28  C   UNL     1      47.383   5.013  18.267  0.00  0.00    +0.000 A 
ATOM     29  C   UNL     1      47.097   4.182  17.180  0.00  0.00    +0.000 A 
ATOM     30  C   UNL     1      47.978   3.167  16.822  0.00  0.00    +0.000 A 
ATOM     31  C   UNL     1      49.137   2.967  17.565  0.00  0.00    +0.000 A 
ATOM     32  C   UNL     1      49.430   3.805  18.645  0.00  0.00    +0.000 A 
ENDBRANCH  26  27
BRANCH  26  33
ATOM     33  C   UNL     1      48.884   5.176  21.572  0.00  0.00    +0.000 C 
BRANCH  33  34
ATOM     34  O   UNL     1      47.656   4.483  21.808  0.00  0.00    +0.000 OA
ATOM     35  H   UNL     1      46.934   5.111  21.636  0.00  0.00    +0.000 HD
ENDBRANCH  33  34
ENDBRANCH  26  33
ENDBRANCH  24  26
ENDBRANCH  23  24
ENDBRANCH   4  23
TORSDOF 11
ENDMDL
MODEL 7
REMARK VINA RESULT:    -6.710      3.378      8.562
REMARK INTER + INTRA:         -11.494
REMARK INTER:                  -9.086
REMARK INTRA:                  -2.407
REMARK UNBOUND:                -0.861
REMARK  Name = 
REMARK  11 active torsions:
REMARK  status: ('A' for Active; 'I' for Inactive)
REMARK    1  A    between atoms: C_2  and  C_3
REMARK    2  A    between atoms: C_3  and  C_4
REMARK    3  A    between atoms: C_3  and  C_22
REMARK    4  A    between atoms: C_4  and  C_5
REMARK    5  A    between atoms: C_8  and  C_9
REMARK    6  A    between atoms: C_9  and  N_10
REMARK    7  A    between atoms: N_10  and  CA_11
REMARK    8  A    between atoms: CA_11  and  C_12
REMARK    9  A    between atoms: CA_11  and  C_14
REMARK   10  A    between atoms: C_12  and  O_13
REMARK   11  A    between atoms: C_29  and  O_30
REMARK                            x       y       z     vdW  Elec       q    Type
REMARK                         _______ _______ _______ _____ _____    ______ ____
ROOT
ATOM      1  C   UNL     1      48.873   8.188  15.632  0.00  0.00    +0.000 A 
ATOM      2  C   UNL     1      49.809   7.237  15.208  0.00  0.00    +0.000 A 
ATOM      3  C   UNL     1      50.720   6.688  16.109  0.00  0.00    +0.000 A 
ATOM      4  C   UNL     1      50.736   7.094  17.447  0.00  0.00    +0.000 A 
ATOM      5  C   UNL     1      49.777   8.023  17.879  0.00  0.00    +0.000 A 
ATOM      6  C   UNL     1      48.854   8.565  16.980  0.00  0.00    +0.000 A 
ENDROOT
BRANCH   1   7
ATOM      7  C   UNL     1      47.893   8.778  14.644  0.00  0.00    +0.000 C 
BRANCH   7   8
ATOM      8  C   UNL     1      47.863   8.059  13.283  0.00  0.00    +0.000 C 
BRANCH   8   9
ATOM      9  C   UNL     1      46.460   7.605  12.928  0.00  0.00    +0.000 A 
ATOM     10  C   UNL     1      45.394   8.374  12.466  0.00  0.00    +0.000 A 
ATOM     11  N   UNL     1      44.338   7.540  12.200  0.00  0.00    +0.000 N 
ATOM     12  C   UNL     1      44.684   6.253  12.499  0.00  0.00    +0.000 A 
ATOM     13  N   UNL     1      43.890   5.183  12.340  0.00  0.00    +0.000 NA
ATOM     14  C   UNL     1      44.507   4.048  12.719  0.00  0.00    +0.000 A 
ATOM     15  N   UNL     1      45.747   3.901  13.229  0.00  0.00    +0.000 NA
ATOM     16  C   UNL     1      46.474   5.016  13.358  0.00  0.00    +0.000 A 
ATOM     17  C   UNL     1      45.981   6.258  12.982  0.00  0.00    +0.000 A 
ATOM     18  H   UNL     1      43.441   7.811  11.822  0.00  0.00    +0.000 HD
BRANCH  16  19
ATOM     19  O   UNL     1      47.721   4.838  13.885  0.00  0.00    +0.000 OA
ATOM     20  H   UNL     1      47.764   3.865  13.893  0.00  0.00    +0.000 HD
ENDBRANCH  16  19
ENDBRANCH   8   9
BRANCH   8  22
ATOM     21  N   UNL     1      48.834   9.591  11.368  0.00  0.00    +0.000 NA
ATOM     22  C   UNL     1      48.396   8.916  12.203  0.00  0.00    +0.000 C 
ENDBRANCH   8  22
ENDBRANCH   7   8
ENDBRANCH   1   7
BRANCH   4  23
ATOM     23  C   UNL     1      51.727   6.517  18.433  0.00  0.00    +0.000 C 
BRANCH  23  24
ATOM     24  N   UNL     1      51.068   5.726  19.468  0.00  0.00    +0.000 NA
ATOM     25  H   UNL     1      50.166   6.124  19.719  0.00  0.00    +0.000 HD
BRANCH  24  26
ATOM     26  CA  UNL     1      50.928   4.296  19.153  0.00  0.00    +0.000 C 
BRANCH  26  27
ATOM     27  C   UNL     1      49.578   4.062  18.467  0.00  0.00    +0.000 A 
ATOM     28  C   UNL     1      48.427   4.808  18.766  0.00  0.00    +0.000 A 
ATOM     29  C   UNL     1      47.238   4.617  18.057  0.00  0.00    +0.000 A 
ATOM     30  C   UNL     1      47.168   3.663  17.048  0.00  0.00    +0.000 A 
ATOM     31  C   UNL     1      48.283   2.881  16.760  0.00  0.00    +0.000 A 
ATOM     32  C   UNL     1      49.476   3.079  17.461  0.00  0.00    +0.000 A 
ENDBRANCH  26  27
BRANCH  26  33
ATOM     33  C   UNL     1      52.159   3.717  18.394  0.00  0.00    +0.000 C 
BRANCH  33  34
ATOM     34  O   UNL     1      52.630   2.486  18.946  0.00  0.00    +0.000 OA
ATOM     35  H   UNL     1      53.043   1.985  18.223  0.00  0.00    +0.000 HD
ENDBRANCH  33  34
ENDBRANCH  26  33
ENDBRANCH  24  26
ENDBRANCH  23  24
ENDBRANCH   4  23
TORSDOF 11
ENDMDL
MODEL 8
REMARK VINA RESULT:    -6.563      2.612      4.610
REMARK INTER + INTRA:         -11.261
REMARK INTER:                 -10.082
REMARK INTRA:                  -1.179
REMARK UNBOUND:                -0.861
REMARK  Name = 
REMARK  11 active torsions:
REMARK  status: ('A' for Active; 'I' for Inactive)
REMARK    1  A    between atoms: C_2  and  C_3
REMARK    2  A    between atoms: C_3  and  C_4
REMARK    3  A    between atoms: C_3  and  C_22
REMARK    4  A    between atoms: C_4  and  C_5
REMARK    5  A    between atoms: C_8  and  C_9
REMARK    6  A    between atoms: C_9  and  N_10
REMARK    7  A    between atoms: N_10  and  CA_11
REMARK    8  A    between atoms: CA_11  and  C_12
REMARK    9  A    between atoms: CA_11  and  C_14
REMARK   10  A    between atoms: C_12  and  O_13
REMARK   11  A    between atoms: C_29  and  O_30
REMARK                            x       y       z     vdW  Elec       q    Type
REMARK                         _______ _______ _______ _____ _____    ______ ____
ROOT
ATOM      1  C   UNL     1      48.200   5.021  16.277  0.00  0.00    +0.000 A 
ATOM      2  C   UNL     1      48.469   6.182  15.540  0.00  0.00    +0.000 A 
ATOM      3  C   UNL     1      47.895   6.374  14.285  0.00  0.00    +0.000 A 
ATOM      4  C   UNL     1      47.060   5.402  13.724  0.00  0.00    +0.000 A 
ATOM      5  C   UNL     1      46.764   4.254  14.475  0.00  0.00    +0.000 A 
ATOM      6  C   UNL     1      47.329   4.066  15.740  0.00  0.00    +0.000 A 
ENDROOT
BRANCH   1   7
ATOM      7  C   UNL     1      48.831   4.825  17.636  0.00  0.00    +0.000 C 
BRANCH   7   8
ATOM      8  C   UNL     1      49.485   6.092  18.215  0.00  0.00    +0.000 C 
BRANCH   8   9
ATOM      9  C   UNL     1      48.871   6.471  19.549  0.00  0.00    +0.000 A 
ATOM     10  C   UNL     1      48.984   5.813  20.771  0.00  0.00    +0.000 A 
ATOM     11  N   UNL     1      48.329   6.549  21.726  0.00  0.00    +0.000 N 
ATOM     12  C   UNL     1      47.774   7.656  21.149  0.00  0.00    +0.000 A 
ATOM     13  N   UNL     1      47.078   8.599  21.802  0.00  0.00    +0.000 NA
ATOM     14  C   UNL     1      46.657   9.569  20.968  0.00  0.00    +0.000 A 
ATOM     15  N   UNL     1      46.837   9.661  19.634  0.00  0.00    +0.000 NA
ATOM     16  C   UNL     1      47.539   8.679  19.059  0.00  0.00    +0.000 A 
ATOM     17  C   UNL     1      48.062   7.625  19.795  0.00  0.00    +0.000 A 
ATOM     18  H   UNL     1      48.271   6.336  22.711  0.00  0.00    +0.000 HD
BRANCH  16  19
ATOM     19  O   UNL     1      47.697   8.794  17.707  0.00  0.00    +0.000 OA
ATOM     20  H   UNL     1      48.593   9.174  17.674  0.00  0.00    +0.000 HD
ENDBRANCH  16  19
ENDBRANCH   8   9
BRANCH   8  22
ATOM     21  N   UNL     1      52.089   5.794  18.515  0.00  0.00    +0.000 NA
ATOM     22  C   UNL     1      50.946   5.929  18.370  0.00  0.00    +0.000 C 
ENDBRANCH   8  22
ENDBRANCH   7   8
ENDBRANCH   1   7
BRANCH   4  23
ATOM     23  C   UNL     1      46.441   5.591  12.357  0.00  0.00    +0.000 C 
BRANCH  23  24
ATOM     24  N   UNL     1      45.124   4.969  12.265  0.00  0.00    +0.000 NA
ATOM     25  H   UNL     1      44.550   5.198  13.073  0.00  0.00    +0.000 HD
BRANCH  24  26
ATOM     26  CA  UNL     1      44.395   5.254  11.020  0.00  0.00    +0.000 C 
BRANCH  26  27
ATOM     27  C   UNL     1      44.881   4.299   9.924  0.00  0.00    +0.000 A 
ATOM     28  C   UNL     1      45.579   4.732   8.785  0.00  0.00    +0.000 A 
ATOM     29  C   UNL     1      46.076   3.818   7.852  0.00  0.00    +0.000 A 
ATOM     30  C   UNL     1      45.868   2.454   8.026  0.00  0.00    +0.000 A 
ATOM     31  C   UNL     1      45.142   2.002   9.124  0.00  0.00    +0.000 A 
ATOM     32  C   UNL     1      44.655   2.915  10.064  0.00  0.00    +0.000 A 
ENDBRANCH  26  27
BRANCH  26  33
ATOM     33  C   UNL     1      42.850   5.295  11.216  0.00  0.00    +0.000 C 
BRANCH  33  34
ATOM     34  O   UNL     1      42.349   6.615  11.438  0.00  0.00    +0.000 OA
ATOM     35  H   UNL     1      41.632   6.763  10.799  0.00  0.00    +0.000 HD
ENDBRANCH  33  34
ENDBRANCH  26  33
ENDBRANCH  24  26
ENDBRANCH  23  24
ENDBRANCH   4  23
TORSDOF 11
ENDMDL
MODEL 9
REMARK VINA RESULT:    -6.519      2.159      3.183
REMARK INTER + INTRA:         -11.192
REMARK INTER:                  -9.761
REMARK INTRA:                  -1.430
REMARK UNBOUND:                -0.861
REMARK  Name = 
REMARK  11 active torsions:
REMARK  status: ('A' for Active; 'I' for Inactive)
REMARK    1  A    between atoms: C_2  and  C_3
REMARK    2  A    between atoms: C_3  and  C_4
REMARK    3  A    between atoms: C_3  and  C_22
REMARK    4  A    between atoms: C_4  and  C_5
REMARK    5  A    between atoms: C_8  and  C_9
REMARK    6  A    between atoms: C_9  and  N_10
REMARK    7  A    between atoms: N_10  and  CA_11
REMARK    8  A    between atoms: CA_11  and  C_12
REMARK    9  A    between atoms: CA_11  and  C_14
REMARK   10  A    between atoms: C_12  and  O_13
REMARK   11  A    between atoms: C_29  and  O_30
REMARK                            x       y       z     vdW  Elec       q    Type
REMARK                         _______ _______ _______ _____ _____    ______ ____
ROOT
ATOM      1  C   UNL     1      48.839   7.171  16.084  0.00  0.00    +0.000 A 
ATOM      2  C   UNL     1      48.760   8.462  15.548  0.00  0.00    +0.000 A 
ATOM      3  C   UNL     1      48.260   8.668  14.264  0.00  0.00    +0.000 A 
ATOM      4  C   UNL     1      47.852   7.588  13.474  0.00  0.00    +0.000 A 
ATOM      5  C   UNL     1      47.900   6.297  14.023  0.00  0.00    +0.000 A 
ATOM      6  C   UNL     1      48.389   6.091  15.316  0.00  0.00    +0.000 A 
ENDROOT
BRANCH   1   7
ATOM      7  C   UNL     1      49.386   6.963  17.478  0.00  0.00    +0.000 C 
BRANCH   7   8
ATOM      8  C   UNL     1      49.216   5.529  18.013  0.00  0.00    +0.000 C 
BRANCH   8   9
ATOM      9  C   UNL     1      50.556   4.848  18.207  0.00  0.00    +0.000 A 
ATOM     10  C   UNL     1      51.700   5.351  18.822  0.00  0.00    +0.000 A 
ATOM     11  N   UNL     1      52.654   4.365  18.842  0.00  0.00    +0.000 N 
ATOM     12  C   UNL     1      52.166   3.243  18.235  0.00  0.00    +0.000 A 
ATOM     13  N   UNL     1      52.833   2.088  18.099  0.00  0.00    +0.000 NA
ATOM     14  C   UNL     1      52.094   1.162  17.458  0.00  0.00    +0.000 A 
ATOM     15  N   UNL     1      50.847   1.288  16.959  0.00  0.00    +0.000 NA
ATOM     16  C   UNL     1      50.252   2.472  17.134  0.00  0.00    +0.000 A 
ATOM     17  C   UNL     1      50.880   3.515  17.801  0.00  0.00    +0.000 A 
ATOM     18  H   UNL     1      53.574   4.430  19.255  0.00  0.00    +0.000 HD
BRANCH  16  19
ATOM     19  O   UNL     1      48.995   2.573  16.610  0.00  0.00    +0.000 OA
ATOM     20  H   UNL     1      48.922   3.541  16.530  0.00  0.00    +0.000 HD
ENDBRANCH  16  19
ENDBRANCH   8   9
BRANCH   8  22
ATOM     21  N   UNL     1      47.858   5.514  20.274  0.00  0.00    +0.000 NA
ATOM     22  C   UNL     1      48.460   5.509  19.283  0.00  0.00    +0.000 C 
ENDBRANCH   8  22
ENDBRANCH   7   8
ENDBRANCH   1   7
BRANCH   4  23
ATOM     23  C   UNL     1      47.320   7.795  12.073  0.00  0.00    +0.000 C 
BRANCH  23  24
ATOM     24  N   UNL     1      46.778   6.562  11.510  0.00  0.00    +0.000 NA
ATOM     25  H   UNL     1      46.894   5.780  12.151  0.00  0.00    +0.000 HD
BRANCH  24  26
ATOM     26  CA  UNL     1      45.381   6.654  11.060  0.00  0.00    +0.000 C 
BRANCH  26  27
ATOM     27  C   UNL     1      44.668   5.331  11.360  0.00  0.00    +0.000 A 
ATOM     28  C   UNL     1      44.535   4.300  10.416  0.00  0.00    +0.000 A 
ATOM     29  C   UNL     1      43.951   3.078  10.758  0.00  0.00    +0.000 A 
ATOM     30  C   UNL     1      43.468   2.867  12.045  0.00  0.00    +0.000 A 
ATOM     31  C   UNL     1      43.549   3.888  12.988  0.00  0.00    +0.000 A 
ATOM     32  C   UNL     1      44.144   5.107  12.650  0.00  0.00    +0.000 A 
ENDBRANCH  26  27
BRANCH  26  33
ATOM     33  C   UNL     1      44.654   7.925  11.589  0.00  0.00    +0.000 C 
BRANCH  33  34
ATOM     34  O   UNL     1      43.387   8.147  10.964  0.00  0.00    +0.000 OA
ATOM     35  H   UNL     1      43.449   7.803  10.057  0.00  0.00    +0.000 HD
ENDBRANCH  33  34
ENDBRANCH  26  33
ENDBRANCH  24  26
ENDBRANCH  23  24
ENDBRANCH   4  23
TORSDOF 11
ENDMDL
