MODEL 1
REMARK VINA RESULT:    -7.201      0.000      0.000
REMARK INTER + INTRA:         -10.195
REMARK INTER:                  -9.937
REMARK INTRA:                  -0.258
REMARK UNBOUND:                -0.258
REMARK  Name = 
REMARK  8 active torsions:
REMARK  status: ('A' for Active; 'I' for Inactive)
REMARK    1  A    between atoms: C_1  and  C_2
REMARK    2  A    between atoms: C_2  and  N_3
REMARK    3  A    between atoms: N_3  and  C_4
REMARK    4  A    between atoms: C_4  and  C_5
REMARK    5  A    between atoms: C_5  and  C_6
REMARK    6  A    between atoms: C_10  and  C_11
REMARK    7  A    between atoms: C_11  and  N_12
REMARK    8  A    between atoms: C_17  and  C_18
REMARK                            x       y       z     vdW  Elec       q    Type
REMARK                         _______ _______ _______ _____ _____    ______ ____
ROOT
ATOM      1  N   UNL     1      44.314   3.896  10.155  0.00  0.00    +0.000 N 
ATOM      2  C   UNL     1      45.190   3.430   9.143  0.00  0.00    +0.000 A 
ATOM      3  C   UNL     1      45.450   2.067   8.977  0.00  0.00    +0.000 A 
ATOM      4  C   UNL     1      46.295   1.619   7.954  0.00  0.00    +0.000 A 
ATOM      5  C   UNL     1      46.853   2.535   7.074  0.00  0.00    +0.000 A 
ATOM      6  C   UNL     1      46.548   3.864   7.285  0.00  0.00    +0.000 A 
ATOM      7  N   UNL     1      45.753   4.317   8.291  0.00  0.00    +0.000 NA
ENDROOT
BRANCH   5   8
ATOM      8  C   UNL     1      47.725   2.041   5.982  0.00  0.00    +0.000 C 
ATOM      9  N   UNL     1      48.147   2.918   5.019  0.00  0.00    +0.000 N 
ATOM     10  O   UNL     1      48.066   0.864   5.929  0.00  0.00    +0.000 OA
ATOM     11  H   UNL     1      47.885   3.883   4.942  0.00  0.00    +0.000 HD
ATOM     12  H   UNL     1      48.719   2.526   4.280  0.00  0.00    +0.000 HD
ENDBRANCH   5   8
BRANCH   1  14
ATOM     13  C   UNL     1      43.150   2.357  11.821  0.00  0.00    +0.000 C 
ATOM     14  C   UNL     1      44.396   3.120  11.408  0.00  0.00    +0.000 C 
ENDBRANCH   1  14
BRANCH   1  15
ATOM     15  C   UNL     1      44.163   5.371  10.187  0.00  0.00    +0.000 C 
BRANCH  15  16
ATOM     16  C   UNL     1      44.140   5.912  11.638  0.00  0.00    +0.000 C 
BRANCH  16  17
ATOM     17  C   UNL     1      45.509   6.000  12.281  0.00  0.00    +0.000 A 
ATOM     18  C   UNL     1      46.491   6.832  11.735  0.00  0.00    +0.000 A 
ATOM     19  C   UNL     1      47.753   6.913  12.322  0.00  0.00    +0.000 A 
ATOM     20  C   UNL     1      48.046   6.170  13.467  0.00  0.00    +0.000 A 
ATOM     21  C   UNL     1      47.088   5.314  14.030  0.00  0.00    +0.000 A 
ATOM     22  C   UNL     1      45.818   5.243  13.424  0.00  0.00    +0.000 A 
BRANCH  21  23
ATOM     23  C   UNL     1      47.347   4.557  15.313  0.00  0.00    +0.000 C 
BRANCH  23  24
ATOM     24  N   UNL     1      47.654   3.142  15.120  0.00  0.00    +0.000 NA
ATOM     25  H   UNL     1      46.795   2.604  15.218  0.00  0.00    +0.000 HD
ATOM     26  H   UNL     1      48.274   2.833  15.867  0.00  0.00    +0.000 HD
ENDBRANCH  23  24
ENDBRANCH  21  23
ENDBRANCH  16  17
ENDBRANCH  15  16
ENDBRANCH   1  15
TORSDOF 7
ENDMDL
MODEL 2
REMARK VINA RESULT:    -7.171      1.662      2.033
REMARK INTER + INTRA:         -10.155
REMARK INTER:                  -9.511
REMARK INTRA:                  -0.643
REMARK UNBOUND:                -0.258
REMARK  Name = 
REMARK  8 active torsions:
REMARK  status: ('A' for Active; 'I' for Inactive)
REMARK    1  A    between atoms: C_1  and  C_2
REMARK    2  A    between atoms: C_2  and  N_3
REMARK    3  A    between atoms: N_3  and  C_4
REMARK    4  A    between atoms: C_4  and  C_5
REMARK    5  A    between atoms: C_5  and  C_6
REMARK    6  A    between atoms: C_10  and  C_11
REMARK    7  A    between atoms: C_11  and  N_12
REMARK    8  A    between atoms: C_17  and  C_18
REMARK                            x       y       z     vdW  Elec       q    Type
REMARK                         _______ _______ _______ _____ _____    ______ ____
ROOT
ATOM      1  N   UNL     1      44.511   4.110  10.307  0.00  0.00    +0.000 N 
ATOM      2  C   UNL     1      45.264   3.549   9.246  0.00  0.00    +0.000 A 
ATOM      3  C   UNL     1      45.468   2.169   9.149  0.00  0.00    +0.000 A 
ATOM      4  C   UNL     1      46.190   1.626   8.079  0.00  0.00    +0.000 A 
ATOM      5  C   UNL     1      46.679   2.463   7.086  0.00  0.00    +0.000 A 
ATOM      6  C   UNL     1      46.434   3.813   7.235  0.00  0.00    +0.000 A 
ATOM      7  N   UNL     1      45.760   4.358   8.283  0.00  0.00    +0.000 NA
ENDROOT
BRANCH   5   8
ATOM      8  C   UNL     1      47.420   1.869   5.948  0.00  0.00    +0.000 C 
ATOM      9  N   UNL     1      48.192   2.680   5.160  0.00  0.00    +0.000 N 
ATOM     10  O   UNL     1      47.345   0.669   5.702  0.00  0.00    +0.000 OA
ATOM     11  H   UNL     1      48.281   3.676   5.245  0.00  0.00    +0.000 HD
ATOM     12  H   UNL     1      48.657   2.231   4.380  0.00  0.00    +0.000 HD
ENDBRANCH   5   8
BRANCH   1  14
ATOM     13  C   UNL     1      43.482   2.730  12.188  0.00  0.00    +0.000 C 
ATOM     14  C   UNL     1      44.700   3.415  11.596  0.00  0.00    +0.000 C 
ENDBRANCH   1  14
BRANCH   1  15
ATOM     15  C   UNL     1      44.404   5.588  10.254  0.00  0.00    +0.000 C 
BRANCH  15  16
ATOM     16  C   UNL     1      44.444   6.216  11.668  0.00  0.00    +0.000 C 
BRANCH  16  17
ATOM     17  C   UNL     1      45.513   7.275  11.839  0.00  0.00    +0.000 A 
ATOM     18  C   UNL     1      45.157   8.623  11.955  0.00  0.00    +0.000 A 
ATOM     19  C   UNL     1      46.140   9.600  12.109  0.00  0.00    +0.000 A 
ATOM     20  C   UNL     1      47.488   9.242  12.158  0.00  0.00    +0.000 A 
ATOM     21  C   UNL     1      47.878   7.902  12.029  0.00  0.00    +0.000 A 
ATOM     22  C   UNL     1      46.874   6.926  11.872  0.00  0.00    +0.000 A 
BRANCH  21  23
ATOM     23  C   UNL     1      49.323   7.473  12.157  0.00  0.00    +0.000 C 
BRANCH  23  24
ATOM     24  N   UNL     1      49.655   6.872  13.446  0.00  0.00    +0.000 NA
ATOM     25  H   UNL     1      50.669   6.850  13.545  0.00  0.00    +0.000 HD
ATOM     26  H   UNL     1      49.345   5.902  13.449  0.00  0.00    +0.000 HD
ENDBRANCH  23  24
ENDBRANCH  21  23
ENDBRANCH  16  17
ENDBRANCH  15  16
ENDBRANCH   1  15
TORSDOF 7
ENDMDL
MODEL 3
REMARK VINA RESULT:    -7.152      2.037      2.872
REMARK INTER + INTRA:         -10.127
REMARK INTER:                  -9.833
REMARK INTRA:                  -0.294
REMARK UNBOUND:                -0.258
REMARK  Name = 
REMARK  8 active torsions:
REMARK  status: ('A' for Active; 'I' for Inactive)
REMARK    1  A    between atoms: C_1  and  C_2
REMARK    2  A    between atoms: C_2  and  N_3
REMARK    3  A    between atoms: N_3  and  C_4
REMARK    4  A    between atoms: C_4  and  C_5
REMARK    5  A    between atoms: C_5  and  C_6
REMARK    6  A    between atoms: C_10  and  C_11
REMARK    7  A    between atoms: C_11  and  N_12
REMARK    8  A    between atoms: C_17  and  C_18
REMARK                            x       y       z     vdW  Elec       q    Type
REMARK                         _______ _______ _______ _____ _____    ______ ____
ROOT
ATOM      1  N   UNL     1      43.773   3.983  10.356  0.00  0.00    +0.000 N 
ATOM      2  C   UNL     1      44.725   3.475   9.437  0.00  0.00    +0.000 A 
ATOM      3  C   UNL     1      44.977   2.104   9.334  0.00  0.00    +0.000 A 
ATOM      4  C   UNL     1      45.899   1.615   8.401  0.00  0.00    +0.000 A 
ATOM      5  C   UNL     1      46.544   2.496   7.545  0.00  0.00    +0.000 A 
ATOM      6  C   UNL     1      46.243   3.835   7.690  0.00  0.00    +0.000 A 
ATOM      7  N   UNL     1      45.372   4.328   8.611  0.00  0.00    +0.000 NA
ENDROOT
BRANCH   5   8
ATOM      8  C   UNL     1      47.499   1.958   6.547  0.00  0.00    +0.000 C 
ATOM      9  N   UNL     1      48.661   2.640   6.302  0.00  0.00    +0.000 N 
ATOM     10  O   UNL     1      47.259   0.920   5.939  0.00  0.00    +0.000 OA
ATOM     11  H   UNL     1      48.926   3.519   6.705  0.00  0.00    +0.000 HD
ATOM     12  H   UNL     1      49.267   2.246   5.593  0.00  0.00    +0.000 HD
ENDBRANCH   5   8
BRANCH   1  14
ATOM     13  C   UNL     1      45.050   3.111  12.383  0.00  0.00    +0.000 C 
ATOM     14  C   UNL     1      43.736   3.245  11.634  0.00  0.00    +0.000 C 
ENDBRANCH   1  14
BRANCH   1  15
ATOM     15  C   UNL     1      43.641   5.460  10.331  0.00  0.00    +0.000 C 
BRANCH  15  16
ATOM     16  C   UNL     1      43.885   6.079  11.729  0.00  0.00    +0.000 C 
BRANCH  16  17
ATOM     17  C   UNL     1      45.157   6.894  11.826  0.00  0.00    +0.000 A 
ATOM     18  C   UNL     1      46.396   6.254  11.943  0.00  0.00    +0.000 A 
ATOM     19  C   UNL     1      47.569   7.002  12.036  0.00  0.00    +0.000 A 
ATOM     20  C   UNL     1      47.521   8.396  12.004  0.00  0.00    +0.000 A 
ATOM     21  C   UNL     1      46.294   9.068  11.903  0.00  0.00    +0.000 A 
ATOM     22  C   UNL     1      45.117   8.299  11.812  0.00  0.00    +0.000 A 
BRANCH  21  23
ATOM     23  C   UNL     1      46.213  10.573  11.786  0.00  0.00    +0.000 C 
BRANCH  23  24
ATOM     24  N   UNL     1      44.908  11.130  12.135  0.00  0.00    +0.000 NA
ATOM     25  H   UNL     1      44.930  11.433  13.107  0.00  0.00    +0.000 HD
ATOM     26  H   UNL     1      44.208  10.392  12.079  0.00  0.00    +0.000 HD
ENDBRANCH  23  24
ENDBRANCH  21  23
ENDBRANCH  16  17
ENDBRANCH  15  16
ENDBRANCH   1  15
TORSDOF 7
ENDMDL
MODEL 4
REMARK VINA RESULT:    -6.785      2.990      6.898
REMARK INTER + INTRA:          -9.621
REMARK INTER:                  -9.163
REMARK INTRA:                  -0.459
REMARK UNBOUND:                -0.258
REMARK  Name = 
REMARK  8 active torsions:
REMARK  status: ('A' for Active; 'I' for Inactive)
REMARK    1  A    between atoms: C_1  and  C_2
REMARK    2  A    between atoms: C_2  and  N_3
REMARK    3  A    between atoms: N_3  and  C_4
REMARK    4  A    between atoms: C_4  and  C_5
REMARK    5  A    between atoms: C_5  and  C_6
REMARK    6  A    between atoms: C_10  and  C_11
REMARK    7  A    between atoms: C_11  and  N_12
REMARK    8  A    between atoms: C_17  and  C_18
REMARK                            x       y       z     vdW  Elec       q    Type
REMARK                         _______ _______ _______ _____ _____    ______ ____
ROOT
ATOM      1  N   UNL     1      45.126   4.914  11.436  0.00  0.00    +0.000 N 
ATOM      2  C   UNL     1      46.182   5.532  12.152  0.00  0.00    +0.000 A 
ATOM      3  C   UNL     1      46.431   5.222  13.492  0.00  0.00    +0.000 A 
ATOM      4  C   UNL     1      47.495   5.818  14.178  0.00  0.00    +0.000 A 
ATOM      5  C   UNL     1      48.333   6.701  13.512  0.00  0.00    +0.000 A 
ATOM      6  C   UNL     1      48.040   6.957  12.188  0.00  0.00    +0.000 A 
ATOM      7  N   UNL     1      46.992   6.408  11.516  0.00  0.00    +0.000 NA
ENDROOT
BRANCH   5   8
ATOM      8  C   UNL     1      49.470   7.305  14.247  0.00  0.00    +0.000 C 
ATOM      9  N   UNL     1      49.989   8.494  13.811  0.00  0.00    +0.000 N 
ATOM     10  O   UNL     1      49.950   6.753  15.232  0.00  0.00    +0.000 OA
ATOM     11  H   UNL     1      49.704   8.998  12.991  0.00  0.00    +0.000 HD
ATOM     12  H   UNL     1      50.781   8.852  14.331  0.00  0.00    +0.000 HD
ENDBRANCH   5   8
BRANCH   1  14
ATOM     13  C   UNL     1      42.697   5.509  11.931  0.00  0.00    +0.000 C 
ATOM     14  C   UNL     1      43.922   4.672  12.254  0.00  0.00    +0.000 C 
ENDBRANCH   1  14
BRANCH   1  15
ATOM     15  C   UNL     1      45.006   5.369  10.030  0.00  0.00    +0.000 C 
BRANCH  15  16
ATOM     16  C   UNL     1      44.228   4.349   9.163  0.00  0.00    +0.000 C 
BRANCH  16  17
ATOM     17  C   UNL     1      45.104   3.292   8.525  0.00  0.00    +0.000 A 
ATOM     18  C   UNL     1      45.112   1.987   9.029  0.00  0.00    +0.000 A 
ATOM     19  C   UNL     1      45.920   1.011   8.446  0.00  0.00    +0.000 A 
ATOM     20  C   UNL     1      46.722   1.325   7.348  0.00  0.00    +0.000 A 
ATOM     21  C   UNL     1      46.748   2.627   6.829  0.00  0.00    +0.000 A 
ATOM     22  C   UNL     1      45.928   3.602   7.429  0.00  0.00    +0.000 A 
BRANCH  21  23
ATOM     23  C   UNL     1      47.545   2.980   5.593  0.00  0.00    +0.000 C 
BRANCH  23  24
ATOM     24  N   UNL     1      48.346   1.878   5.064  0.00  0.00    +0.000 NA
ATOM     25  H   UNL     1      48.918   1.500   5.816  0.00  0.00    +0.000 HD
ATOM     26  H   UNL     1      48.992   2.244   4.366  0.00  0.00    +0.000 HD
ENDBRANCH  23  24
ENDBRANCH  21  23
ENDBRANCH  16  17
ENDBRANCH  15  16
ENDBRANCH   1  15
TORSDOF 7
ENDMDL
MODEL 5
REMARK VINA RESULT:    -6.510      3.388      7.752
REMARK INTER + INTRA:          -9.242
REMARK INTER:                  -8.630
REMARK INTRA:                  -0.612
REMARK UNBOUND:                -0.258
REMARK  Name = 
REMARK  8 active torsions:
REMARK  status: ('A' for Active; 'I' for Inactive)
REMARK    1  A    between atoms: C_1  and  C_2
REMARK    2  A    between atoms: C_2  and  N_3
REMARK    3  A    between atoms: N_3  and  C_4
REMARK    4  A    between atoms: C_4  and  C_5
REMARK    5  A    between atoms: C_5  and  C_6
REMARK    6  A    between atoms: C_10  and  C_11
REMARK    7  A    between atoms: C_11  and  N_12
REMARK    8  A    between atoms: C_17  and  C_18
REMARK                            x       y       z     vdW  Elec       q    Type
REMARK                         _______ _______ _______ _____ _____    ______ ____
ROOT
ATOM      1  N   UNL     1      48.369   7.121  13.693  0.00  0.00    +0.000 N 
ATOM      2  C   UNL     1      48.201   6.148  14.709  0.00  0.00    +0.000 A 
ATOM      3  C   UNL     1      48.749   6.323  15.983  0.00  0.00    +0.000 A 
ATOM      4  C   UNL     1      48.549   5.367  16.986  0.00  0.00    +0.000 A 
ATOM      5  C   UNL     1      47.771   4.249  16.723  0.00  0.00    +0.000 A 
ATOM      6  C   UNL     1      47.250   4.140  15.450  0.00  0.00    +0.000 A 
ATOM      7  N   UNL     1      47.459   5.046  14.457  0.00  0.00    +0.000 NA
ENDROOT
BRANCH   5   8
ATOM      8  C   UNL     1      47.550   3.258  17.803  0.00  0.00    +0.000 C 
ATOM      9  N   UNL     1      48.441   3.195  18.841  0.00  0.00    +0.000 N 
ATOM     10  O   UNL     1      46.589   2.497  17.776  0.00  0.00    +0.000 OA
ATOM     11  H   UNL     1      49.283   3.734  18.931  0.00  0.00    +0.000 HD
ATOM     12  H   UNL     1      48.261   2.484  19.540  0.00  0.00    +0.000 HD
ENDBRANCH   5   8
BRANCH   1  14
ATOM     13  C   UNL     1      49.719   9.272  13.463  0.00  0.00    +0.000 C 
ATOM     14  C   UNL     1      49.693   7.775  13.718  0.00  0.00    +0.000 C 
ENDBRANCH   1  14
BRANCH   1  15
ATOM     15  C   UNL     1      47.726   6.765  12.406  0.00  0.00    +0.000 C 
BRANCH  15  16
ATOM     16  C   UNL     1      46.290   7.334  12.307  0.00  0.00    +0.000 C 
BRANCH  16  17
ATOM     17  C   UNL     1      45.249   6.307  11.912  0.00  0.00    +0.000 A 
ATOM     18  C   UNL     1      44.208   5.987  12.789  0.00  0.00    +0.000 A 
ATOM     19  C   UNL     1      43.250   5.039  12.430  0.00  0.00    +0.000 A 
ATOM     20  C   UNL     1      43.315   4.408  11.187  0.00  0.00    +0.000 A 
ATOM     21  C   UNL     1      44.355   4.696  10.291  0.00  0.00    +0.000 A 
ATOM     22  C   UNL     1      45.315   5.654  10.669  0.00  0.00    +0.000 A 
BRANCH  21  23
ATOM     23  C   UNL     1      44.409   4.089   8.907  0.00  0.00    +0.000 C 
BRANCH  23  24
ATOM     24  N   UNL     1      45.503   4.591   8.078  0.00  0.00    +0.000 NA
ATOM     25  H   UNL     1      46.090   5.200   8.644  0.00  0.00    +0.000 HD
ATOM     26  H   UNL     1      45.116   5.172   7.336  0.00  0.00    +0.000 HD
ENDBRANCH  23  24
ENDBRANCH  21  23
ENDBRANCH  16  17
ENDBRANCH  15  16
ENDBRANCH   1  15
TORSDOF 7
ENDMDL
MODEL 6
REMARK VINA RESULT:    -6.245      4.045      6.039
REMARK INTER + INTRA:          -8.876
REMARK INTER:                  -8.171
REMARK INTRA:                  -0.706
REMARK UNBOUND:                -0.258
REMARK  Name = 
REMARK  8 active torsions:
REMARK  status: ('A' for Active; 'I' for Inactive)
REMARK    1  A    between atoms: C_1  and  C_2
REMARK    2  A    between atoms: C_2  and  N_3
REMARK    3  A    between atoms: N_3  and  C_4
REMARK    4  A    between atoms: C_4  and  C_5
REMARK    5  A    between atoms: C_5  and  C_6
REMARK    6  A    between atoms: C_10  and  C_11
REMARK    7  A    between atoms: C_11  and  N_12
REMARK    8  A    between atoms: C_17  and  C_18
REMARK                            x       y       z     vdW  Elec       q    Type
REMARK                         _______ _______ _______ _____ _____    ______ ____
ROOT
ATOM      1  N   UNL     1      47.712   7.449  13.076  0.00  0.00    +0.000 N 
ATOM      2  C   UNL     1      46.704   6.486  12.816  0.00  0.00    +0.000 A 
ATOM      3  C   UNL     1      45.532   6.825  12.135  0.00  0.00    +0.000 A 
ATOM      4  C   UNL     1      44.559   5.857  11.860  0.00  0.00    +0.000 A 
ATOM      5  C   UNL     1      44.775   4.540  12.237  0.00  0.00    +0.000 A 
ATOM      6  C   UNL     1      45.956   4.268  12.897  0.00  0.00    +0.000 A 
ATOM      7  N   UNL     1      46.898   5.203  13.197  0.00  0.00    +0.000 NA
ENDROOT
BRANCH   5   8
ATOM      8  C   UNL     1      43.745   3.523  11.916  0.00  0.00    +0.000 C 
ATOM      9  N   UNL     1      43.783   2.312  12.554  0.00  0.00    +0.000 N 
ATOM     10  O   UNL     1      42.869   3.751  11.088  0.00  0.00    +0.000 OA
ATOM     11  H   UNL     1      44.483   2.009  13.205  0.00  0.00    +0.000 HD
ATOM     12  H   UNL     1      43.074   1.642  12.281  0.00  0.00    +0.000 HD
ENDBRANCH   5   8
BRANCH   1  14
ATOM     13  C   UNL     1      47.641   9.929  12.490  0.00  0.00    +0.000 C 
ATOM     14  C   UNL     1      47.179   8.791  13.382  0.00  0.00    +0.000 C 
ENDBRANCH   1  14
BRANCH   1  15
ATOM     15  C   UNL     1      48.880   6.913  13.815  0.00  0.00    +0.000 C 
BRANCH  15  16
ATOM     16  C   UNL     1      48.815   7.264  15.321  0.00  0.00    +0.000 C 
BRANCH  16  17
ATOM     17  C   UNL     1      49.346   6.175  16.229  0.00  0.00    +0.000 A 
ATOM     18  C   UNL     1      50.695   6.164  16.601  0.00  0.00    +0.000 A 
ATOM     19  C   UNL     1      51.188   5.161  17.434  0.00  0.00    +0.000 A 
ATOM     20  C   UNL     1      50.339   4.161  17.912  0.00  0.00    +0.000 A 
ATOM     21  C   UNL     1      48.986   4.134  17.544  0.00  0.00    +0.000 A 
ATOM     22  C   UNL     1      48.503   5.154  16.701  0.00  0.00    +0.000 A 
BRANCH  21  23
ATOM     23  C   UNL     1      48.024   3.112  18.106  0.00  0.00    +0.000 C 
BRANCH  23  24
ATOM     24  N   UNL     1      46.702   3.131  17.485  0.00  0.00    +0.000 NA
ATOM     25  H   UNL     1      46.670   3.890  16.807  0.00  0.00    +0.000 HD
ATOM     26  H   UNL     1      46.005   3.349  18.196  0.00  0.00    +0.000 HD
ENDBRANCH  23  24
ENDBRANCH  21  23
ENDBRANCH  16  17
ENDBRANCH  15  16
ENDBRANCH   1  15
TORSDOF 7
ENDMDL
MODEL 7
REMARK VINA RESULT:    -6.126      2.096      2.490
REMARK INTER + INTRA:          -8.712
REMARK INTER:                  -8.171
REMARK INTRA:                  -0.541
REMARK UNBOUND:                -0.258
REMARK  Name = 
REMARK  8 active torsions:
REMARK  status: ('A' for Active; 'I' for Inactive)
REMARK    1  A    between atoms: C_1  and  C_2
REMARK    2  A    between atoms: C_2  and  N_3
REMARK    3  A    between atoms: N_3  and  C_4
REMARK    4  A    between atoms: C_4  and  C_5
REMARK    5  A    between atoms: C_5  and  C_6
REMARK    6  A    between atoms: C_10  and  C_11
REMARK    7  A    between atoms: C_11  and  N_12
REMARK    8  A    between atoms: C_17  and  C_18
REMARK                            x       y       z     vdW  Elec       q    Type
REMARK                         _______ _______ _______ _____ _____    ______ ____
ROOT
ATOM      1  N   UNL     1      44.601   5.141  10.455  0.00  0.00    +0.000 N 
ATOM      2  C   UNL     1      45.265   4.481   9.391  0.00  0.00    +0.000 A 
ATOM      3  C   UNL     1      44.893   3.195   8.988  0.00  0.00    +0.000 A 
ATOM      4  C   UNL     1      45.538   2.566   7.917  0.00  0.00    +0.000 A 
ATOM      5  C   UNL     1      46.536   3.240   7.226  0.00  0.00    +0.000 A 
ATOM      6  C   UNL     1      46.849   4.509   7.666  0.00  0.00    +0.000 A 
ATOM      7  N   UNL     1      46.251   5.122   8.723  0.00  0.00    +0.000 NA
ENDROOT
BRANCH   5   8
ATOM      8  C   UNL     1      47.192   2.568   6.078  0.00  0.00    +0.000 C 
ATOM      9  N   UNL     1      48.406   1.963   6.266  0.00  0.00    +0.000 N 
ATOM     10  O   UNL     1      46.667   2.554   4.970  0.00  0.00    +0.000 OA
ATOM     11  H   UNL     1      48.941   1.962   7.115  0.00  0.00    +0.000 HD
ATOM     12  H   UNL     1      48.825   1.541   5.446  0.00  0.00    +0.000 HD
ENDBRANCH   5   8
BRANCH   1  14
ATOM     13  C   UNL     1      42.851   4.507  12.197  0.00  0.00    +0.000 C 
ATOM     14  C   UNL     1      44.197   4.237  11.550  0.00  0.00    +0.000 C 
ENDBRANCH   1  14
BRANCH   1  15
ATOM     15  C   UNL     1      45.133   6.494  10.749  0.00  0.00    +0.000 C 
BRANCH  15  16
ATOM     16  C   UNL     1      45.573   6.627  12.227  0.00  0.00    +0.000 C 
BRANCH  16  17
ATOM     17  C   UNL     1      46.913   7.307  12.410  0.00  0.00    +0.000 A 
ATOM     18  C   UNL     1      47.914   7.162  11.444  0.00  0.00    +0.000 A 
ATOM     19  C   UNL     1      49.150   7.785  11.610  0.00  0.00    +0.000 A 
ATOM     20  C   UNL     1      49.399   8.567  12.739  0.00  0.00    +0.000 A 
ATOM     21  C   UNL     1      48.422   8.719  13.734  0.00  0.00    +0.000 A 
ATOM     22  C   UNL     1      47.179   8.083  13.552  0.00  0.00    +0.000 A 
BRANCH  21  23
ATOM     23  C   UNL     1      48.631   9.622  14.929  0.00  0.00    +0.000 C 
BRANCH  23  24
ATOM     24  N   UNL     1      47.713   9.368  16.037  0.00  0.00    +0.000 NA
ATOM     25  H   UNL     1      46.826   9.829  15.841  0.00  0.00    +0.000 HD
ATOM     26  H   UNL     1      48.084   9.804  16.880  0.00  0.00    +0.000 HD
ENDBRANCH  23  24
ENDBRANCH  21  23
ENDBRANCH  16  17
ENDBRANCH  15  16
ENDBRANCH   1  15
TORSDOF 7
ENDMDL
MODEL 8
REMARK VINA RESULT:    -6.078      3.575      6.209
REMARK INTER + INTRA:          -8.646
REMARK INTER:                  -7.825
REMARK INTRA:                  -0.821
REMARK UNBOUND:                -0.258
REMARK  Name = 
REMARK  8 active torsions:
REMARK  status: ('A' for Active; 'I' for Inactive)
REMARK    1  A    between atoms: C_1  and  C_2
REMARK    2  A    between atoms: C_2  and  N_3
REMARK    3  A    between atoms: N_3  and  C_4
REMARK    4  A    between atoms: C_4  and  C_5
REMARK    5  A    between atoms: C_5  and  C_6
REMARK    6  A    between atoms: C_10  and  C_11
REMARK    7  A    between atoms: C_11  and  N_12
REMARK    8  A    between atoms: C_17  and  C_18
REMARK                            x       y       z     vdW  Elec       q    Type
REMARK                         _______ _______ _______ _____ _____    ______ ____
ROOT
ATOM      1  N   UNL     1      47.626   7.360  12.967  0.00  0.00    +0.000 N 
ATOM      2  C   UNL     1      46.785   6.290  12.570  0.00  0.00    +0.000 A 
ATOM      3  C   UNL     1      46.562   5.192  13.405  0.00  0.00    +0.000 A 
ATOM      4  C   UNL     1      45.706   4.156  13.012  0.00  0.00    +0.000 A 
ATOM      5  C   UNL     1      45.045   4.237  11.795  0.00  0.00    +0.000 A 
ATOM      6  C   UNL     1      45.300   5.352  11.022  0.00  0.00    +0.000 A 
ATOM      7  N   UNL     1      46.151   6.351  11.377  0.00  0.00    +0.000 NA
ENDROOT
BRANCH   5   8
ATOM      8  C   UNL     1      44.123   3.144  11.405  0.00  0.00    +0.000 C 
ATOM      9  N   UNL     1      43.591   2.342  12.379  0.00  0.00    +0.000 N 
ATOM     10  O   UNL     1      43.837   2.947  10.228  0.00  0.00    +0.000 OA
ATOM     11  H   UNL     1      43.799   2.386  13.360  0.00  0.00    +0.000 HD
ATOM     12  H   UNL     1      42.988   1.593  12.060  0.00  0.00    +0.000 HD
ENDBRANCH   5   8
BRANCH   1  14
ATOM     13  C   UNL     1      48.988   7.582  15.111  0.00  0.00    +0.000 C 
ATOM     14  C   UNL     1      48.798   6.927  13.755  0.00  0.00    +0.000 C 
ENDBRANCH   1  14
BRANCH   1  15
ATOM     15  C   UNL     1      47.752   8.434  11.953  0.00  0.00    +0.000 C 
BRANCH  15  16
ATOM     16  C   UNL     1      47.370   9.817  12.535  0.00  0.00    +0.000 C 
BRANCH  16  17
ATOM     17  C   UNL     1      46.231  10.496  11.804  0.00  0.00    +0.000 A 
ATOM     18  C   UNL     1      46.376  11.807  11.336  0.00  0.00    +0.000 A 
ATOM     19  C   UNL     1      45.328  12.436  10.665  0.00  0.00    +0.000 A 
ATOM     20  C   UNL     1      44.126  11.762  10.446  0.00  0.00    +0.000 A 
ATOM     21  C   UNL     1      43.943  10.453  10.916  0.00  0.00    +0.000 A 
ATOM     22  C   UNL     1      45.010   9.831  11.593  0.00  0.00    +0.000 A 
BRANCH  21  23
ATOM     23  C   UNL     1      42.684   9.668  10.626  0.00  0.00    +0.000 C 
BRANCH  23  24
ATOM     24  N   UNL     1      42.781   8.245  10.945  0.00  0.00    +0.000 NA
ATOM     25  H   UNL     1      42.674   8.127  11.951  0.00  0.00    +0.000 HD
ATOM     26  H   UNL     1      43.717   7.917  10.714  0.00  0.00    +0.000 HD
ENDBRANCH  23  24
ENDBRANCH  21  23
ENDBRANCH  16  17
ENDBRANCH  15  16
ENDBRANCH   1  15
TORSDOF 7
ENDMDL
MODEL 9
REMARK VINA RESULT:    -5.770      3.641      6.747
REMARK INTER + INTRA:          -8.221
REMARK INTER:                  -7.532
REMARK INTRA:                  -0.689
REMARK UNBOUND:                -0.258
REMARK  Name = 
REMARK  8 active torsions:
REMARK  status: ('A' for Active; 'I' for Inactive)
REMARK    1  A    between atoms: C_1  and  C_2
REMARK    2  A    between atoms: C_2  and  N_3
REMARK    3  A    between atoms: N_3  and  C_4
REMARK    4  A    between atoms: C_4  and  C_5
REMARK    5  A    between atoms: C_5  and  C_6
REMARK    6  A    between atoms: C_10  and  C_11
REMARK    7  A    between atoms: C_11  and  N_12
REMARK    8  A    between atoms: C_17  and  C_18
REMARK                            x       y       z     vdW  Elec       q    Type
REMARK                         _______ _______ _______ _____ _____    ______ ____
ROOT
ATOM      1  N   UNL     1      48.108   5.562  14.989  0.00  0.00    +0.000 N 
ATOM      2  C   UNL     1      47.120   5.440  13.980  0.00  0.00    +0.000 A 
ATOM      3  C   UNL     1      47.146   6.242  12.836  0.00  0.00    +0.000 A 
ATOM      4  C   UNL     1      46.179   6.091  11.834  0.00  0.00    +0.000 A 
ATOM      5  C   UNL     1      45.205   5.112  11.963  0.00  0.00    +0.000 A 
ATOM      6  C   UNL     1      45.240   4.347  13.111  0.00  0.00    +0.000 A 
ATOM      7  N   UNL     1      46.155   4.501  14.105  0.00  0.00    +0.000 NA
ENDROOT
BRANCH   5   8
ATOM      8  C   UNL     1      44.204   4.949  10.881  0.00  0.00    +0.000 C 
ATOM      9  N   UNL     1      43.235   5.903  10.723  0.00  0.00    +0.000 N 
ATOM     10  O   UNL     1      44.231   3.975  10.136  0.00  0.00    +0.000 OA
ATOM     11  H   UNL     1      43.094   6.706  11.307  0.00  0.00    +0.000 HD
ATOM     12  H   UNL     1      42.559   5.733   9.987  0.00  0.00    +0.000 HD
ENDBRANCH   5   8
BRANCH   1  14
ATOM     13  C   UNL     1      50.001   7.266  14.868  0.00  0.00    +0.000 C 
ATOM     14  C   UNL     1      48.556   6.951  15.211  0.00  0.00    +0.000 C 
ENDBRANCH   1  14
BRANCH   1  15
ATOM     15  C   UNL     1      47.918   4.637  16.132  0.00  0.00    +0.000 C 
BRANCH  15  16
ATOM     16  C   UNL     1      48.446   5.246  17.454  0.00  0.00    +0.000 C 
BRANCH  16  17
ATOM     17  C   UNL     1      49.824   4.758  17.847  0.00  0.00    +0.000 A 
ATOM     18  C   UNL     1      50.648   5.550  18.654  0.00  0.00    +0.000 A 
ATOM     19  C   UNL     1      51.919   5.105  19.015  0.00  0.00    +0.000 A 
ATOM     20  C   UNL     1      52.379   3.860  18.582  0.00  0.00    +0.000 A 
ATOM     21  C   UNL     1      51.584   3.049  17.760  0.00  0.00    +0.000 A 
ATOM     22  C   UNL     1      50.303   3.513  17.402  0.00  0.00    +0.000 A 
BRANCH  21  23
ATOM     23  C   UNL     1      52.021   1.664  17.339  0.00  0.00    +0.000 C 
BRANCH  23  24
ATOM     24  N   UNL     1      51.299   0.582  18.006  0.00  0.00    +0.000 NA
ATOM     25  H   UNL     1      51.480   0.636  19.007  0.00  0.00    +0.000 HD
ATOM     26  H   UNL     1      51.677  -0.310  17.692  0.00  0.00    +0.000 HD
ENDBRANCH  23  24
ENDBRANCH  21  23
ENDBRANCH  16  17
ENDBRANCH  15  16
ENDBRANCH   1  15
TORSDOF 7
ENDMDL
