MODEL 1
REMARK VINA RESULT:    -7.745      0.000      0.000
REMARK INTER + INTRA:          -9.931
REMARK INTER:                  -9.104
REMARK INTRA:                  -0.827
REMARK UNBOUND:                -0.827
REMARK  Name = 
REMARK  3 active torsions:
REMARK  status: ('A' for Active; 'I' for Inactive)
REMARK    1  A    between atoms: N_6  and  C_7
REMARK    2  A    between atoms: C_7  and  C_8
REMARK    3  A    between atoms: C_12  and  C_13
REMARK                            x       y       z     vdW  Elec       q    Type
REMARK                         _______ _______ _______ _____ _____    ______ ____
ROOT
ATOM      1  C   UNL     1      45.117   5.333  12.243  0.00  0.00    +0.000 A 
ATOM      2  C   UNL     1      45.550   4.503  13.283  0.00  0.00    +0.000 A 
ATOM      3  C   UNL     1      46.805   4.683  13.863  0.00  0.00    +0.000 A 
ATOM      4  C   UNL     1      47.655   5.689  13.403  0.00  0.00    +0.000 A 
ATOM      5  C   UNL     1      47.242   6.592  12.415  0.00  0.00    +0.000 A 
ATOM      6  C   UNL     1      45.950   6.419  11.889  0.00  0.00    +0.000 A 
ENDROOT
BRANCH   5   7
ATOM      7  C   UNL     1      48.152   7.638  11.774  0.00  0.00    +0.000 C 
ATOM      8  C   UNL     1      49.661   7.476  12.031  0.00  0.00    +0.000 C 
ATOM      9  C   UNL     1      50.074   7.980  13.415  0.00  0.00    +0.000 C 
ATOM     10  N   UNL     1      49.667   9.364  13.642  0.00  0.00    +0.000 NA
ATOM     11  C   UNL     1      48.219   9.523  13.480  0.00  0.00    +0.000 C 
ATOM     12  C   UNL     1      47.754   9.093  12.091  0.00  0.00    +0.000 C 
ATOM     13  H   UNL     1      50.147   9.969  12.979  0.00  0.00    +0.000 HD
ENDBRANCH   5   7
BRANCH   1  14
ATOM     14  C   UNL     1      43.865   4.991  11.423  0.00  0.00    +0.000 C 
ATOM     15  C   UNL     1      42.524   5.186  12.141  0.00  0.00    +0.000 C 
ATOM     16  C   UNL     1      42.951   6.169  11.111  0.00  0.00    +0.000 C 
BRANCH  14  22
ATOM     17 CL   UNL     1      47.349   2.084   6.111  0.00  0.00    +0.000 Cl
ATOM     18  C   UNL     1      46.445   2.642   7.458  0.00  0.00    +0.000 A 
ATOM     19  C   UNL     1      46.253   3.992   7.669  0.00  0.00    +0.000 A 
ATOM     20  C   UNL     1      45.479   4.407   8.758  0.00  0.00    +0.000 A 
ATOM     21  C   UNL     1      44.896   3.471   9.602  0.00  0.00    +0.000 A 
ATOM     22  N   UNL     1      43.997   3.769  10.624  0.00  0.00    +0.000 N 
ATOM     23  N   UNL     1      45.102   2.148   9.407  0.00  0.00    +0.000 NA
ATOM     24  C   UNL     1      45.867   1.762   8.353  0.00  0.00    +0.000 A 
ATOM     25  H   UNL     1      43.784   2.890  11.094  0.00  0.00    +0.000 HD
ENDBRANCH  14  22
ENDBRANCH   1  14
TORSDOF 3
ENDMDL
MODEL 2
REMARK VINA RESULT:    -6.735      2.285      3.482
REMARK INTER + INTRA:          -8.744
REMARK INTER:                  -8.107
REMARK INTRA:                  -0.636
REMARK UNBOUND:                -0.827
REMARK  Name = 
REMARK  3 active torsions:
REMARK  status: ('A' for Active; 'I' for Inactive)
REMARK    1  A    between atoms: N_6  and  C_7
REMARK    2  A    between atoms: C_7  and  C_8
REMARK    3  A    between atoms: C_12  and  C_13
REMARK                            x       y       z     vdW  Elec       q    Type
REMARK                         _______ _______ _______ _____ _____    ______ ____
ROOT
ATOM      1  C   UNL     1      45.883   5.209  12.754  0.00  0.00    +0.000 A 
ATOM      2  C   UNL     1      46.842   6.073  12.215  0.00  0.00    +0.000 A 
ATOM      3  C   UNL     1      47.948   6.468  12.964  0.00  0.00    +0.000 A 
ATOM      4  C   UNL     1      48.108   6.015  14.275  0.00  0.00    +0.000 A 
ATOM      5  C   UNL     1      47.216   5.093  14.838  0.00  0.00    +0.000 A 
ATOM      6  C   UNL     1      46.141   4.671  14.035  0.00  0.00    +0.000 A 
ENDROOT
BRANCH   5   7
ATOM      7  C   UNL     1      47.251   4.646  16.297  0.00  0.00    +0.000 C 
ATOM      8  C   UNL     1      48.273   5.357  17.202  0.00  0.00    +0.000 C 
ATOM      9  C   UNL     1      49.693   4.817  17.014  0.00  0.00    +0.000 C 
ATOM     10  N   UNL     1      49.764   3.372  17.207  0.00  0.00    +0.000 NA
ATOM     11  C   UNL     1      48.854   2.670  16.297  0.00  0.00    +0.000 C 
ATOM     12  C   UNL     1      47.408   3.124  16.482  0.00  0.00    +0.000 C 
ATOM     13  H   UNL     1      49.514   3.149  18.168  0.00  0.00    +0.000 HD
ENDBRANCH   5   7
BRANCH   1  14
ATOM     14  C   UNL     1      44.540   4.974  12.050  0.00  0.00    +0.000 C 
ATOM     15  C   UNL     1      43.288   5.188  12.911  0.00  0.00    +0.000 C 
ATOM     16  C   UNL     1      43.661   6.208  11.895  0.00  0.00    +0.000 C 
BRANCH  14  22
ATOM     17 CL   UNL     1      46.745   2.494   5.903  0.00  0.00    +0.000 Cl
ATOM     18  C   UNL     1      46.174   2.942   7.456  0.00  0.00    +0.000 A 
ATOM     19  C   UNL     1      45.978   4.269   7.780  0.00  0.00    +0.000 A 
ATOM     20  C   UNL     1      45.476   4.594   9.045  0.00  0.00    +0.000 A 
ATOM     21  C   UNL     1      45.162   3.591   9.954  0.00  0.00    +0.000 A 
ATOM     22  N   UNL     1      44.528   3.795  11.178  0.00  0.00    +0.000 N 
ATOM     23  N   UNL     1      45.374   2.292   9.643  0.00  0.00    +0.000 NA
ATOM     24  C   UNL     1      45.875   1.995   8.416  0.00  0.00    +0.000 A 
ATOM     25  H   UNL     1      44.477   2.886  11.637  0.00  0.00    +0.000 HD
ENDBRANCH  14  22
ENDBRANCH   1  14
TORSDOF 3
ENDMDL
MODEL 3
REMARK VINA RESULT:    -6.468      3.759      7.512
REMARK INTER + INTRA:          -8.430
REMARK INTER:                  -7.569
REMARK INTRA:                  -0.861
REMARK UNBOUND:                -0.827
REMARK  Name = 
REMARK  3 active torsions:
REMARK  status: ('A' for Active; 'I' for Inactive)
REMARK    1  A    between atoms: N_6  and  C_7
REMARK    2  A    between atoms: C_7  and  C_8
REMARK    3  A    between atoms: C_12  and  C_13
REMARK                            x       y       z     vdW  Elec       q    Type
REMARK                         _______ _______ _______ _____ _____    ______ ____
ROOT
ATOM      1  C   UNL     1      47.271   8.011  12.393  0.00  0.00    +0.000 A 
ATOM      2  C   UNL     1      46.669   9.271  12.305  0.00  0.00    +0.000 A 
ATOM      3  C   UNL     1      45.359   9.406  11.849  0.00  0.00    +0.000 A 
ATOM      4  C   UNL     1      44.631   8.281  11.460  0.00  0.00    +0.000 A 
ATOM      5  C   UNL     1      45.160   6.991  11.596  0.00  0.00    +0.000 A 
ATOM      6  C   UNL     1      46.464   6.885  12.112  0.00  0.00    +0.000 A 
ENDROOT
BRANCH   5   7
ATOM      7  C   UNL     1      44.478   5.725  11.081  0.00  0.00    +0.000 C 
ATOM      8  C   UNL     1      43.012   5.522  11.504  0.00  0.00    +0.000 C 
ATOM      9  C   UNL     1      42.885   4.996  12.936  0.00  0.00    +0.000 C 
ATOM     10  N   UNL     1      43.647   3.767  13.140  0.00  0.00    +0.000 NA
ATOM     11  C   UNL     1      45.063   3.961  12.819  0.00  0.00    +0.000 C 
ATOM     12  C   UNL     1      45.258   4.429  11.378  0.00  0.00    +0.000 C 
ATOM     13  H   UNL     1      43.267   3.033  12.547  0.00  0.00    +0.000 HD
ENDBRANCH   5   7
BRANCH   1  14
ATOM     14  C   UNL     1      48.779   7.866  12.638  0.00  0.00    +0.000 C 
ATOM     15  C   UNL     1      49.657   7.808  11.380  0.00  0.00    +0.000 C 
ATOM     16  C   UNL     1      49.627   9.052  12.195  0.00  0.00    +0.000 C 
BRANCH  14  22
ATOM     17 CL   UNL     1      48.622   6.871  19.550  0.00  0.00    +0.000 Cl
ATOM     18  C   UNL     1      48.685   6.949  17.839  0.00  0.00    +0.000 A 
ATOM     19  C   UNL     1      48.697   8.165  17.187  0.00  0.00    +0.000 A 
ATOM     20  C   UNL     1      48.787   8.189  15.791  0.00  0.00    +0.000 A 
ATOM     21  C   UNL     1      48.882   7.003  15.074  0.00  0.00    +0.000 A 
ATOM     22  N   UNL     1      49.117   6.917  13.703  0.00  0.00    +0.000 N 
ATOM     23  N   UNL     1      48.849   5.811  15.711  0.00  0.00    +0.000 NA
ATOM     24  C   UNL     1      48.747   5.805  17.066  0.00  0.00    +0.000 A 
ATOM     25  H   UNL     1      49.086   5.927  13.461  0.00  0.00    +0.000 HD
ENDBRANCH  14  22
ENDBRANCH   1  14
TORSDOF 3
ENDMDL
MODEL 4
REMARK VINA RESULT:    -6.222      1.361      2.212
REMARK INTER + INTRA:          -8.140
REMARK INTER:                  -7.696
REMARK INTRA:                  -0.444
REMARK UNBOUND:                -0.827
REMARK  Name = 
REMARK  3 active torsions:
REMARK  status: ('A' for Active; 'I' for Inactive)
REMARK    1  A    between atoms: N_6  and  C_7
REMARK    2  A    between atoms: C_7  and  C_8
REMARK    3  A    between atoms: C_12  and  C_13
REMARK                            x       y       z     vdW  Elec       q    Type
REMARK                         _______ _______ _______ _____ _____    ______ ____
ROOT
ATOM      1  C   UNL     1      44.724   5.986  11.597  0.00  0.00    +0.000 A 
ATOM      2  C   UNL     1      44.538   7.342  11.302  0.00  0.00    +0.000 A 
ATOM      3  C   UNL     1      45.545   8.271  11.556  0.00  0.00    +0.000 A 
ATOM      4  C   UNL     1      46.752   7.862  12.123  0.00  0.00    +0.000 A 
ATOM      5  C   UNL     1      47.017   6.509  12.371  0.00  0.00    +0.000 A 
ATOM      6  C   UNL     1      46.002   5.590  12.051  0.00  0.00    +0.000 A 
ENDROOT
BRANCH   5   7
ATOM      7  C   UNL     1      48.258   5.996  13.098  0.00  0.00    +0.000 C 
ATOM      8  C   UNL     1      48.031   4.856  14.108  0.00  0.00    +0.000 C 
ATOM      9  C   UNL     1      47.471   5.360  15.440  0.00  0.00    +0.000 C 
ATOM     10  N   UNL     1      48.307   6.402  16.030  0.00  0.00    +0.000 NA
ATOM     11  C   UNL     1      48.469   7.533  15.113  0.00  0.00    +0.000 C 
ATOM     12  C   UNL     1      49.084   7.101  13.784  0.00  0.00    +0.000 C 
ATOM     13  H   UNL     1      49.222   6.015  16.250  0.00  0.00    +0.000 HD
ENDBRANCH   5   7
BRANCH   1  14
ATOM     14  C   UNL     1      43.548   4.999  11.571  0.00  0.00    +0.000 C 
ATOM     15  C   UNL     1      42.789   4.831  12.893  0.00  0.00    +0.000 C 
ATOM     16  C   UNL     1      42.174   5.619  11.791  0.00  0.00    +0.000 C 
BRANCH  14  22
ATOM     17 CL   UNL     1      47.123   2.364   6.178  0.00  0.00    +0.000 Cl
ATOM     18  C   UNL     1      46.225   2.852   7.555  0.00  0.00    +0.000 A 
ATOM     19  C   UNL     1      45.830   4.165   7.712  0.00  0.00    +0.000 A 
ATOM     20  C   UNL     1      45.068   4.518   8.831  0.00  0.00    +0.000 A 
ATOM     21  C   UNL     1      44.698   3.554   9.760  0.00  0.00    +0.000 A 
ATOM     22  N   UNL     1      43.827   3.767  10.827  0.00  0.00    +0.000 N 
ATOM     23  N   UNL     1      45.104   2.271   9.617  0.00  0.00    +0.000 NA
ATOM     24  C   UNL     1      45.855   1.949   8.533  0.00  0.00    +0.000 A 
ATOM     25  H   UNL     1      43.790   2.895  11.354  0.00  0.00    +0.000 HD
ENDBRANCH  14  22
ENDBRANCH   1  14
TORSDOF 3
ENDMDL
MODEL 5
REMARK VINA RESULT:    -6.152      4.936      7.789
REMARK INTER + INTRA:          -8.059
REMARK INTER:                  -7.431
REMARK INTRA:                  -0.627
REMARK UNBOUND:                -0.827
REMARK  Name = 
REMARK  3 active torsions:
REMARK  status: ('A' for Active; 'I' for Inactive)
REMARK    1  A    between atoms: N_6  and  C_7
REMARK    2  A    between atoms: C_7  and  C_8
REMARK    3  A    between atoms: C_12  and  C_13
REMARK                            x       y       z     vdW  Elec       q    Type
REMARK                         _______ _______ _______ _____ _____    ______ ____
ROOT
ATOM      1  C   UNL     1      48.107   5.424  15.696  0.00  0.00    +0.000 A 
ATOM      2  C   UNL     1      48.963   6.517  15.518  0.00  0.00    +0.000 A 
ATOM      3  C   UNL     1      48.991   7.210  14.309  0.00  0.00    +0.000 A 
ATOM      4  C   UNL     1      48.173   6.814  13.251  0.00  0.00    +0.000 A 
ATOM      5  C   UNL     1      47.247   5.773  13.401  0.00  0.00    +0.000 A 
ATOM      6  C   UNL     1      47.203   5.130  14.651  0.00  0.00    +0.000 A 
ENDROOT
BRANCH   5   7
ATOM      7  C   UNL     1      46.406   5.202  12.261  0.00  0.00    +0.000 C 
ATOM      8  C   UNL     1      46.083   6.165  11.105  0.00  0.00    +0.000 C 
ATOM      9  C   UNL     1      44.943   7.127  11.449  0.00  0.00    +0.000 C 
ATOM     10  N   UNL     1      43.737   6.422  11.874  0.00  0.00    +0.000 NA
ATOM     11  C   UNL     1      44.007   5.558  13.027  0.00  0.00    +0.000 C 
ATOM     12  C   UNL     1      45.097   4.533  12.723  0.00  0.00    +0.000 C 
ATOM     13  H   UNL     1      43.390   5.855  11.104  0.00  0.00    +0.000 HD
ENDBRANCH   5   7
BRANCH   1  14
ATOM     14  C   UNL     1      48.247   4.495  16.910  0.00  0.00    +0.000 C 
ATOM     15  C   UNL     1      47.049   4.465  17.869  0.00  0.00    +0.000 C 
ATOM     16  C   UNL     1      47.277   3.321  16.946  0.00  0.00    +0.000 C 
BRANCH  14  22
ATOM     17 CL   UNL     1      54.112   0.837  17.922  0.00  0.00    +0.000 Cl
ATOM     18  C   UNL     1      52.759   1.872  17.720  0.00  0.00    +0.000 A 
ATOM     19  C   UNL     1      51.507   1.354  17.458  0.00  0.00    +0.000 A 
ATOM     20  C   UNL     1      50.421   2.228  17.336  0.00  0.00    +0.000 A 
ATOM     21  C   UNL     1      50.600   3.597  17.496  0.00  0.00    +0.000 A 
ATOM     22  N   UNL     1      49.572   4.536  17.537  0.00  0.00    +0.000 N 
ATOM     23  N   UNL     1      51.831   4.105  17.733  0.00  0.00    +0.000 NA
ATOM     24  C   UNL     1      52.877   3.244  17.834  0.00  0.00    +0.000 A 
ATOM     25  H   UNL     1      50.013   5.452  17.615  0.00  0.00    +0.000 HD
ENDBRANCH  14  22
ENDBRANCH   1  14
TORSDOF 3
ENDMDL
MODEL 6
REMARK VINA RESULT:    -6.063      3.668      6.182
REMARK INTER + INTRA:          -7.954
REMARK INTER:                  -6.882
REMARK INTRA:                  -1.072
REMARK UNBOUND:                -0.827
REMARK  Name = 
REMARK  3 active torsions:
REMARK  status: ('A' for Active; 'I' for Inactive)
REMARK    1  A    between atoms: N_6  and  C_7
REMARK    2  A    between atoms: C_7  and  C_8
REMARK    3  A    between atoms: C_12  and  C_13
REMARK                            x       y       z     vdW  Elec       q    Type
REMARK                         _______ _______ _______ _____ _____    ______ ____
ROOT
ATOM      1  C   UNL     1      48.785   8.289  14.781  0.00  0.00    +0.000 A 
ATOM      2  C   UNL     1      48.360   9.467  15.407  0.00  0.00    +0.000 A 
ATOM      3  C   UNL     1      48.213   9.525  16.792  0.00  0.00    +0.000 A 
ATOM      4  C   UNL     1      48.475   8.400  17.575  0.00  0.00    +0.000 A 
ATOM      5  C   UNL     1      48.971   7.220  17.007  0.00  0.00    +0.000 A 
ATOM      6  C   UNL     1      49.163   7.212  15.614  0.00  0.00    +0.000 A 
ENDROOT
BRANCH   5   7
ATOM      7  C   UNL     1      49.166   5.914  17.774  0.00  0.00    +0.000 C 
ATOM      8  C   UNL     1      48.909   4.617  16.984  0.00  0.00    +0.000 C 
ATOM      9  C   UNL     1      47.417   4.303  16.849  0.00  0.00    +0.000 C 
ATOM     10  N   UNL     1      46.745   4.251  18.144  0.00  0.00    +0.000 NA
ATOM     11  C   UNL     1      46.911   5.507  18.879  0.00  0.00    +0.000 C 
ATOM     12  C   UNL     1      48.384   5.844  19.100  0.00  0.00    +0.000 C 
ATOM     13  H   UNL     1      47.134   3.487  18.694  0.00  0.00    +0.000 HD
ENDBRANCH   5   7
BRANCH   1  14
ATOM     14  C   UNL     1      48.702   8.125  13.257  0.00  0.00    +0.000 C 
ATOM     15  C   UNL     1      49.565   9.091  12.434  0.00  0.00    +0.000 C 
ATOM     16  C   UNL     1      49.989   7.673  12.581  0.00  0.00    +0.000 C 
BRANCH  14  22
ATOM     17 CL   UNL     1      43.589   3.383  12.844  0.00  0.00    +0.000 Cl
ATOM     18  C   UNL     1      44.728   4.664  12.906  0.00  0.00    +0.000 A 
ATOM     19  C   UNL     1      46.075   4.403  13.051  0.00  0.00    +0.000 A 
ATOM     20  C   UNL     1      46.978   5.472  13.061  0.00  0.00    +0.000 A 
ATOM     21  C   UNL     1      46.523   6.776  12.907  0.00  0.00    +0.000 A 
ATOM     22  N   UNL     1      47.341   7.894  12.761  0.00  0.00    +0.000 N 
ATOM     23  N   UNL     1      45.200   7.032  12.786  0.00  0.00    +0.000 NA
ATOM     24  C   UNL     1      44.336   5.984  12.793  0.00  0.00    +0.000 A 
ATOM     25  H   UNL     1      46.726   8.705  12.717  0.00  0.00    +0.000 HD
ENDBRANCH  14  22
ENDBRANCH   1  14
TORSDOF 3
ENDMDL
MODEL 7
REMARK VINA RESULT:    -5.892      3.624      5.416
REMARK INTER + INTRA:          -7.753
REMARK INTER:                  -7.245
REMARK INTRA:                  -0.508
REMARK UNBOUND:                -0.827
REMARK  Name = 
REMARK  3 active torsions:
REMARK  status: ('A' for Active; 'I' for Inactive)
REMARK    1  A    between atoms: N_6  and  C_7
REMARK    2  A    between atoms: C_7  and  C_8
REMARK    3  A    between atoms: C_12  and  C_13
REMARK                            x       y       z     vdW  Elec       q    Type
REMARK                         _______ _______ _______ _____ _____    ______ ____
ROOT
ATOM      1  C   UNL     1      48.736   7.063  14.444  0.00  0.00    +0.000 A 
ATOM      2  C   UNL     1      49.936   7.730  14.174  0.00  0.00    +0.000 A 
ATOM      3  C   UNL     1      51.006   7.659  15.064  0.00  0.00    +0.000 A 
ATOM      4  C   UNL     1      50.890   6.929  16.247  0.00  0.00    +0.000 A 
ATOM      5  C   UNL     1      49.738   6.185  16.531  0.00  0.00    +0.000 A 
ATOM      6  C   UNL     1      48.698   6.232  15.586  0.00  0.00    +0.000 A 
ENDROOT
BRANCH   5   7
ATOM      7  C   UNL     1      49.485   5.463  17.852  0.00  0.00    +0.000 C 
ATOM      8  C   UNL     1      50.721   4.861  18.546  0.00  0.00    +0.000 C 
ATOM      9  C   UNL     1      51.154   3.535  17.917  0.00  0.00    +0.000 C 
ATOM     10  N   UNL     1      50.068   2.561  17.881  0.00  0.00    +0.000 NA
ATOM     11  C   UNL     1      48.908   3.086  17.155  0.00  0.00    +0.000 C 
ATOM     12  C   UNL     1      48.391   4.381  17.776  0.00  0.00    +0.000 C 
ATOM     13  H   UNL     1      49.790   2.331  18.834  0.00  0.00    +0.000 HD
ENDBRANCH   5   7
BRANCH   1  14
ATOM     14  C   UNL     1      47.472   7.339  13.618  0.00  0.00    +0.000 C 
ATOM     15  C   UNL     1      46.940   8.777  13.672  0.00  0.00    +0.000 C 
ATOM     16  C   UNL     1      47.652   8.305  12.455  0.00  0.00    +0.000 C 
BRANCH  14  22
ATOM     17 CL   UNL     1      44.008   2.545   9.901  0.00  0.00    +0.000 Cl
ATOM     18  C   UNL     1      44.809   3.637  10.951  0.00  0.00    +0.000 A 
ATOM     19  C   UNL     1      45.373   4.799  10.465  0.00  0.00    +0.000 A 
ATOM     20  C   UNL     1      45.987   5.684  11.358  0.00  0.00    +0.000 A 
ATOM     21  C   UNL     1      46.010   5.404  12.719  0.00  0.00    +0.000 A 
ATOM     22  N   UNL     1      46.465   6.276  13.705  0.00  0.00    +0.000 N 
ATOM     23  N   UNL     1      45.476   4.255  13.192  0.00  0.00    +0.000 NA
ATOM     24  C   UNL     1      44.896   3.400  12.310  0.00  0.00    +0.000 A 
ATOM     25  H   UNL     1      46.403   5.776  14.591  0.00  0.00    +0.000 HD
ENDBRANCH  14  22
ENDBRANCH   1  14
TORSDOF 3
ENDMDL
MODEL 8
REMARK VINA RESULT:    -5.874      2.949      7.038
REMARK INTER + INTRA:          -7.732
REMARK INTER:                  -7.314
REMARK INTRA:                  -0.418
REMARK UNBOUND:                -0.827
REMARK  Name = 
REMARK  3 active torsions:
REMARK  status: ('A' for Active; 'I' for Inactive)
REMARK    1  A    between atoms: N_6  and  C_7
REMARK    2  A    between atoms: C_7  and  C_8
REMARK    3  A    between atoms: C_12  and  C_13
REMARK                            x       y       z     vdW  Elec       q    Type
REMARK                         _______ _______ _______ _____ _____    ______ ____
ROOT
ATOM      1  C   UNL     1      47.516   6.945  12.489  0.00  0.00    +0.000 A 
ATOM      2  C   UNL     1      47.736   6.145  13.616  0.00  0.00    +0.000 A 
ATOM      3  C   UNL     1      46.964   5.008  13.844  0.00  0.00    +0.000 A 
ATOM      4  C   UNL     1      45.947   4.658  12.955  0.00  0.00    +0.000 A 
ATOM      5  C   UNL     1      45.732   5.382  11.776  0.00  0.00    +0.000 A 
ATOM      6  C   UNL     1      46.566   6.491  11.546  0.00  0.00    +0.000 A 
ENDROOT
BRANCH   5   7
ATOM      7  C   UNL     1      44.568   5.138  10.818  0.00  0.00    +0.000 C 
ATOM      8  C   UNL     1      43.303   4.512  11.432  0.00  0.00    +0.000 C 
ATOM      9  C   UNL     1      43.439   3.001  11.634  0.00  0.00    +0.000 C 
ATOM     10  N   UNL     1      43.800   2.310  10.399  0.00  0.00    +0.000 NA
ATOM     11  C   UNL     1      45.047   2.839   9.840  0.00  0.00    +0.000 C 
ATOM     12  C   UNL     1      44.951   4.337   9.559  0.00  0.00    +0.000 C 
ATOM     13  H   UNL     1      43.052   2.426   9.718  0.00  0.00    +0.000 HD
ENDBRANCH   5   7
BRANCH   1  14
ATOM     14  C   UNL     1      48.169   8.328  12.356  0.00  0.00    +0.000 C 
ATOM     15  C   UNL     1      47.202   9.516  12.265  0.00  0.00    +0.000 C 
ATOM     16  C   UNL     1      47.941   9.270  13.531  0.00  0.00    +0.000 C 
BRANCH  14  22
ATOM     17 CL   UNL     1      55.142   8.058  12.048  0.00  0.00    +0.000 Cl
ATOM     18  C   UNL     1      53.430   8.091  11.958  0.00  0.00    +0.000 A 
ATOM     19  C   UNL     1      52.674   8.495  13.040  0.00  0.00    +0.000 A 
ATOM     20  C   UNL     1      51.281   8.544  12.916  0.00  0.00    +0.000 A 
ATOM     21  C   UNL     1      50.671   8.208  11.714  0.00  0.00    +0.000 A 
ATOM     22  N   UNL     1      49.313   8.356  11.440  0.00  0.00    +0.000 N 
ATOM     23  N   UNL     1      51.411   7.792  10.661  0.00  0.00    +0.000 NA
ATOM     24  C   UNL     1      52.761   7.737  10.802  0.00  0.00    +0.000 A 
ATOM     25  H   UNL     1      49.160   7.984  10.504  0.00  0.00    +0.000 HD
ENDBRANCH  14  22
ENDBRANCH   1  14
TORSDOF 3
ENDMDL
MODEL 9
REMARK VINA RESULT:    -5.638      3.838      7.996
REMARK INTER + INTRA:          -7.455
REMARK INTER:                  -7.079
REMARK INTRA:                  -0.375
REMARK UNBOUND:                -0.827
REMARK  Name = 
REMARK  3 active torsions:
REMARK  status: ('A' for Active; 'I' for Inactive)
REMARK    1  A    between atoms: N_6  and  C_7
REMARK    2  A    between atoms: C_7  and  C_8
REMARK    3  A    between atoms: C_12  and  C_13
REMARK                            x       y       z     vdW  Elec       q    Type
REMARK                         _______ _______ _______ _____ _____    ______ ____
ROOT
ATOM      1  C   UNL     1      47.782   6.404  13.061  0.00  0.00    +0.000 A 
ATOM      2  C   UNL     1      47.616   5.565  14.168  0.00  0.00    +0.000 A 
ATOM      3  C   UNL     1      46.545   4.675  14.234  0.00  0.00    +0.000 A 
ATOM      4  C   UNL     1      45.613   4.619  13.198  0.00  0.00    +0.000 A 
ATOM      5  C   UNL     1      45.772   5.385  12.036  0.00  0.00    +0.000 A 
ATOM      6  C   UNL     1      46.893   6.231  11.976  0.00  0.00    +0.000 A 
ENDROOT
BRANCH   5   7
ATOM      7  C   UNL     1      44.737   5.471  10.916  0.00  0.00    +0.000 C 
ATOM      8  C   UNL     1      43.339   4.914  11.238  0.00  0.00    +0.000 C 
ATOM      9  C   UNL     1      43.287   3.386  11.153  0.00  0.00    +0.000 C 
ATOM     10  N   UNL     1      43.746   2.890   9.858  0.00  0.00    +0.000 NA
ATOM     11  C   UNL     1      45.108   3.346   9.569  0.00  0.00    +0.000 C 
ATOM     12  C   UNL     1      45.210   4.869   9.579  0.00  0.00    +0.000 C 
ATOM     13  H   UNL     1      43.120   3.224   9.129  0.00  0.00    +0.000 HD
ENDBRANCH   5   7
BRANCH   1  14
ATOM     14  C   UNL     1      48.790   7.561  13.086  0.00  0.00    +0.000 C 
ATOM     15  C   UNL     1      49.579   7.787  11.789  0.00  0.00    +0.000 C 
ATOM     16  C   UNL     1      48.476   8.718  12.146  0.00  0.00    +0.000 C 
BRANCH  14  22
ATOM     17 CL   UNL     1      48.555   9.789  19.703  0.00  0.00    +0.000 Cl
ATOM     18  C   UNL     1      48.747   9.149  18.124  0.00  0.00    +0.000 A 
ATOM     19  C   UNL     1      47.998   9.634  17.070  0.00  0.00    +0.000 A 
ATOM     20  C   UNL     1      48.208   9.112  15.789  0.00  0.00    +0.000 A 
ATOM     21  C   UNL     1      49.172   8.132  15.580  0.00  0.00    +0.000 A 
ATOM     22  N   UNL     1      49.559   7.649  14.331  0.00  0.00    +0.000 N 
ATOM     23  N   UNL     1      49.890   7.643  16.616  0.00  0.00    +0.000 NA
ATOM     24  C   UNL     1      49.664   8.151  17.855  0.00  0.00    +0.000 A 
ATOM     25  H   UNL     1      50.242   6.912  14.501  0.00  0.00    +0.000 HD
ENDBRANCH  14  22
ENDBRANCH   1  14
TORSDOF 3
ENDMDL
