MODEL 1
REMARK VINA RESULT:    -7.879      0.000      0.000
REMARK INTER + INTRA:         -10.201
REMARK INTER:                  -9.721
REMARK INTRA:                  -0.480
REMARK UNBOUND:                -0.480
REMARK  Name = 
REMARK  4 active torsions:
REMARK  status: ('A' for Active; 'I' for Inactive)
REMARK    1  A    between atoms: C_2  and  C_4
REMARK    2  A    between atoms: N_9  and  C_10
REMARK    3  A    between atoms: C_10  and  C_11
REMARK    4  A    between atoms: C_15  and  N_16
REMARK                            x       y       z     vdW  Elec       q    Type
REMARK                         _______ _______ _______ _____ _____    ______ ____
ROOT
ATOM      1  C   UNL     1      48.147   4.374  17.675  0.00  0.00    +0.000 A 
ATOM      2  C   UNL     1      49.082   3.384  17.950  0.00  0.00    +0.000 A 
ATOM      3  C   UNL     1      49.291   2.431  16.976  0.00  0.00    +0.000 A 
ATOM      4  N   UNL     1      48.649   2.416  15.783  0.00  0.00    +0.000 NA
ATOM      5  C   UNL     1      47.728   3.367  15.537  0.00  0.00    +0.000 A 
ATOM      6  N   UNL     1      47.049   3.247  14.339  0.00  0.00    +0.000 N 
ATOM      7  C   UNL     1      47.446   4.352  16.468  0.00  0.00    +0.000 A 
ATOM      8  H   UNL     1      47.516   2.551  13.763  0.00  0.00    +0.000 HD
ENDROOT
BRANCH   1  10
ATOM      9  N   UNL     1      46.517   5.659  18.944  0.00  0.00    +0.000 N 
ATOM     10  C   UNL     1      47.833   5.460  18.634  0.00  0.00    +0.000 C 
ATOM     11  O   UNL     1      48.711   6.121  19.170  0.00  0.00    +0.000 OA
ATOM     12  H   UNL     1      46.341   6.306  19.706  0.00  0.00    +0.000 HD
ATOM     13  H   UNL     1      45.805   4.970  18.750  0.00  0.00    +0.000 HD
ENDBRANCH   1  10
BRANCH   6  14
ATOM     14  C   UNL     1      46.646   4.457  13.625  0.00  0.00    +0.000 C 
BRANCH  14  15
ATOM     15  C   UNL     1      45.375   4.245  12.817  0.00  0.00    +0.000 A 
ATOM     16  N   UNL     1      44.202   4.532  13.413  0.00  0.00    +0.000 NA
ATOM     17  C   UNL     1      43.110   4.330  12.664  0.00  0.00    +0.000 A 
ATOM     18  C   UNL     1      43.149   3.861  11.369  0.00  0.00    +0.000 A 
ATOM     19  C   UNL     1      44.387   3.594  10.819  0.00  0.00    +0.000 A 
ATOM     20  N   UNL     1      45.499   3.791  11.549  0.00  0.00    +0.000 NA
BRANCH  19  21
ATOM     21  N   UNL     1      44.520   3.165   9.517  0.00  0.00    +0.000 N 
ATOM     22  C   UNL     1      44.690   1.759   9.136  0.00  0.00    +0.000 C 
ATOM     23  C   UNL     1      46.018   1.570   8.385  0.00  0.00    +0.000 C 
ATOM     24  O   UNL     1      46.129   2.463   7.265  0.00  0.00    +0.000 OA
ATOM     25  C   UNL     1      46.075   3.830   7.716  0.00  0.00    +0.000 C 
ATOM     26  C   UNL     1      44.752   4.132   8.435  0.00  0.00    +0.000 C 
ENDBRANCH  19  21
ENDBRANCH  14  15
ENDBRANCH   6  14
TORSDOF 4
ENDMDL
MODEL 2
REMARK VINA RESULT:    -7.170      3.158      8.009
REMARK INTER + INTRA:          -9.327
REMARK INTER:                  -8.638
REMARK INTRA:                  -0.689
REMARK UNBOUND:                -0.480
REMARK  Name = 
REMARK  4 active torsions:
REMARK  status: ('A' for Active; 'I' for Inactive)
REMARK    1  A    between atoms: C_2  and  C_4
REMARK    2  A    between atoms: N_9  and  C_10
REMARK    3  A    between atoms: C_10  and  C_11
REMARK    4  A    between atoms: C_15  and  N_16
REMARK                            x       y       z     vdW  Elec       q    Type
REMARK                         _______ _______ _______ _____ _____    ______ ____
ROOT
ATOM      1  C   UNL     1      46.446   2.097   7.564  0.00  0.00    +0.000 A 
ATOM      2  C   UNL     1      46.895   3.148   6.774  0.00  0.00    +0.000 A 
ATOM      3  C   UNL     1      46.501   4.419   7.138  0.00  0.00    +0.000 A 
ATOM      4  N   UNL     1      45.719   4.690   8.210  0.00  0.00    +0.000 NA
ATOM      5  C   UNL     1      45.270   3.661   8.955  0.00  0.00    +0.000 A 
ATOM      6  N   UNL     1      44.409   3.996   9.982  0.00  0.00    +0.000 N 
ATOM      7  C   UNL     1      45.606   2.353   8.650  0.00  0.00    +0.000 A 
ATOM      8  H   UNL     1      44.423   5.006  10.109  0.00  0.00    +0.000 HD
ENDROOT
BRANCH   1  10
ATOM      9  N   UNL     1      47.321   0.400   6.056  0.00  0.00    +0.000 N 
ATOM     10  C   UNL     1      46.801   0.685   7.287  0.00  0.00    +0.000 C 
ATOM     11  O   UNL     1      46.687  -0.187   8.137  0.00  0.00    +0.000 OA
ATOM     12  H   UNL     1      47.688  -0.538   5.944  0.00  0.00    +0.000 HD
ATOM     13  H   UNL     1      47.688   1.115   5.445  0.00  0.00    +0.000 HD
ENDBRANCH   1  10
BRANCH   6  14
ATOM     14  C   UNL     1      44.449   3.228  11.225  0.00  0.00    +0.000 C 
BRANCH  14  15
ATOM     15  C   UNL     1      45.377   3.855  12.254  0.00  0.00    +0.000 A 
ATOM     16  N   UNL     1      46.094   3.024  13.035  0.00  0.00    +0.000 NA
ATOM     17  C   UNL     1      46.896   3.619  13.927  0.00  0.00    +0.000 A 
ATOM     18  C   UNL     1      47.004   4.986  14.062  0.00  0.00    +0.000 A 
ATOM     19  C   UNL     1      46.245   5.778  13.223  0.00  0.00    +0.000 A 
ATOM     20  N   UNL     1      45.433   5.204  12.317  0.00  0.00    +0.000 NA
BRANCH  19  21
ATOM     21  N   UNL     1      46.324   7.152  13.261  0.00  0.00    +0.000 N 
ATOM     22  C   UNL     1      45.242   8.043  12.832  0.00  0.00    +0.000 C 
ATOM     23  C   UNL     1      45.722   8.947  11.684  0.00  0.00    +0.000 C 
ATOM     24  O   UNL     1      46.918   9.660  12.032  0.00  0.00    +0.000 OA
ATOM     25  C   UNL     1      47.979   8.731  12.328  0.00  0.00    +0.000 C 
ATOM     26  C   UNL     1      47.612   7.816  13.505  0.00  0.00    +0.000 C 
ENDBRANCH  19  21
ENDBRANCH  14  15
ENDBRANCH   6  14
TORSDOF 4
ENDMDL
MODEL 3
REMARK VINA RESULT:    -7.004      1.569      8.800
REMARK INTER + INTRA:          -9.122
REMARK INTER:                  -8.649
REMARK INTRA:                  -0.473
REMARK UNBOUND:                -0.480
REMARK  Name = 
REMARK  4 active torsions:
REMARK  status: ('A' for Active; 'I' for Inactive)
REMARK    1  A    between atoms: C_2  and  C_4
REMARK    2  A    between atoms: N_9  and  C_10
REMARK    3  A    between atoms: C_10  and  C_11
REMARK    4  A    between atoms: C_15  and  N_16
REMARK                            x       y       z     vdW  Elec       q    Type
REMARK                         _______ _______ _______ _____ _____    ______ ____
ROOT
ATOM      1  C   UNL     1      44.215   4.177  10.828  0.00  0.00    +0.000 A 
ATOM      2  C   UNL     1      43.024   4.886  10.928  0.00  0.00    +0.000 A 
ATOM      3  C   UNL     1      42.753   5.488  12.139  0.00  0.00    +0.000 A 
ATOM      4  N   UNL     1      43.578   5.432  13.213  0.00  0.00    +0.000 NA
ATOM      5  C   UNL     1      44.718   4.722  13.110  0.00  0.00    +0.000 A 
ATOM      6  N   UNL     1      45.473   4.633  14.265  0.00  0.00    +0.000 N 
ATOM      7  C   UNL     1      45.058   4.074  11.935  0.00  0.00    +0.000 A 
ATOM      8  H   UNL     1      45.113   5.296  14.947  0.00  0.00    +0.000 HD
ENDROOT
BRANCH   1  10
ATOM      9  N   UNL     1      44.310   4.092   8.398  0.00  0.00    +0.000 N 
ATOM     10  C   UNL     1      44.628   3.489   9.582  0.00  0.00    +0.000 C 
ATOM     11  O   UNL     1      45.273   2.451   9.603  0.00  0.00    +0.000 OA
ATOM     12  H   UNL     1      44.727   3.679   7.571  0.00  0.00    +0.000 HD
ATOM     13  H   UNL     1      44.038   5.063   8.342  0.00  0.00    +0.000 HD
ENDBRANCH   1  10
BRANCH   6  14
ATOM     14  C   UNL     1      46.930   4.597  14.162  0.00  0.00    +0.000 C 
BRANCH  14  15
ATOM     15  C   UNL     1      47.582   4.118  15.450  0.00  0.00    +0.000 A 
ATOM     16  N   UNL     1      47.967   2.829  15.512  0.00  0.00    +0.000 NA
ATOM     17  C   UNL     1      48.535   2.451  16.664  0.00  0.00    +0.000 A 
ATOM     18  C   UNL     1      48.726   3.299  17.733  0.00  0.00    +0.000 A 
ATOM     19  C   UNL     1      48.314   4.610  17.598  0.00  0.00    +0.000 A 
ATOM     20  N   UNL     1      47.743   5.014  16.449  0.00  0.00    +0.000 NA
BRANCH  19  21
ATOM     21  N   UNL     1      48.507   5.534  18.600  0.00  0.00    +0.000 N 
ATOM     22  C   UNL     1      48.407   5.221  20.029  0.00  0.00    +0.000 C 
ATOM     23  C   UNL     1      47.310   6.075  20.684  0.00  0.00    +0.000 C 
ATOM     24  O   UNL     1      47.508   7.476  20.440  0.00  0.00    +0.000 OA
ATOM     25  C   UNL     1      47.477   7.740  19.024  0.00  0.00    +0.000 C 
ATOM     26  C   UNL     1      48.579   6.968  18.285  0.00  0.00    +0.000 C 
ENDBRANCH  19  21
ENDBRANCH  14  15
ENDBRANCH   6  14
TORSDOF 4
ENDMDL
MODEL 4
REMARK VINA RESULT:    -6.893      2.607      8.305
REMARK INTER + INTRA:          -8.985
REMARK INTER:                  -8.444
REMARK INTRA:                  -0.541
REMARK UNBOUND:                -0.480
REMARK  Name = 
REMARK  4 active torsions:
REMARK  status: ('A' for Active; 'I' for Inactive)
REMARK    1  A    between atoms: C_2  and  C_4
REMARK    2  A    between atoms: N_9  and  C_10
REMARK    3  A    between atoms: C_10  and  C_11
REMARK    4  A    between atoms: C_15  and  N_16
REMARK                            x       y       z     vdW  Elec       q    Type
REMARK                         _______ _______ _______ _____ _____    ______ ____
ROOT
ATOM      1  C   UNL     1      44.546   4.760  10.562  0.00  0.00    +0.000 A 
ATOM      2  C   UNL     1      43.245   4.652  11.036  0.00  0.00    +0.000 A 
ATOM      3  C   UNL     1      43.008   5.091  12.322  0.00  0.00    +0.000 A 
ATOM      4  N   UNL     1      43.960   5.619  13.128  0.00  0.00    +0.000 NA
ATOM      5  C   UNL     1      45.223   5.696  12.666  0.00  0.00    +0.000 A 
ATOM      6  N   UNL     1      46.162   6.164  13.565  0.00  0.00    +0.000 N 
ATOM      7  C   UNL     1      45.549   5.263  11.392  0.00  0.00    +0.000 A 
ATOM      8  H   UNL     1      45.681   6.554  14.372  0.00  0.00    +0.000 HD
ENDROOT
BRANCH   1  10
ATOM      9  N   UNL     1      44.315   3.223   8.689  0.00  0.00    +0.000 N 
ATOM     10  C   UNL     1      44.934   4.331   9.197  0.00  0.00    +0.000 C 
ATOM     11  O   UNL     1      45.734   4.965   8.525  0.00  0.00    +0.000 OA
ATOM     12  H   UNL     1      44.489   3.037   7.708  0.00  0.00    +0.000 HD
ATOM     13  H   UNL     1      43.465   2.849   9.086  0.00  0.00    +0.000 HD
ENDBRANCH   1  10
BRANCH   6  14
ATOM     14  C   UNL     1      47.278   6.971  13.075  0.00  0.00    +0.000 C 
BRANCH  14  15
ATOM     15  C   UNL     1      48.432   7.009  14.065  0.00  0.00    +0.000 A 
ATOM     16  N   UNL     1      49.432   7.879  13.823  0.00  0.00    +0.000 NA
ATOM     17  C   UNL     1      50.427   7.877  14.719  0.00  0.00    +0.000 A 
ATOM     18  C   UNL     1      50.456   7.055  15.824  0.00  0.00    +0.000 A 
ATOM     19  C   UNL     1      49.394   6.193  16.014  0.00  0.00    +0.000 A 
ATOM     20  N   UNL     1      48.381   6.177  15.129  0.00  0.00    +0.000 NA
BRANCH  19  21
ATOM     21  N   UNL     1      49.322   5.368  17.114  0.00  0.00    +0.000 N 
ATOM     22  C   UNL     1      50.407   4.478  17.538  0.00  0.00    +0.000 C 
ATOM     23  C   UNL     1      49.927   3.017  17.534  0.00  0.00    +0.000 C 
ATOM     24  O   UNL     1      48.735   2.845  18.316  0.00  0.00    +0.000 OA
ATOM     25  C   UNL     1      47.671   3.655  17.779  0.00  0.00    +0.000 C 
ATOM     26  C   UNL     1      48.038   5.145  17.793  0.00  0.00    +0.000 C 
ENDBRANCH  19  21
ENDBRANCH  14  15
ENDBRANCH   6  14
TORSDOF 4
ENDMDL
MODEL 5
REMARK VINA RESULT:    -6.785      2.054      8.759
REMARK INTER + INTRA:          -8.852
REMARK INTER:                  -8.326
REMARK INTRA:                  -0.526
REMARK UNBOUND:                -0.480
REMARK  Name = 
REMARK  4 active torsions:
REMARK  status: ('A' for Active; 'I' for Inactive)
REMARK    1  A    between atoms: C_2  and  C_4
REMARK    2  A    between atoms: N_9  and  C_10
REMARK    3  A    between atoms: C_10  and  C_11
REMARK    4  A    between atoms: C_15  and  N_16
REMARK                            x       y       z     vdW  Elec       q    Type
REMARK                         _______ _______ _______ _____ _____    ______ ____
ROOT
ATOM      1  C   UNL     1      44.712   5.076  11.241  0.00  0.00    +0.000 A 
ATOM      2  C   UNL     1      44.843   6.432  10.968  0.00  0.00    +0.000 A 
ATOM      3  C   UNL     1      45.543   7.190  11.882  0.00  0.00    +0.000 A 
ATOM      4  N   UNL     1      46.106   6.689  13.008  0.00  0.00    +0.000 NA
ATOM      5  C   UNL     1      45.953   5.377  13.273  0.00  0.00    +0.000 A 
ATOM      6  N   UNL     1      46.477   4.945  14.477  0.00  0.00    +0.000 N 
ATOM      7  C   UNL     1      45.250   4.548  12.416  0.00  0.00    +0.000 A 
ATOM      8  H   UNL     1      47.065   5.679  14.864  0.00  0.00    +0.000 HD
ENDROOT
BRANCH   1  10
ATOM      9  N   UNL     1      44.019   4.426   9.001  0.00  0.00    +0.000 N 
ATOM     10  C   UNL     1      43.989   4.148  10.338  0.00  0.00    +0.000 C 
ATOM     11  O   UNL     1      43.430   3.145  10.758  0.00  0.00    +0.000 OA
ATOM     12  H   UNL     1      43.643   3.704   8.396  0.00  0.00    +0.000 HD
ATOM     13  H   UNL     1      44.687   5.066   8.596  0.00  0.00    +0.000 HD
ENDBRANCH   1  10
BRANCH   6  14
ATOM     14  C   UNL     1      47.046   3.601  14.564  0.00  0.00    +0.000 C 
BRANCH  14  15
ATOM     15  C   UNL     1      47.863   3.409  15.833  0.00  0.00    +0.000 A 
ATOM     16  N   UNL     1      48.753   2.399  15.854  0.00  0.00    +0.000 NA
ATOM     17  C   UNL     1      49.449   2.267  16.991  0.00  0.00    +0.000 A 
ATOM     18  C   UNL     1      49.288   3.091  18.083  0.00  0.00    +0.000 A 
ATOM     19  C   UNL     1      48.361   4.111  17.989  0.00  0.00    +0.000 A 
ATOM     20  N   UNL     1      47.652   4.266  16.857  0.00  0.00    +0.000 NA
BRANCH  19  21
ATOM     21  N   UNL     1      48.168   5.007  19.017  0.00  0.00    +0.000 N 
ATOM     22  C   UNL     1      47.056   5.961  19.069  0.00  0.00    +0.000 C 
ATOM     23  C   UNL     1      47.594   7.400  19.118  0.00  0.00    +0.000 C 
ATOM     24  O   UNL     1      48.528   7.584  20.192  0.00  0.00    +0.000 OA
ATOM     25  C   UNL     1      49.656   6.704  20.022  0.00  0.00    +0.000 C 
ATOM     26  C   UNL     1      49.223   5.231  20.016  0.00  0.00    +0.000 C 
ENDBRANCH  19  21
ENDBRANCH  14  15
ENDBRANCH   6  14
TORSDOF 4
ENDMDL
MODEL 6
REMARK VINA RESULT:    -6.735      2.863      4.039
REMARK INTER + INTRA:          -8.790
REMARK INTER:                  -8.120
REMARK INTRA:                  -0.671
REMARK UNBOUND:                -0.480
REMARK  Name = 
REMARK  4 active torsions:
REMARK  status: ('A' for Active; 'I' for Inactive)
REMARK    1  A    between atoms: C_2  and  C_4
REMARK    2  A    between atoms: N_9  and  C_10
REMARK    3  A    between atoms: C_10  and  C_11
REMARK    4  A    between atoms: C_15  and  N_16
REMARK                            x       y       z     vdW  Elec       q    Type
REMARK                         _______ _______ _______ _____ _____    ______ ____
ROOT
ATOM      1  C   UNL     1      47.937   5.160  17.810  0.00  0.00    +0.000 A 
ATOM      2  C   UNL     1      47.675   6.106  18.794  0.00  0.00    +0.000 A 
ATOM      3  C   UNL     1      47.998   7.415  18.507  0.00  0.00    +0.000 A 
ATOM      4  N   UNL     1      48.539   7.821  17.333  0.00  0.00    +0.000 NA
ATOM      5  C   UNL     1      48.810   6.892  16.396  0.00  0.00    +0.000 A 
ATOM      6  N   UNL     1      49.440   7.357  15.257  0.00  0.00    +0.000 N 
ATOM      7  C   UNL     1      48.532   5.553  16.610  0.00  0.00    +0.000 A 
ATOM      8  H   UNL     1      49.410   8.374  15.256  0.00  0.00    +0.000 HD
ENDROOT
BRANCH   1  10
ATOM      9  N   UNL     1      48.332   3.047  18.949  0.00  0.00    +0.000 N 
ATOM     10  C   UNL     1      47.632   3.721  17.988  0.00  0.00    +0.000 C 
ATOM     11  O   UNL     1      46.756   3.163  17.343  0.00  0.00    +0.000 OA
ATOM     12  H   UNL     1      48.006   2.108  19.149  0.00  0.00    +0.000 HD
ATOM     13  H   UNL     1      48.846   3.522  19.677  0.00  0.00    +0.000 HD
ENDBRANCH   1  10
BRANCH   6  14
ATOM     14  C   UNL     1      49.131   6.739  13.969  0.00  0.00    +0.000 C 
BRANCH  14  15
ATOM     15  C   UNL     1      47.697   7.005  13.537  0.00  0.00    +0.000 A 
ATOM     16  N   UNL     1      47.342   8.284  13.311  0.00  0.00    +0.000 NA
ATOM     17  C   UNL     1      46.071   8.472  12.933  0.00  0.00    +0.000 A 
ATOM     18  C   UNL     1      45.163   7.447  12.777  0.00  0.00    +0.000 A 
ATOM     19  C   UNL     1      45.598   6.159  13.018  0.00  0.00    +0.000 A 
ATOM     20  N   UNL     1      46.871   5.945  13.397  0.00  0.00    +0.000 NA
BRANCH  19  21
ATOM     21  N   UNL     1      44.770   5.073  12.844  0.00  0.00    +0.000 N 
ATOM     22  C   UNL     1      45.236   3.753  12.410  0.00  0.00    +0.000 C 
ATOM     23  C   UNL     1      44.546   3.352  11.096  0.00  0.00    +0.000 C 
ATOM     24  O   UNL     1      43.117   3.425  11.200  0.00  0.00    +0.000 OA
ATOM     25  C   UNL     1      42.712   4.772  11.511  0.00  0.00    +0.000 C 
ATOM     26  C   UNL     1      43.310   5.245  12.843  0.00  0.00    +0.000 C 
ENDBRANCH  19  21
ENDBRANCH  14  15
ENDBRANCH   6  14
TORSDOF 4
ENDMDL
MODEL 7
REMARK VINA RESULT:    -6.663      2.296      3.822
REMARK INTER + INTRA:          -8.701
REMARK INTER:                  -8.158
REMARK INTRA:                  -0.544
REMARK UNBOUND:                -0.480
REMARK  Name = 
REMARK  4 active torsions:
REMARK  status: ('A' for Active; 'I' for Inactive)
REMARK    1  A    between atoms: C_2  and  C_4
REMARK    2  A    between atoms: N_9  and  C_10
REMARK    3  A    between atoms: C_10  and  C_11
REMARK    4  A    between atoms: C_15  and  N_16
REMARK                            x       y       z     vdW  Elec       q    Type
REMARK                         _______ _______ _______ _____ _____    ______ ____
ROOT
ATOM      1  C   UNL     1      50.678   4.353  18.659  0.00  0.00    +0.000 A 
ATOM      2  C   UNL     1      50.437   4.696  19.983  0.00  0.00    +0.000 A 
ATOM      3  C   UNL     1      49.152   5.076  20.309  0.00  0.00    +0.000 A 
ATOM      4  N   UNL     1      48.129   5.123  19.421  0.00  0.00    +0.000 NA
ATOM      5  C   UNL     1      48.381   4.810  18.135  0.00  0.00    +0.000 A 
ATOM      6  N   UNL     1      47.318   4.959  17.265  0.00  0.00    +0.000 N 
ATOM      7  C   UNL     1      49.647   4.434  17.721  0.00  0.00    +0.000 A 
ATOM      8  H   UNL     1      46.466   5.100  17.804  0.00  0.00    +0.000 HD
ENDROOT
BRANCH   1  10
ATOM      9  N   UNL     1      52.421   2.662  18.512  0.00  0.00    +0.000 N 
ATOM     10  C   UNL     1      52.012   3.922  18.178  0.00  0.00    +0.000 C 
ATOM     11  O   UNL     1      52.703   4.639  17.468  0.00  0.00    +0.000 OA
ATOM     12  H   UNL     1      53.267   2.342  18.054  0.00  0.00    +0.000 HD
ATOM     13  H   UNL     1      51.781   1.956  18.845  0.00  0.00    +0.000 HD
ENDBRANCH   1  10
BRANCH   6  14
ATOM     14  C   UNL     1      47.180   4.033  16.142  0.00  0.00    +0.000 C 
BRANCH  14  15
ATOM     15  C   UNL     1      47.065   4.761  14.812  0.00  0.00    +0.000 A 
ATOM     16  N   UNL     1      48.010   5.673  14.516  0.00  0.00    +0.000 NA
ATOM     17  C   UNL     1      47.868   6.290  13.336  0.00  0.00    +0.000 A 
ATOM     18  C   UNL     1      46.836   6.031  12.461  0.00  0.00    +0.000 A 
ATOM     19  C   UNL     1      45.906   5.078  12.825  0.00  0.00    +0.000 A 
ATOM     20  N   UNL     1      46.028   4.443  14.005  0.00  0.00    +0.000 NA
BRANCH  19  21
ATOM     21  N   UNL     1      44.868   4.727  11.992  0.00  0.00    +0.000 N 
ATOM     22  C   UNL     1      43.591   4.182  12.464  0.00  0.00    +0.000 C 
ATOM     23  C   UNL     1      43.355   2.786  11.863  0.00  0.00    +0.000 C 
ATOM     24  O   UNL     1      43.453   2.799  10.431  0.00  0.00    +0.000 OA
ATOM     25  C   UNL     1      44.768   3.229  10.029  0.00  0.00    +0.000 C 
ATOM     26  C   UNL     1      45.076   4.644  10.539  0.00  0.00    +0.000 C 
ENDBRANCH  19  21
ENDBRANCH  14  15
ENDBRANCH   6  14
TORSDOF 4
ENDMDL
MODEL 8
REMARK VINA RESULT:    -6.617      2.139      3.395
REMARK INTER + INTRA:          -8.645
REMARK INTER:                  -8.145
REMARK INTRA:                  -0.499
REMARK UNBOUND:                -0.480
REMARK  Name = 
REMARK  4 active torsions:
REMARK  status: ('A' for Active; 'I' for Inactive)
REMARK    1  A    between atoms: C_2  and  C_4
REMARK    2  A    between atoms: N_9  and  C_10
REMARK    3  A    between atoms: C_10  and  C_11
REMARK    4  A    between atoms: C_15  and  N_16
REMARK                            x       y       z     vdW  Elec       q    Type
REMARK                         _______ _______ _______ _____ _____    ______ ____
ROOT
ATOM      1  C   UNL     1      49.572   4.701  19.816  0.00  0.00    +0.000 A 
ATOM      2  C   UNL     1      50.942   4.689  19.585  0.00  0.00    +0.000 A 
ATOM      3  C   UNL     1      51.368   4.213  18.362  0.00  0.00    +0.000 A 
ATOM      4  N   UNL     1      50.533   3.772  17.390  0.00  0.00    +0.000 NA
ATOM      5  C   UNL     1      49.208   3.767  17.635  0.00  0.00    +0.000 A 
ATOM      6  N   UNL     1      48.418   3.226  16.638  0.00  0.00    +0.000 N 
ATOM      7  C   UNL     1      48.698   4.213  18.842  0.00  0.00    +0.000 A 
ATOM      8  H   UNL     1      48.982   3.103  15.800  0.00  0.00    +0.000 HD
ENDROOT
BRANCH   1  10
ATOM      9  N   UNL     1      49.357   6.437  21.507  0.00  0.00    +0.000 N 
ATOM     10  C   UNL     1      48.983   5.192  21.084  0.00  0.00    +0.000 C 
ATOM     11  O   UNL     1      48.157   4.540  21.706  0.00  0.00    +0.000 OA
ATOM     12  H   UNL     1      48.834   6.806  22.294  0.00  0.00    +0.000 HD
ATOM     13  H   UNL     1      49.803   7.105  20.895  0.00  0.00    +0.000 HD
ENDBRANCH   1  10
BRANCH   6  14
ATOM     14  C   UNL     1      47.090   3.787  16.399  0.00  0.00    +0.000 C 
BRANCH  14  15
ATOM     15  C   UNL     1      47.027   4.574  15.099  0.00  0.00    +0.000 A 
ATOM     16  N   UNL     1      48.022   5.447  14.850  0.00  0.00    +0.000 NA
ATOM     17  C   UNL     1      47.925   6.117  13.695  0.00  0.00    +0.000 A 
ATOM     18  C   UNL     1      46.891   5.949  12.800  0.00  0.00    +0.000 A 
ATOM     19  C   UNL     1      45.909   5.031  13.116  0.00  0.00    +0.000 A 
ATOM     20  N   UNL     1      45.985   4.343  14.270  0.00  0.00    +0.000 NA
BRANCH  19  21
ATOM     21  N   UNL     1      44.864   4.769  12.259  0.00  0.00    +0.000 N 
ATOM     22  C   UNL     1      43.623   4.103  12.666  0.00  0.00    +0.000 C 
ATOM     23  C   UNL     1      43.427   2.808  11.860  0.00  0.00    +0.000 C 
ATOM     24  O   UNL     1      43.486   3.047  10.446  0.00  0.00    +0.000 OA
ATOM     25  C   UNL     1      44.772   3.590  10.090  0.00  0.00    +0.000 C 
ATOM     26  C   UNL     1      45.037   4.921  10.808  0.00  0.00    +0.000 C 
ENDBRANCH  19  21
ENDBRANCH  14  15
ENDBRANCH   6  14
TORSDOF 4
ENDMDL
MODEL 9
REMARK VINA RESULT:    -6.379      2.781      8.771
REMARK INTER + INTRA:          -8.351
REMARK INTER:                  -7.869
REMARK INTRA:                  -0.481
REMARK UNBOUND:                -0.480
REMARK  Name = 
REMARK  4 active torsions:
REMARK  status: ('A' for Active; 'I' for Inactive)
REMARK    1  A    between atoms: C_2  and  C_4
REMARK    2  A    between atoms: N_9  and  C_10
REMARK    3  A    between atoms: C_10  and  C_11
REMARK    4  A    between atoms: C_15  and  N_16
REMARK                            x       y       z     vdW  Elec       q    Type
REMARK                         _______ _______ _______ _____ _____    ______ ____
ROOT
ATOM      1  C   UNL     1      44.161   6.218  11.932  0.00  0.00    +0.000 A 
ATOM      2  C   UNL     1      43.182   5.270  11.663  0.00  0.00    +0.000 A 
ATOM      3  C   UNL     1      43.371   4.008  12.186  0.00  0.00    +0.000 A 
ATOM      4  N   UNL     1      44.439   3.654  12.942  0.00  0.00    +0.000 NA
ATOM      5  C   UNL     1      45.393   4.576  13.177  0.00  0.00    +0.000 A 
ATOM      6  N   UNL     1      46.495   4.130  13.881  0.00  0.00    +0.000 N 
ATOM      7  C   UNL     1      45.288   5.862  12.675  0.00  0.00    +0.000 A 
ATOM      8  H   UNL     1      46.290   3.212  14.267  0.00  0.00    +0.000 HD
ENDROOT
BRANCH   1  10
ATOM      9  N   UNL     1      42.848   8.064  11.045  0.00  0.00    +0.000 N 
ATOM     10  C   UNL     1      44.077   7.612  11.435  0.00  0.00    +0.000 C 
ATOM     11  O   UNL     1      45.051   8.351  11.421  0.00  0.00    +0.000 OA
ATOM     12  H   UNL     1      42.791   9.057  10.848  0.00  0.00    +0.000 HD
ATOM     13  H   UNL     1      41.992   7.594  11.301  0.00  0.00    +0.000 HD
ENDBRANCH   1  10
BRANCH   6  14
ATOM     14  C   UNL     1      47.166   5.042  14.805  0.00  0.00    +0.000 C 
BRANCH  14  15
ATOM     15  C   UNL     1      47.718   4.317  16.023  0.00  0.00    +0.000 A 
ATOM     16  N   UNL     1      47.947   2.995  15.911  0.00  0.00    +0.000 NA
ATOM     17  C   UNL     1      48.431   2.398  17.008  0.00  0.00    +0.000 A 
ATOM     18  C   UNL     1      48.687   3.063  18.187  0.00  0.00    +0.000 A 
ATOM     19  C   UNL     1      48.435   4.420  18.229  0.00  0.00    +0.000 A 
ATOM     20  N   UNL     1      47.951   5.043  17.140  0.00  0.00    +0.000 NA
BRANCH  19  21
ATOM     21  N   UNL     1      48.704   5.169  19.352  0.00  0.00    +0.000 N 
ATOM     22  C   UNL     1      48.769   4.613  20.707  0.00  0.00    +0.000 C 
ATOM     23  C   UNL     1      47.721   5.287  21.608  0.00  0.00    +0.000 C 
ATOM     24  O   UNL     1      47.845   6.717  21.593  0.00  0.00    +0.000 OA
ATOM     25  C   UNL     1      47.654   7.215  20.255  0.00  0.00    +0.000 C 
ATOM     26  C   UNL     1      48.695   6.637  19.286  0.00  0.00    +0.000 C 
ENDBRANCH  19  21
ENDBRANCH  14  15
ENDBRANCH   6  14
TORSDOF 4
ENDMDL
