MODEL 1
REMARK VINA RESULT:    -8.375      0.000      0.000
REMARK INTER + INTRA:         -12.382
REMARK INTER:                 -11.312
REMARK INTRA:                  -1.070
REMARK UNBOUND:                -1.070
REMARK  Name = 
REMARK  7 active torsions:
REMARK  status: ('A' for Active; 'I' for Inactive)
REMARK    1  A    between atoms: C_1  and  N_2
REMARK    2  A    between atoms: N_2  and  C_3
REMARK    3  A    between atoms: C_3  and  C_4
REMARK    4  A    between atoms: C_7  and  C_8
REMARK    5  A    between atoms: C_8  and  N_9
REMARK    6  A    between atoms: C_10  and  C_12
REMARK    7  A    between atoms: C_24  and  C_26
REMARK                            x       y       z     vdW  Elec       q    Type
REMARK                         _______ _______ _______ _____ _____    ______ ____
ROOT
ATOM      1  C   UNL     1      46.433   4.371  13.461  0.00  0.00    +0.000 A 
ATOM      2  C   UNL     1      47.038   5.561  13.025  0.00  0.00    +0.000 A 
ATOM      3  C   UNL     1      47.854   6.301  13.882  0.00  0.00    +0.000 A 
ATOM      4  C   UNL     1      48.089   5.859  15.190  0.00  0.00    +0.000 A 
ATOM      5  C   UNL     1      47.459   4.687  15.633  0.00  0.00    +0.000 A 
ATOM      6  C   UNL     1      46.647   3.944  14.774  0.00  0.00    +0.000 A 
ENDROOT
BRANCH   1   7
ATOM      7  C   UNL     1      45.529   3.597  12.534  0.00  0.00    +0.000 C 
BRANCH   7   9
ATOM      8  C   UNL     1      43.476   5.022  12.933  0.00  0.00    +0.000 C 
ATOM      9  N   UNL     1      44.314   4.248  12.026  0.00  0.00    +0.000 N 
ATOM     10  C   UNL     1      44.057   4.441  10.654  0.00  0.00    +0.000 C 
ATOM     11  O   UNL     1      43.194   5.231  10.265  0.00  0.00    +0.000 OA
BRANCH  10  12
ATOM     12  C   UNL     1      44.838   3.729   9.594  0.00  0.00    +0.000 A 
ATOM     13  C   UNL     1      44.807   2.342   9.410  0.00  0.00    +0.000 A 
ATOM     14  C   UNL     1      45.587   1.732   8.425  0.00  0.00    +0.000 A 
ATOM     15  C   UNL     1      46.339   2.511   7.551  0.00  0.00    +0.000 A 
ATOM     16  C   UNL     1      46.310   3.899   7.661  0.00  0.00    +0.000 A 
ATOM     17  C   UNL     1      45.571   4.505   8.683  0.00  0.00    +0.000 A 
ENDBRANCH  10  12
ENDBRANCH   7   9
ENDBRANCH   1   7
BRANCH   4  18
ATOM     18  C   UNL     1      48.986   6.635  16.112  0.00  0.00    +0.000 C 
BRANCH  18  19
ATOM     19  N   UNL     1      50.084   5.834  16.587  0.00  0.00    +0.000 N 
ATOM     20  C   UNL     1      50.133   5.426  17.893  0.00  0.00    +0.000 C 
ATOM     21  O   UNL     1      49.237   5.687  18.692  0.00  0.00    +0.000 OA
ATOM     22  H   UNL     1      50.925   5.806  16.017  0.00  0.00    +0.000 HD
BRANCH  20  23
ATOM     23  C   UNL     1      51.285   4.602  18.287  0.00  0.00    +0.000 A 
ATOM     24  C   UNL     1      52.304   5.168  19.044  0.00  0.00    +0.000 A 
ATOM     25  S   UNL     1      53.538   4.068  19.461  0.00  0.00    +0.000 S 
ATOM     26  C   UNL     1      52.782   2.809  18.599  0.00  0.00    +0.000 A 
ATOM     27  N   UNL     1      53.345   1.575  18.525  0.00  0.00    +0.000 NA
ATOM     28  C   UNL     1      52.687   0.728  17.811  0.00  0.00    +0.000 A 
ATOM     29  N   UNL     1      51.507   1.000  17.164  0.00  0.00    +0.000 N 
ATOM     30  C   UNL     1      50.886   2.220  17.239  0.00  0.00    +0.000 A 
ATOM     31  O   UNL     1      49.805   2.420  16.691  0.00  0.00    +0.000 OA
ATOM     32  C   UNL     1      51.594   3.217  18.018  0.00  0.00    +0.000 A 
ATOM     33  H   UNL     1      51.038   0.290  16.624  0.00  0.00    +0.000 HD
ENDBRANCH  20  23
ENDBRANCH  18  19
ENDBRANCH   4  18
TORSDOF 6
ENDMDL
MODEL 2
REMARK VINA RESULT:    -7.741      2.513      2.835
REMARK INTER + INTRA:         -11.526
REMARK INTER:                 -10.430
REMARK INTRA:                  -1.096
REMARK UNBOUND:                -1.070
REMARK  Name = 
REMARK  7 active torsions:
REMARK  status: ('A' for Active; 'I' for Inactive)
REMARK    1  A    between atoms: C_1  and  N_2
REMARK    2  A    between atoms: N_2  and  C_3
REMARK    3  A    between atoms: C_3  and  C_4
REMARK    4  A    between atoms: C_7  and  C_8
REMARK    5  A    between atoms: C_8  and  N_9
REMARK    6  A    between atoms: C_10  and  C_12
REMARK    7  A    between atoms: C_24  and  C_26
REMARK                            x       y       z     vdW  Elec       q    Type
REMARK                         _______ _______ _______ _____ _____    ______ ____
ROOT
ATOM      1  C   UNL     1      46.315   4.660  13.126  0.00  0.00    +0.000 A 
ATOM      2  C   UNL     1      46.754   5.738  12.339  0.00  0.00    +0.000 A 
ATOM      3  C   UNL     1      47.700   6.640  12.830  0.00  0.00    +0.000 A 
ATOM      4  C   UNL     1      48.233   6.474  14.114  0.00  0.00    +0.000 A 
ATOM      5  C   UNL     1      47.770   5.416  14.910  0.00  0.00    +0.000 A 
ATOM      6  C   UNL     1      46.828   4.511  14.417  0.00  0.00    +0.000 A 
ENDROOT
BRANCH   1   7
ATOM      7  C   UNL     1      45.270   3.712  12.594  0.00  0.00    +0.000 C 
BRANCH   7   9
ATOM      8  C   UNL     1      43.113   5.005  12.870  0.00  0.00    +0.000 C 
ATOM      9  N   UNL     1      44.038   4.267  12.019  0.00  0.00    +0.000 N 
ATOM     10  C   UNL     1      43.828   4.410  10.633  0.00  0.00    +0.000 C 
ATOM     11  O   UNL     1      42.932   5.131  10.188  0.00  0.00    +0.000 OA
BRANCH  10  12
ATOM     12  C   UNL     1      44.698   3.727   9.626  0.00  0.00    +0.000 A 
ATOM     13  C   UNL     1      44.730   2.339   9.444  0.00  0.00    +0.000 A 
ATOM     14  C   UNL     1      45.592   1.758   8.511  0.00  0.00    +0.000 A 
ATOM     15  C   UNL     1      46.368   2.563   7.683  0.00  0.00    +0.000 A 
ATOM     16  C   UNL     1      46.280   3.950   7.786  0.00  0.00    +0.000 A 
ATOM     17  C   UNL     1      45.458   4.529   8.759  0.00  0.00    +0.000 A 
ENDBRANCH  10  12
ENDBRANCH   7   9
ENDBRANCH   1   7
BRANCH   4  18
ATOM     18  C   UNL     1      49.270   7.425  14.643  0.00  0.00    +0.000 C 
BRANCH  18  19
ATOM     19  N   UNL     1      49.253   7.484  16.081  0.00  0.00    +0.000 N 
ATOM     20  C   UNL     1      50.139   6.745  16.818  0.00  0.00    +0.000 C 
ATOM     21  O   UNL     1      50.999   6.043  16.291  0.00  0.00    +0.000 OA
ATOM     22  H   UNL     1      48.422   7.866  16.525  0.00  0.00    +0.000 HD
BRANCH  20  23
ATOM     23  C   UNL     1      50.057   6.875  18.280  0.00  0.00    +0.000 A 
ATOM     24  C   UNL     1      50.557   8.017  18.894  0.00  0.00    +0.000 A 
ATOM     25  S   UNL     1      50.339   8.035  20.585  0.00  0.00    +0.000 S 
ATOM     26  C   UNL     1      49.617   6.493  20.563  0.00  0.00    +0.000 A 
ATOM     27  N   UNL     1      49.212   5.894  21.713  0.00  0.00    +0.000 NA
ATOM     28  C   UNL     1      48.717   4.714  21.555  0.00  0.00    +0.000 A 
ATOM     29  N   UNL     1      48.582   4.076  20.347  0.00  0.00    +0.000 N 
ATOM     30  C   UNL     1      48.946   4.656  19.160  0.00  0.00    +0.000 A 
ATOM     31  O   UNL     1      48.767   4.082  18.088  0.00  0.00    +0.000 OA
ATOM     32  C   UNL     1      49.525   5.980  19.281  0.00  0.00    +0.000 A 
ATOM     33  H   UNL     1      48.181   3.153  20.292  0.00  0.00    +0.000 HD
ENDBRANCH  20  23
ENDBRANCH  18  19
ENDBRANCH   4  18
TORSDOF 6
ENDMDL
MODEL 3
REMARK VINA RESULT:    -7.599      2.522      3.224
REMARK INTER + INTRA:         -11.335
REMARK INTER:                 -10.630
REMARK INTRA:                  -0.705
REMARK UNBOUND:                -1.070
REMARK  Name = 
REMARK  7 active torsions:
REMARK  status: ('A' for Active; 'I' for Inactive)
REMARK    1  A    between atoms: C_1  and  N_2
REMARK    2  A    between atoms: N_2  and  C_3
REMARK    3  A    between atoms: C_3  and  C_4
REMARK    4  A    between atoms: C_7  and  C_8
REMARK    5  A    between atoms: C_8  and  N_9
REMARK    6  A    between atoms: C_10  and  C_12
REMARK    7  A    between atoms: C_24  and  C_26
REMARK                            x       y       z     vdW  Elec       q    Type
REMARK                         _______ _______ _______ _____ _____    ______ ____
ROOT
ATOM      1  C   UNL     1      45.395   6.739  11.661  0.00  0.00    +0.000 A 
ATOM      2  C   UNL     1      46.665   6.175  11.868  0.00  0.00    +0.000 A 
ATOM      3  C   UNL     1      47.638   6.860  12.597  0.00  0.00    +0.000 A 
ATOM      4  C   UNL     1      47.356   8.118  13.142  0.00  0.00    +0.000 A 
ATOM      5  C   UNL     1      46.099   8.693  12.908  0.00  0.00    +0.000 A 
ATOM      6  C   UNL     1      45.123   8.006  12.183  0.00  0.00    +0.000 A 
ENDROOT
BRANCH   1   7
ATOM      7  C   UNL     1      44.363   6.001  10.845  0.00  0.00    +0.000 C 
BRANCH   7   9
ATOM      8  C   UNL     1      42.861   4.778  12.473  0.00  0.00    +0.000 C 
ATOM      9  N   UNL     1      43.814   4.745  11.370  0.00  0.00    +0.000 N 
ATOM     10  C   UNL     1      43.899   3.517  10.684  0.00  0.00    +0.000 C 
ATOM     11  O   UNL     1      43.193   2.554  10.993  0.00  0.00    +0.000 OA
BRANCH  10  12
ATOM     12  C   UNL     1      44.822   3.322   9.521  0.00  0.00    +0.000 A 
ATOM     13  C   UNL     1      45.351   4.377   8.768  0.00  0.00    +0.000 A 
ATOM     14  C   UNL     1      46.179   4.129   7.670  0.00  0.00    +0.000 A 
ATOM     15  C   UNL     1      46.561   2.826   7.367  0.00  0.00    +0.000 A 
ATOM     16  C   UNL     1      46.118   1.771   8.162  0.00  0.00    +0.000 A 
ATOM     17  C   UNL     1      45.245   2.017   9.227  0.00  0.00    +0.000 A 
ENDBRANCH  10  12
ENDBRANCH   7   9
ENDBRANCH   1   7
BRANCH   4  18
ATOM     18  C   UNL     1      48.389   8.853  13.950  0.00  0.00    +0.000 C 
BRANCH  18  19
ATOM     19  N   UNL     1      48.682   8.173  15.185  0.00  0.00    +0.000 N 
ATOM     20  C   UNL     1      49.899   7.577  15.378  0.00  0.00    +0.000 C 
ATOM     21  O   UNL     1      50.794   7.632  14.537  0.00  0.00    +0.000 OA
ATOM     22  H   UNL     1      47.897   7.923  15.780  0.00  0.00    +0.000 HD
BRANCH  20  23
ATOM     23  C   UNL     1      50.115   6.914  16.673  0.00  0.00    +0.000 A 
ATOM     24  C   UNL     1      51.085   7.404  17.538  0.00  0.00    +0.000 A 
ATOM     25  S   UNL     1      51.174   6.556  19.015  0.00  0.00    +0.000 S 
ATOM     26  C   UNL     1      49.956   5.471  18.529  0.00  0.00    +0.000 A 
ATOM     27  N   UNL     1      49.561   4.453  19.337  0.00  0.00    +0.000 NA
ATOM     28  C   UNL     1      48.659   3.686  18.829  0.00  0.00    +0.000 A 
ATOM     29  N   UNL     1      48.105   3.846  17.584  0.00  0.00    +0.000 N 
ATOM     30  C   UNL     1      48.448   4.878  16.749  0.00  0.00    +0.000 A 
ATOM     31  O   UNL     1      47.899   5.026  15.660  0.00  0.00    +0.000 OA
ATOM     32  C   UNL     1      49.474   5.764  17.265  0.00  0.00    +0.000 A 
ATOM     33  H   UNL     1      47.397   3.212  17.247  0.00  0.00    +0.000 HD
ENDBRANCH  20  23
ENDBRANCH  18  19
ENDBRANCH   4  18
TORSDOF 6
ENDMDL
MODEL 4
REMARK VINA RESULT:    -7.508      3.476     10.307
REMARK INTER + INTRA:         -11.211
REMARK INTER:                  -9.666
REMARK INTRA:                  -1.545
REMARK UNBOUND:                -1.070
REMARK  Name = 
REMARK  7 active torsions:
REMARK  status: ('A' for Active; 'I' for Inactive)
REMARK    1  A    between atoms: C_1  and  N_2
REMARK    2  A    between atoms: N_2  and  C_3
REMARK    3  A    between atoms: C_3  and  C_4
REMARK    4  A    between atoms: C_7  and  C_8
REMARK    5  A    between atoms: C_8  and  N_9
REMARK    6  A    between atoms: C_10  and  C_12
REMARK    7  A    between atoms: C_24  and  C_26
REMARK                            x       y       z     vdW  Elec       q    Type
REMARK                         _______ _______ _______ _____ _____    ______ ____
ROOT
ATOM      1  C   UNL     1      51.510   3.760  17.769  0.00  0.00    +0.000 A 
ATOM      2  C   UNL     1      50.959   2.511  17.441  0.00  0.00    +0.000 A 
ATOM      3  C   UNL     1      49.599   2.385  17.151  0.00  0.00    +0.000 A 
ATOM      4  C   UNL     1      48.767   3.511  17.174  0.00  0.00    +0.000 A 
ATOM      5  C   UNL     1      49.312   4.752  17.532  0.00  0.00    +0.000 A 
ATOM      6  C   UNL     1      50.674   4.878  17.817  0.00  0.00    +0.000 A 
ENDROOT
BRANCH   1   7
ATOM      7  C   UNL     1      52.975   3.875  18.110  0.00  0.00    +0.000 C 
BRANCH   7   9
ATOM      8  C   UNL     1      54.374   2.067  19.194  0.00  0.00    +0.000 C 
ATOM      9  N   UNL     1      53.474   3.207  19.318  0.00  0.00    +0.000 N 
ATOM     10  C   UNL     1      53.397   3.778  20.604  0.00  0.00    +0.000 C 
ATOM     11  O   UNL     1      54.068   3.344  21.543  0.00  0.00    +0.000 OA
BRANCH  10  12
ATOM     12  C   UNL     1      52.528   4.961  20.895  0.00  0.00    +0.000 A 
ATOM     13  C   UNL     1      52.886   6.279  20.589  0.00  0.00    +0.000 A 
ATOM     14  C   UNL     1      52.046   7.345  20.919  0.00  0.00    +0.000 A 
ATOM     15  C   UNL     1      50.795   7.100  21.476  0.00  0.00    +0.000 A 
ATOM     16  C   UNL     1      50.383   5.788  21.703  0.00  0.00    +0.000 A 
ATOM     17  C   UNL     1      51.249   4.725  21.423  0.00  0.00    +0.000 A 
ENDBRANCH  10  12
ENDBRANCH   7   9
ENDBRANCH   1   7
BRANCH   4  18
ATOM     18  C   UNL     1      47.306   3.391  16.840  0.00  0.00    +0.000 C 
BRANCH  18  19
ATOM     19  N   UNL     1      46.892   4.396  15.896  0.00  0.00    +0.000 N 
ATOM     20  C   UNL     1      46.926   4.144  14.551  0.00  0.00    +0.000 C 
ATOM     21  O   UNL     1      47.267   3.053  14.101  0.00  0.00    +0.000 OA
ATOM     22  H   UNL     1      46.832   5.355  16.229  0.00  0.00    +0.000 HD
BRANCH  20  23
ATOM     23  C   UNL     1      46.475   5.225  13.662  0.00  0.00    +0.000 A 
ATOM     24  C   UNL     1      47.298   6.324  13.450  0.00  0.00    +0.000 A 
ATOM     25  S   UNL     1      46.652   7.460  12.355  0.00  0.00    +0.000 S 
ATOM     26  C   UNL     1      45.226   6.550  12.166  0.00  0.00    +0.000 A 
ATOM     27  N   UNL     1      44.218   6.985  11.366  0.00  0.00    +0.000 NA
ATOM     28  C   UNL     1      43.183   6.217  11.345  0.00  0.00    +0.000 A 
ATOM     29  N   UNL     1      43.063   5.044  12.047  0.00  0.00    +0.000 N 
ATOM     30  C   UNL     1      44.066   4.551  12.839  0.00  0.00    +0.000 A 
ATOM     31  O   UNL     1      43.951   3.473  13.417  0.00  0.00    +0.000 OA
ATOM     32  C   UNL     1      45.250   5.385  12.913  0.00  0.00    +0.000 A 
ATOM     33  H   UNL     1      42.226   4.486  11.982  0.00  0.00    +0.000 HD
ENDBRANCH  20  23
ENDBRANCH  18  19
ENDBRANCH   4  18
TORSDOF 6
ENDMDL
MODEL 5
REMARK VINA RESULT:    -7.503      3.666      8.919
REMARK INTER + INTRA:         -11.205
REMARK INTER:                  -9.348
REMARK INTRA:                  -1.857
REMARK UNBOUND:                -1.070
REMARK  Name = 
REMARK  7 active torsions:
REMARK  status: ('A' for Active; 'I' for Inactive)
REMARK    1  A    between atoms: C_1  and  N_2
REMARK    2  A    between atoms: N_2  and  C_3
REMARK    3  A    between atoms: C_3  and  C_4
REMARK    4  A    between atoms: C_7  and  C_8
REMARK    5  A    between atoms: C_8  and  N_9
REMARK    6  A    between atoms: C_10  and  C_12
REMARK    7  A    between atoms: C_24  and  C_26
REMARK                            x       y       z     vdW  Elec       q    Type
REMARK                         _______ _______ _______ _____ _____    ______ ____
ROOT
ATOM      1  C   UNL     1      49.272   7.851  16.113  0.00  0.00    +0.000 A 
ATOM      2  C   UNL     1      49.608   6.854  15.182  0.00  0.00    +0.000 A 
ATOM      3  C   UNL     1      49.033   6.844  13.910  0.00  0.00    +0.000 A 
ATOM      4  C   UNL     1      48.119   7.838  13.542  0.00  0.00    +0.000 A 
ATOM      5  C   UNL     1      47.762   8.815  14.482  0.00  0.00    +0.000 A 
ATOM      6  C   UNL     1      48.341   8.828  15.753  0.00  0.00    +0.000 A 
ENDROOT
BRANCH   1   7
ATOM      7  C   UNL     1      49.878   7.831  17.494  0.00  0.00    +0.000 C 
BRANCH   7   9
ATOM      8  C   UNL     1      48.607   8.915  19.395  0.00  0.00    +0.000 C 
ATOM      9  N   UNL     1      48.987   7.717  18.655  0.00  0.00    +0.000 N 
ATOM     10  C   UNL     1      48.215   6.570  18.928  0.00  0.00    +0.000 C 
ATOM     11  O   UNL     1      47.274   6.600  19.724  0.00  0.00    +0.000 OA
BRANCH  10  12
ATOM     12  C   UNL     1      48.471   5.263  18.244  0.00  0.00    +0.000 A 
ATOM     13  C   UNL     1      49.608   4.480  18.470  0.00  0.00    +0.000 A 
ATOM     14  C   UNL     1      49.807   3.286  17.773  0.00  0.00    +0.000 A 
ATOM     15  C   UNL     1      48.826   2.814  16.907  0.00  0.00    +0.000 A 
ATOM     16  C   UNL     1      47.645   3.534  16.740  0.00  0.00    +0.000 A 
ATOM     17  C   UNL     1      47.472   4.757  17.397  0.00  0.00    +0.000 A 
ENDBRANCH  10  12
ENDBRANCH   7   9
ENDBRANCH   1   7
BRANCH   4  18
ATOM     18  C   UNL     1      47.513   7.851  12.166  0.00  0.00    +0.000 C 
BRANCH  18  19
ATOM     19  N   UNL     1      46.860   6.605  11.860  0.00  0.00    +0.000 N 
ATOM     20  C   UNL     1      45.510   6.465  12.037  0.00  0.00    +0.000 C 
ATOM     21  O   UNL     1      44.803   7.395  12.419  0.00  0.00    +0.000 OA
ATOM     22  H   UNL     1      47.446   5.779  11.770  0.00  0.00    +0.000 HD
BRANCH  20  23
ATOM     23  C   UNL     1      44.926   5.161  11.690  0.00  0.00    +0.000 A 
ATOM     24  C   UNL     1      44.211   4.455  12.649  0.00  0.00    +0.000 A 
ATOM     25  S   UNL     1      43.558   2.989  12.072  0.00  0.00    +0.000 S 
ATOM     26  C   UNL     1      44.253   3.220  10.535  0.00  0.00    +0.000 A 
ATOM     27  N   UNL     1      44.101   2.296   9.552  0.00  0.00    +0.000 NA
ATOM     28  C   UNL     1      44.710   2.579   8.452  0.00  0.00    +0.000 A 
ATOM     29  N   UNL     1      45.457   3.711   8.240  0.00  0.00    +0.000 N 
ATOM     30  C   UNL     1      45.610   4.686   9.192  0.00  0.00    +0.000 A 
ATOM     31  O   UNL     1      46.242   5.713   8.957  0.00  0.00    +0.000 OA
ATOM     32  C   UNL     1      44.957   4.409  10.457  0.00  0.00    +0.000 A 
ATOM     33  H   UNL     1      45.905   3.877   7.352  0.00  0.00    +0.000 HD
ENDBRANCH  20  23
ENDBRANCH  18  19
ENDBRANCH   4  18
TORSDOF 6
ENDMDL
MODEL 6
REMARK VINA RESULT:    -7.361      4.122      8.600
REMARK INTER + INTRA:         -11.013
REMARK INTER:                  -8.988
REMARK INTRA:                  -2.025
REMARK UNBOUND:                -1.070
REMARK  Name = 
REMARK  7 active torsions:
REMARK  status: ('A' for Active; 'I' for Inactive)
REMARK    1  A    between atoms: C_1  and  N_2
REMARK    2  A    between atoms: N_2  and  C_3
REMARK    3  A    between atoms: C_3  and  C_4
REMARK    4  A    between atoms: C_7  and  C_8
REMARK    5  A    between atoms: C_8  and  N_9
REMARK    6  A    between atoms: C_10  and  C_12
REMARK    7  A    between atoms: C_24  and  C_26
REMARK                            x       y       z     vdW  Elec       q    Type
REMARK                         _______ _______ _______ _____ _____    ______ ____
ROOT
ATOM      1  C   UNL     1      49.571   7.632  17.641  0.00  0.00    +0.000 A 
ATOM      2  C   UNL     1      49.863   6.954  16.446  0.00  0.00    +0.000 A 
ATOM      3  C   UNL     1      49.318   7.379  15.233  0.00  0.00    +0.000 A 
ATOM      4  C   UNL     1      48.479   8.499  15.191  0.00  0.00    +0.000 A 
ATOM      5  C   UNL     1      48.164   9.157  16.388  0.00  0.00    +0.000 A 
ATOM      6  C   UNL     1      48.713   8.734  17.601  0.00  0.00    +0.000 A 
ENDROOT
BRANCH   1   7
ATOM      7  C   UNL     1      50.142   7.143  18.948  0.00  0.00    +0.000 C 
BRANCH   7   9
ATOM      8  C   UNL     1      49.071   7.693  21.173  0.00  0.00    +0.000 C 
ATOM      9  N   UNL     1      49.219   6.794  20.035  0.00  0.00    +0.000 N 
ATOM     10  C   UNL     1      48.227   5.800  19.919  0.00  0.00    +0.000 C 
ATOM     11  O   UNL     1      47.292   5.725  20.720  0.00  0.00    +0.000 OA
BRANCH  10  12
ATOM     12  C   UNL     1      48.230   4.806  18.800  0.00  0.00    +0.000 A 
ATOM     13  C   UNL     1      49.186   3.793  18.667  0.00  0.00    +0.000 A 
ATOM     14  C   UNL     1      49.157   2.917  17.579  0.00  0.00    +0.000 A 
ATOM     15  C   UNL     1      48.116   2.985  16.658  0.00  0.00    +0.000 A 
ATOM     16  C   UNL     1      47.103   3.928  16.826  0.00  0.00    +0.000 A 
ATOM     17  C   UNL     1      47.165   4.840  17.886  0.00  0.00    +0.000 A 
ENDBRANCH  10  12
ENDBRANCH   7   9
ENDBRANCH   1   7
BRANCH   4  18
ATOM     18  C   UNL     1      47.907   8.980  13.887  0.00  0.00    +0.000 C 
BRANCH  18  19
ATOM     19  N   UNL     1      46.744   8.223  13.504  0.00  0.00    +0.000 N 
ATOM     20  C   UNL     1      46.805   7.331  12.467  0.00  0.00    +0.000 C 
ATOM     21  O   UNL     1      47.849   7.111  11.857  0.00  0.00    +0.000 OA
ATOM     22  H   UNL     1      45.841   8.553  13.833  0.00  0.00    +0.000 HD
BRANCH  20  23
ATOM     23  C   UNL     1      45.573   6.594  12.152  0.00  0.00    +0.000 A 
ATOM     24  C   UNL     1      44.486   7.276  11.619  0.00  0.00    +0.000 A 
ATOM     25  S   UNL     1      43.156   6.271  11.263  0.00  0.00    +0.000 S 
ATOM     26  C   UNL     1      43.966   4.896  11.858  0.00  0.00    +0.000 A 
ATOM     27  N   UNL     1      43.362   3.679  11.872  0.00  0.00    +0.000 NA
ATOM     28  C   UNL     1      44.074   2.735  12.383  0.00  0.00    +0.000 A 
ATOM     29  N   UNL     1      45.344   2.892  12.879  0.00  0.00    +0.000 N 
ATOM     30  C   UNL     1      46.004   4.094  12.855  0.00  0.00    +0.000 A 
ATOM     31  O   UNL     1      47.159   4.195  13.261  0.00  0.00    +0.000 OA
ATOM     32  C   UNL     1      45.241   5.197  12.304  0.00  0.00    +0.000 A 
ATOM     33  H   UNL     1      45.851   2.109  13.263  0.00  0.00    +0.000 HD
ENDBRANCH  20  23
ENDBRANCH  18  19
ENDBRANCH   4  18
TORSDOF 6
ENDMDL
MODEL 7
REMARK VINA RESULT:    -7.028      3.226      9.263
REMARK INTER + INTRA:         -10.563
REMARK INTER:                  -9.081
REMARK INTRA:                  -1.481
REMARK UNBOUND:                -1.070
REMARK  Name = 
REMARK  7 active torsions:
REMARK  status: ('A' for Active; 'I' for Inactive)
REMARK    1  A    between atoms: C_1  and  N_2
REMARK    2  A    between atoms: N_2  and  C_3
REMARK    3  A    between atoms: C_3  and  C_4
REMARK    4  A    between atoms: C_7  and  C_8
REMARK    5  A    between atoms: C_8  and  N_9
REMARK    6  A    between atoms: C_10  and  C_12
REMARK    7  A    between atoms: C_24  and  C_26
REMARK                            x       y       z     vdW  Elec       q    Type
REMARK                         _______ _______ _______ _____ _____    ______ ____
ROOT
ATOM      1  C   UNL     1      50.468   7.152  15.803  0.00  0.00    +0.000 A 
ATOM      2  C   UNL     1      49.211   6.526  15.759  0.00  0.00    +0.000 A 
ATOM      3  C   UNL     1      48.362   6.708  14.665  0.00  0.00    +0.000 A 
ATOM      4  C   UNL     1      48.759   7.511  13.590  0.00  0.00    +0.000 A 
ATOM      5  C   UNL     1      50.000   8.161  13.650  0.00  0.00    +0.000 A 
ATOM      6  C   UNL     1      50.852   7.975  14.741  0.00  0.00    +0.000 A 
ENDROOT
BRANCH   1   7
ATOM      7  C   UNL     1      51.361   6.971  17.004  0.00  0.00    +0.000 C 
BRANCH   7   9
ATOM      8  C   UNL     1      53.766   6.221  16.765  0.00  0.00    +0.000 C 
ATOM      9  N   UNL     1      52.362   5.897  16.985  0.00  0.00    +0.000 N 
ATOM     10  C   UNL     1      52.112   4.600  17.475  0.00  0.00    +0.000 C 
ATOM     11  O   UNL     1      53.031   3.813  17.716  0.00  0.00    +0.000 OA
BRANCH  10  12
ATOM     12  C   UNL     1      50.726   4.116  17.765  0.00  0.00    +0.000 A 
ATOM     13  C   UNL     1      50.073   3.139  17.005  0.00  0.00    +0.000 A 
ATOM     14  C   UNL     1      48.763   2.755  17.303  0.00  0.00    +0.000 A 
ATOM     15  C   UNL     1      48.122   3.277  18.423  0.00  0.00    +0.000 A 
ATOM     16  C   UNL     1      48.791   4.182  19.244  0.00  0.00    +0.000 A 
ATOM     17  C   UNL     1      50.082   4.607  18.911  0.00  0.00    +0.000 A 
ENDBRANCH  10  12
ENDBRANCH   7   9
ENDBRANCH   1   7
BRANCH   4  18
ATOM     18  C   UNL     1      47.863   7.694  12.397  0.00  0.00    +0.000 C 
BRANCH  18  19
ATOM     19  N   UNL     1      47.130   6.492  12.094  0.00  0.00    +0.000 N 
ATOM     20  C   UNL     1      45.769   6.454  12.231  0.00  0.00    +0.000 C 
ATOM     21  O   UNL     1      45.120   7.441  12.575  0.00  0.00    +0.000 OA
ATOM     22  H   UNL     1      47.656   5.624  12.036  0.00  0.00    +0.000 HD
BRANCH  20  23
ATOM     23  C   UNL     1      45.102   5.190  11.889  0.00  0.00    +0.000 A 
ATOM     24  C   UNL     1      44.432   4.480  12.879  0.00  0.00    +0.000 A 
ATOM     25  S   UNL     1      43.671   3.065  12.308  0.00  0.00    +0.000 S 
ATOM     26  C   UNL     1      44.254   3.322  10.729  0.00  0.00    +0.000 A 
ATOM     27  N   UNL     1      43.984   2.441   9.732  0.00  0.00    +0.000 NA
ATOM     28  C   UNL     1      44.518   2.737   8.597  0.00  0.00    +0.000 A 
ATOM     29  N   UNL     1      45.296   3.843   8.363  0.00  0.00    +0.000 N 
ATOM     30  C   UNL     1      45.567   4.775   9.331  0.00  0.00    +0.000 A 
ATOM     31  O   UNL     1      46.225   5.782   9.081  0.00  0.00    +0.000 OA
ATOM     32  C   UNL     1      45.003   4.482  10.634  0.00  0.00    +0.000 A 
ATOM     33  H   UNL     1      45.681   4.021   7.448  0.00  0.00    +0.000 HD
ENDBRANCH  20  23
ENDBRANCH  18  19
ENDBRANCH   4  18
TORSDOF 6
ENDMDL
MODEL 8
REMARK VINA RESULT:    -6.623      3.641      8.729
REMARK INTER + INTRA:         -10.016
REMARK INTER:                  -7.791
REMARK INTRA:                  -2.225
REMARK UNBOUND:                -1.070
REMARK  Name = 
REMARK  7 active torsions:
REMARK  status: ('A' for Active; 'I' for Inactive)
REMARK    1  A    between atoms: C_1  and  N_2
REMARK    2  A    between atoms: N_2  and  C_3
REMARK    3  A    between atoms: C_3  and  C_4
REMARK    4  A    between atoms: C_7  and  C_8
REMARK    5  A    between atoms: C_8  and  N_9
REMARK    6  A    between atoms: C_10  and  C_12
REMARK    7  A    between atoms: C_24  and  C_26
REMARK                            x       y       z     vdW  Elec       q    Type
REMARK                         _______ _______ _______ _____ _____    ______ ____
ROOT
ATOM      1  C   UNL     1      51.253   7.019  17.259  0.00  0.00    +0.000 A 
ATOM      2  C   UNL     1      50.333   7.862  17.903  0.00  0.00    +0.000 A 
ATOM      3  C   UNL     1      49.399   8.594  17.167  0.00  0.00    +0.000 A 
ATOM      4  C   UNL     1      49.362   8.486  15.771  0.00  0.00    +0.000 A 
ATOM      5  C   UNL     1      50.301   7.668  15.127  0.00  0.00    +0.000 A 
ATOM      6  C   UNL     1      51.231   6.932  15.864  0.00  0.00    +0.000 A 
ENDROOT
BRANCH   1   7
ATOM      7  C   UNL     1      52.276   6.258  18.065  0.00  0.00    +0.000 C 
BRANCH   7   9
ATOM      8  C   UNL     1      53.782   4.258  17.702  0.00  0.00    +0.000 C 
ATOM      9  N   UNL     1      52.442   4.821  17.820  0.00  0.00    +0.000 N 
ATOM     10  C   UNL     1      51.407   3.881  17.999  0.00  0.00    +0.000 C 
ATOM     11  O   UNL     1      51.639   2.672  18.071  0.00  0.00    +0.000 OA
BRANCH  10  12
ATOM     12  C   UNL     1      49.977   4.297  18.148  0.00  0.00    +0.000 A 
ATOM     13  C   UNL     1      49.042   4.239  17.109  0.00  0.00    +0.000 A 
ATOM     14  C   UNL     1      47.729   4.677  17.301  0.00  0.00    +0.000 A 
ATOM     15  C   UNL     1      47.311   5.093  18.561  0.00  0.00    +0.000 A 
ATOM     16  C   UNL     1      48.204   5.070  19.630  0.00  0.00    +0.000 A 
ATOM     17  C   UNL     1      49.533   4.684  19.422  0.00  0.00    +0.000 A 
ENDBRANCH  10  12
ENDBRANCH   7   9
ENDBRANCH   1   7
BRANCH   4  18
ATOM     18  C   UNL     1      48.344   9.250  14.971  0.00  0.00    +0.000 C 
BRANCH  18  19
ATOM     19  N   UNL     1      47.341   8.379  14.416  0.00  0.00    +0.000 N 
ATOM     20  C   UNL     1      47.189   8.269  13.060  0.00  0.00    +0.000 C 
ATOM     21  O   UNL     1      47.918   8.867  12.271  0.00  0.00    +0.000 OA
ATOM     22  H   UNL     1      46.597   8.067  15.034  0.00  0.00    +0.000 HD
BRANCH  20  23
ATOM     23  C   UNL     1      46.146   7.349  12.582  0.00  0.00    +0.000 A 
ATOM     24  C   UNL     1      45.051   7.855  11.892  0.00  0.00    +0.000 A 
ATOM     25  S   UNL     1      43.962   6.655  11.363  0.00  0.00    +0.000 S 
ATOM     26  C   UNL     1      44.888   5.420  12.083  0.00  0.00    +0.000 A 
ATOM     27  N   UNL     1      44.490   4.123  12.025  0.00  0.00    +0.000 NA
ATOM     28  C   UNL     1      45.264   3.298  12.643  0.00  0.00    +0.000 A 
ATOM     29  N   UNL     1      46.409   3.650  13.312  0.00  0.00    +0.000 N 
ATOM     30  C   UNL     1      46.866   4.941  13.368  0.00  0.00    +0.000 A 
ATOM     31  O   UNL     1      47.921   5.221  13.931  0.00  0.00    +0.000 OA
ATOM     32  C   UNL     1      46.023   5.915  12.701  0.00  0.00    +0.000 A 
ATOM     33  H   UNL     1      46.974   2.953  13.772  0.00  0.00    +0.000 HD
ENDBRANCH  20  23
ENDBRANCH  18  19
ENDBRANCH   4  18
TORSDOF 6
ENDMDL
MODEL 9
REMARK VINA RESULT:    -6.287      5.286      9.616
REMARK INTER + INTRA:          -9.562
REMARK INTER:                  -7.961
REMARK INTRA:                  -1.601
REMARK UNBOUND:                -1.070
REMARK  Name = 
REMARK  7 active torsions:
REMARK  status: ('A' for Active; 'I' for Inactive)
REMARK    1  A    between atoms: C_1  and  N_2
REMARK    2  A    between atoms: N_2  and  C_3
REMARK    3  A    between atoms: C_3  and  C_4
REMARK    4  A    between atoms: C_7  and  C_8
REMARK    5  A    between atoms: C_8  and  N_9
REMARK    6  A    between atoms: C_10  and  C_12
REMARK    7  A    between atoms: C_24  and  C_26
REMARK                            x       y       z     vdW  Elec       q    Type
REMARK                         _______ _______ _______ _____ _____    ______ ____
ROOT
ATOM      1  C   UNL     1      50.558   8.933  11.300  0.00  0.00    +0.000 A 
ATOM      2  C   UNL     1      49.642   9.997  11.342  0.00  0.00    +0.000 A 
ATOM      3  C   UNL     1      48.351   9.806  11.838  0.00  0.00    +0.000 A 
ATOM      4  C   UNL     1      47.955   8.549  12.311  0.00  0.00    +0.000 A 
ATOM      5  C   UNL     1      48.861   7.481  12.240  0.00  0.00    +0.000 A 
ATOM      6  C   UNL     1      50.154   7.673  11.749  0.00  0.00    +0.000 A 
ENDROOT
BRANCH   1   7
ATOM      7  C   UNL     1      51.940   9.147  10.733  0.00  0.00    +0.000 C 
BRANCH   7   9
ATOM      8  C   UNL     1      53.044  11.367  10.233  0.00  0.00    +0.000 C 
ATOM      9  N   UNL     1      52.715  10.310  11.181  0.00  0.00    +0.000 N 
ATOM     10  C   UNL     1      52.904  10.637  12.539  0.00  0.00    +0.000 C 
ATOM     11  O   UNL     1      53.299  11.753  12.884  0.00  0.00    +0.000 OA
BRANCH  10  12
ATOM     12  C   UNL     1      52.601   9.666  13.637  0.00  0.00    +0.000 A 
ATOM     13  C   UNL     1      53.373   8.527  13.897  0.00  0.00    +0.000 A 
ATOM     14  C   UNL     1      53.018   7.638  14.914  0.00  0.00    +0.000 A 
ATOM     15  C   UNL     1      51.938   7.924  15.744  0.00  0.00    +0.000 A 
ATOM     16  C   UNL     1      51.215   9.101  15.559  0.00  0.00    +0.000 A 
ATOM     17  C   UNL     1      51.538   9.962  14.504  0.00  0.00    +0.000 A 
ENDBRANCH  10  12
ENDBRANCH   7   9
ENDBRANCH   1   7
BRANCH   4  18
ATOM     18  C   UNL     1      46.576   8.339  12.869  0.00  0.00    +0.000 C 
BRANCH  18  19
ATOM     19  N   UNL     1      46.110   6.995  12.647  0.00  0.00    +0.000 N 
ATOM     20  C   UNL     1      45.135   6.741  11.721  0.00  0.00    +0.000 C 
ATOM     21  O   UNL     1      44.651   7.629  11.023  0.00  0.00    +0.000 OA
ATOM     22  H   UNL     1      46.324   6.301  13.359  0.00  0.00    +0.000 HD
BRANCH  20  23
ATOM     23  C   UNL     1      44.728   5.338  11.554  0.00  0.00    +0.000 A 
ATOM     24  C   UNL     1      44.068   4.689  12.589  0.00  0.00    +0.000 A 
ATOM     25  S   UNL     1      43.620   3.086  12.217  0.00  0.00    +0.000 S 
ATOM     26  C   UNL     1      44.341   3.185  10.677  0.00  0.00    +0.000 A 
ATOM     27  N   UNL     1      44.340   2.120   9.834  0.00  0.00    +0.000 NA
ATOM     28  C   UNL     1      44.952   2.321   8.717  0.00  0.00    +0.000 A 
ATOM     29  N   UNL     1      45.563   3.497   8.360  0.00  0.00    +0.000 N 
ATOM     30  C   UNL     1      45.560   4.607   9.165  0.00  0.00    +0.000 A 
ATOM     31  O   UNL     1      46.071   5.662   8.798  0.00  0.00    +0.000 OA
ATOM     32  C   UNL     1      44.897   4.431  10.443  0.00  0.00    +0.000 A 
ATOM     33  H   UNL     1      46.022   3.591   7.467  0.00  0.00    +0.000 HD
ENDBRANCH  20  23
ENDBRANCH  18  19
ENDBRANCH   4  18
TORSDOF 6
ENDMDL
