MODEL 1
REMARK VINA RESULT:    -7.999      0.000      0.000
REMARK INTER + INTRA:         -11.095
REMARK INTER:                 -10.337
REMARK INTRA:                  -0.758
REMARK UNBOUND:                -0.758
REMARK  Name = 
REMARK  5 active torsions:
REMARK  status: ('A' for Active; 'I' for Inactive)
REMARK    1  A    between atoms: C_2  and  C_3
REMARK    2  A    between atoms: C_6  and  O_7
REMARK    3  A    between atoms: O_7  and  C_8
REMARK    4  A    between atoms: C_8  and  C_9
REMARK    5  A    between atoms: C_13  and  C_14
REMARK                            x       y       z     vdW  Elec       q    Type
REMARK                         _______ _______ _______ _____ _____    ______ ____
ROOT
ATOM      1  C   UNL     1      44.841   4.732  11.403  0.00  0.00    +0.000 A 
ATOM      2  C   UNL     1      44.992   3.977  12.556  0.00  0.00    +0.000 A 
ATOM      3  N   UNL     1      45.854   4.283  13.541  0.00  0.00    +0.000 NA
ATOM      4  C   UNL     1      46.600   5.401  13.369  0.00  0.00    +0.000 A 
ATOM      5  C   UNL     1      46.573   6.240  12.252  0.00  0.00    +0.000 A 
ATOM      6  C   UNL     1      45.644   5.873  11.264  0.00  0.00    +0.000 A 
ENDROOT
BRANCH   5   7
ATOM      7  C   UNL     1      47.416   7.465  12.137  0.00  0.00    +0.000 A 
ATOM      8  C   UNL     1      48.800   7.327  11.867  0.00  0.00    +0.000 A 
ATOM      9  C   UNL     1      49.650   8.428  11.726  0.00  0.00    +0.000 A 
ATOM     10  C   UNL     1      49.140   9.714  11.821  0.00  0.00    +0.000 A 
ATOM     11  C   UNL     1      47.787   9.894  12.086  0.00  0.00    +0.000 A 
ATOM     12  C   UNL     1      46.937   8.792  12.268  0.00  0.00    +0.000 A 
ATOM     13 CL   UNL     1      45.315   9.205  12.722  0.00  0.00    +0.000 Cl
ENDBRANCH   5   7
BRANCH   1  14
ATOM     14  C   UNL     1      43.786   4.396  10.386  0.00  0.00    +0.000 C 
BRANCH  14  15
ATOM     15  O   UNL     1      43.844   3.004  10.054  0.00  0.00    +0.000 OA
BRANCH  15  19
ATOM     16  C   UNL     1      46.590   2.230   7.098  0.00  0.00    +0.000 A 
ATOM     17  C   UNL     1      45.969   3.478   7.148  0.00  0.00    +0.000 A 
ATOM     18  C   UNL     1      45.046   3.742   8.161  0.00  0.00    +0.000 A 
ATOM     19  C   UNL     1      44.780   2.740   9.080  0.00  0.00    +0.000 A 
ATOM     20  N   UNL     1      45.379   1.529   9.060  0.00  0.00    +0.000 NA
ATOM     21  C   UNL     1      46.270   1.300   8.072  0.00  0.00    +0.000 A 
BRANCH  16  23
ATOM     22  N   UNL     1      48.279   1.625   5.237  0.00  0.00    +0.000 NA
ATOM     23  C   UNL     1      47.527   1.903   6.070  0.00  0.00    +0.000 C 
ENDBRANCH  16  23
ENDBRANCH  15  19
ENDBRANCH  14  15
ENDBRANCH   1  14
TORSDOF 5
ENDMDL
MODEL 2
REMARK VINA RESULT:    -7.634      1.581      2.076
REMARK INTER + INTRA:         -10.624
REMARK INTER:                  -9.850
REMARK INTRA:                  -0.774
REMARK UNBOUND:                -0.758
REMARK  Name = 
REMARK  5 active torsions:
REMARK  status: ('A' for Active; 'I' for Inactive)
REMARK    1  A    between atoms: C_2  and  C_3
REMARK    2  A    between atoms: C_6  and  O_7
REMARK    3  A    between atoms: O_7  and  C_8
REMARK    4  A    between atoms: C_8  and  C_9
REMARK    5  A    between atoms: C_13  and  C_14
REMARK                            x       y       z     vdW  Elec       q    Type
REMARK                         _______ _______ _______ _____ _____    ______ ____
ROOT
ATOM      1  C   UNL     1      45.694   4.823  12.166  0.00  0.00    +0.000 A 
ATOM      2  C   UNL     1      46.365   4.251  13.235  0.00  0.00    +0.000 A 
ATOM      3  N   UNL     1      47.326   4.878  13.935  0.00  0.00    +0.000 NA
ATOM      4  C   UNL     1      47.630   6.141  13.549  0.00  0.00    +0.000 A 
ATOM      5  C   UNL     1      47.058   6.832  12.478  0.00  0.00    +0.000 A 
ATOM      6  C   UNL     1      46.053   6.127  11.795  0.00  0.00    +0.000 A 
ENDROOT
BRANCH   5   7
ATOM      7  C   UNL     1      47.435   8.229  12.119  0.00  0.00    +0.000 A 
ATOM      8  C   UNL     1      46.452   9.248  12.191  0.00  0.00    +0.000 A 
ATOM      9  C   UNL     1      46.734  10.584  11.888  0.00  0.00    +0.000 A 
ATOM     10  C   UNL     1      48.020  10.957  11.529  0.00  0.00    +0.000 A 
ATOM     11  C   UNL     1      49.013   9.988  11.444  0.00  0.00    +0.000 A 
ATOM     12  C   UNL     1      48.727   8.640  11.709  0.00  0.00    +0.000 A 
ATOM     13 CL   UNL     1      50.051   7.557  11.424  0.00  0.00    +0.000 Cl
ENDBRANCH   5   7
BRANCH   1  14
ATOM     14  C   UNL     1      44.555   4.109  11.491  0.00  0.00    +0.000 C 
BRANCH  14  15
ATOM     15  O   UNL     1      44.370   4.616  10.164  0.00  0.00    +0.000 OA
BRANCH  15  19
ATOM     16  C   UNL     1      46.623   2.519   7.443  0.00  0.00    +0.000 A 
ATOM     17  C   UNL     1      45.877   1.825   8.396  0.00  0.00    +0.000 A 
ATOM     18  C   UNL     1      45.103   2.540   9.311  0.00  0.00    +0.000 A 
ATOM     19  C   UNL     1      45.112   3.923   9.234  0.00  0.00    +0.000 A 
ATOM     20  N   UNL     1      45.814   4.616   8.311  0.00  0.00    +0.000 NA
ATOM     21  C   UNL     1      46.553   3.901   7.436  0.00  0.00    +0.000 A 
BRANCH  16  23
ATOM     22  N   UNL     1      48.101   1.280   5.722  0.00  0.00    +0.000 NA
ATOM     23  C   UNL     1      47.446   1.834   6.497  0.00  0.00    +0.000 C 
ENDBRANCH  16  23
ENDBRANCH  15  19
ENDBRANCH  14  15
ENDBRANCH   1  14
TORSDOF 5
ENDMDL
MODEL 3
REMARK VINA RESULT:    -7.248      1.874      2.264
REMARK INTER + INTRA:         -10.125
REMARK INTER:                  -9.809
REMARK INTRA:                  -0.316
REMARK UNBOUND:                -0.758
REMARK  Name = 
REMARK  5 active torsions:
REMARK  status: ('A' for Active; 'I' for Inactive)
REMARK    1  A    between atoms: C_2  and  C_3
REMARK    2  A    between atoms: C_6  and  O_7
REMARK    3  A    between atoms: O_7  and  C_8
REMARK    4  A    between atoms: C_8  and  C_9
REMARK    5  A    between atoms: C_13  and  C_14
REMARK                            x       y       z     vdW  Elec       q    Type
REMARK                         _______ _______ _______ _____ _____    ______ ____
ROOT
ATOM      1  C   UNL     1      45.475   5.035  11.831  0.00  0.00    +0.000 A 
ATOM      2  C   UNL     1      45.329   3.844  12.526  0.00  0.00    +0.000 A 
ATOM      3  N   UNL     1      46.081   3.503  13.587  0.00  0.00    +0.000 NA
ATOM      4  C   UNL     1      47.022   4.396  13.976  0.00  0.00    +0.000 A 
ATOM      5  C   UNL     1      47.299   5.618  13.357  0.00  0.00    +0.000 A 
ATOM      6  C   UNL     1      46.472   5.921  12.263  0.00  0.00    +0.000 A 
ENDROOT
BRANCH   5   7
ATOM      7  C   UNL     1      48.345   6.559  13.850  0.00  0.00    +0.000 A 
ATOM      8  C   UNL     1      48.611   6.628  15.240  0.00  0.00    +0.000 A 
ATOM      9  C   UNL     1      49.589   7.473  15.775  0.00  0.00    +0.000 A 
ATOM     10  C   UNL     1      50.361   8.260  14.934  0.00  0.00    +0.000 A 
ATOM     11  C   UNL     1      50.131   8.223  13.564  0.00  0.00    +0.000 A 
ATOM     12  C   UNL     1      49.124   7.407  13.025  0.00  0.00    +0.000 A 
ATOM     13 CL   UNL     1      48.892   7.590  11.316  0.00  0.00    +0.000 Cl
ENDBRANCH   5   7
BRANCH   1  14
ATOM     14  C   UNL     1      44.534   5.405  10.718  0.00  0.00    +0.000 C 
BRANCH  14  15
ATOM     15  O   UNL     1      43.978   4.225  10.126  0.00  0.00    +0.000 OA
BRANCH  15  19
ATOM     16  C   UNL     1      46.558   2.498   7.435  0.00  0.00    +0.000 A 
ATOM     17  C   UNL     1      45.884   1.693   8.355  0.00  0.00    +0.000 A 
ATOM     18  C   UNL     1      44.999   2.282   9.259  0.00  0.00    +0.000 A 
ATOM     19  C   UNL     1      44.829   3.655   9.207  0.00  0.00    +0.000 A 
ATOM     20  N   UNL     1      45.459   4.453   8.317  0.00  0.00    +0.000 NA
ATOM     21  C   UNL     1      46.308   3.859   7.451  0.00  0.00    +0.000 A 
BRANCH  16  23
ATOM     22  N   UNL     1      48.252   1.498   5.759  0.00  0.00    +0.000 NA
ATOM     23  C   UNL     1      47.489   1.947   6.502  0.00  0.00    +0.000 C 
ENDBRANCH  16  23
ENDBRANCH  15  19
ENDBRANCH  14  15
ENDBRANCH   1  14
TORSDOF 5
ENDMDL
MODEL 4
REMARK VINA RESULT:    -7.185      1.663      1.998
REMARK INTER + INTRA:         -10.043
REMARK INTER:                  -9.286
REMARK INTRA:                  -0.757
REMARK UNBOUND:                -0.758
REMARK  Name = 
REMARK  5 active torsions:
REMARK  status: ('A' for Active; 'I' for Inactive)
REMARK    1  A    between atoms: C_2  and  C_3
REMARK    2  A    between atoms: C_6  and  O_7
REMARK    3  A    between atoms: O_7  and  C_8
REMARK    4  A    between atoms: C_8  and  C_9
REMARK    5  A    between atoms: C_13  and  C_14
REMARK                            x       y       z     vdW  Elec       q    Type
REMARK                         _______ _______ _______ _____ _____    ______ ____
ROOT
ATOM      1  C   UNL     1      44.785   5.270  11.634  0.00  0.00    +0.000 A 
ATOM      2  C   UNL     1      43.903   6.310  11.383  0.00  0.00    +0.000 A 
ATOM      3  N   UNL     1      44.236   7.609  11.469  0.00  0.00    +0.000 NA
ATOM      4  C   UNL     1      45.516   7.885  11.820  0.00  0.00    +0.000 A 
ATOM      5  C   UNL     1      46.503   6.945  12.127  0.00  0.00    +0.000 A 
ATOM      6  C   UNL     1      46.095   5.605  12.007  0.00  0.00    +0.000 A 
ENDROOT
BRANCH   5   7
ATOM      7  C   UNL     1      47.898   7.322  12.494  0.00  0.00    +0.000 A 
ATOM      8  C   UNL     1      48.670   8.080  11.580  0.00  0.00    +0.000 A 
ATOM      9  C   UNL     1      49.978   8.488  11.860  0.00  0.00    +0.000 A 
ATOM     10  C   UNL     1      50.554   8.176  13.082  0.00  0.00    +0.000 A 
ATOM     11  C   UNL     1      49.831   7.431  14.007  0.00  0.00    +0.000 A 
ATOM     12  C   UNL     1      48.533   6.987  13.715  0.00  0.00    +0.000 A 
ATOM     13 CL   UNL     1      47.837   5.961  14.929  0.00  0.00    +0.000 Cl
ENDBRANCH   5   7
BRANCH   1  14
ATOM     14  C   UNL     1      44.381   3.838  11.418  0.00  0.00    +0.000 C 
BRANCH  14  15
ATOM     15  O   UNL     1      43.823   3.673  10.110  0.00  0.00    +0.000 OA
BRANCH  15  19
ATOM     16  C   UNL     1      46.547   2.312   7.352  0.00  0.00    +0.000 A 
ATOM     17  C   UNL     1      46.216   3.667   7.380  0.00  0.00    +0.000 A 
ATOM     18  C   UNL     1      45.301   4.128   8.326  0.00  0.00    +0.000 A 
ATOM     19  C   UNL     1      44.749   3.209   9.204  0.00  0.00    +0.000 A 
ATOM     20  N   UNL     1      45.064   1.895   9.206  0.00  0.00    +0.000 NA
ATOM     21  C   UNL     1      45.955   1.475   8.282  0.00  0.00    +0.000 A 
BRANCH  16  23
ATOM     22  N   UNL     1      48.217   1.365   5.621  0.00  0.00    +0.000 NA
ATOM     23  C   UNL     1      47.464   1.786   6.391  0.00  0.00    +0.000 C 
ENDBRANCH  16  23
ENDBRANCH  15  19
ENDBRANCH  14  15
ENDBRANCH   1  14
TORSDOF 5
ENDMDL
MODEL 5
REMARK VINA RESULT:    -7.061      2.536      3.825
REMARK INTER + INTRA:          -9.883
REMARK INTER:                  -9.702
REMARK INTRA:                  -0.181
REMARK UNBOUND:                -0.758
REMARK  Name = 
REMARK  5 active torsions:
REMARK  status: ('A' for Active; 'I' for Inactive)
REMARK    1  A    between atoms: C_2  and  C_3
REMARK    2  A    between atoms: C_6  and  O_7
REMARK    3  A    between atoms: O_7  and  C_8
REMARK    4  A    between atoms: C_8  and  C_9
REMARK    5  A    between atoms: C_13  and  C_14
REMARK                            x       y       z     vdW  Elec       q    Type
REMARK                         _______ _______ _______ _____ _____    ______ ____
ROOT
ATOM      1  C   UNL     1      45.467   5.000  12.113  0.00  0.00    +0.000 A 
ATOM      2  C   UNL     1      45.992   6.142  11.529  0.00  0.00    +0.000 A 
ATOM      3  N   UNL     1      46.978   6.874  12.073  0.00  0.00    +0.000 NA
ATOM      4  C   UNL     1      47.469   6.443  13.261  0.00  0.00    +0.000 A 
ATOM      5  C   UNL     1      47.022   5.330  13.977  0.00  0.00    +0.000 A 
ATOM      6  C   UNL     1      45.998   4.600  13.348  0.00  0.00    +0.000 A 
ENDROOT
BRANCH   5   7
ATOM      7  C   UNL     1      47.619   4.905  15.275  0.00  0.00    +0.000 A 
ATOM      8  C   UNL     1      47.368   3.596  15.754  0.00  0.00    +0.000 A 
ATOM      9  C   UNL     1      47.908   3.119  16.954  0.00  0.00    +0.000 A 
ATOM     10  C   UNL     1      48.747   3.928  17.705  0.00  0.00    +0.000 A 
ATOM     11  C   UNL     1      49.018   5.221  17.271  0.00  0.00    +0.000 A 
ATOM     12  C   UNL     1      48.447   5.717  16.089  0.00  0.00    +0.000 A 
ATOM     13 CL   UNL     1      48.789   7.388  15.775  0.00  0.00    +0.000 Cl
ENDBRANCH   5   7
BRANCH   1  14
ATOM     14  C   UNL     1      44.438   4.165  11.403  0.00  0.00    +0.000 C 
BRANCH  14  15
ATOM     15  O   UNL     1      44.262   4.632  10.060  0.00  0.00    +0.000 OA
BRANCH  15  19
ATOM     16  C   UNL     1      46.583   2.498   7.427  0.00  0.00    +0.000 A 
ATOM     17  C   UNL     1      45.858   1.821   8.408  0.00  0.00    +0.000 A 
ATOM     18  C   UNL     1      45.061   2.548   9.293  0.00  0.00    +0.000 A 
ATOM     19  C   UNL     1      45.027   3.927   9.160  0.00  0.00    +0.000 A 
ATOM     20  N   UNL     1      45.708   4.603   8.210  0.00  0.00    +0.000 NA
ATOM     21  C   UNL     1      46.471   3.877   7.365  0.00  0.00    +0.000 A 
BRANCH  16  23
ATOM     22  N   UNL     1      48.124   1.251   5.769  0.00  0.00    +0.000 NA
ATOM     23  C   UNL     1      47.430   1.802   6.511  0.00  0.00    +0.000 C 
ENDBRANCH  16  23
ENDBRANCH  15  19
ENDBRANCH  14  15
ENDBRANCH   1  14
TORSDOF 5
ENDMDL
MODEL 6
REMARK VINA RESULT:    -6.613      3.833      8.086
REMARK INTER + INTRA:          -9.305
REMARK INTER:                  -8.578
REMARK INTRA:                  -0.727
REMARK UNBOUND:                -0.758
REMARK  Name = 
REMARK  5 active torsions:
REMARK  status: ('A' for Active; 'I' for Inactive)
REMARK    1  A    between atoms: C_2  and  C_3
REMARK    2  A    between atoms: C_6  and  O_7
REMARK    3  A    between atoms: O_7  and  C_8
REMARK    4  A    between atoms: C_8  and  C_9
REMARK    5  A    between atoms: C_13  and  C_14
REMARK                            x       y       z     vdW  Elec       q    Type
REMARK                         _______ _______ _______ _____ _____    ______ ____
ROOT
ATOM      1  C   UNL     1      46.697   6.875  13.028  0.00  0.00    +0.000 A 
ATOM      2  C   UNL     1      45.881   7.987  12.899  0.00  0.00    +0.000 A 
ATOM      3  N   UNL     1      44.878   8.079  12.009  0.00  0.00    +0.000 NA
ATOM      4  C   UNL     1      44.678   7.003  11.209  0.00  0.00    +0.000 A 
ATOM      5  C   UNL     1      45.435   5.829  11.208  0.00  0.00    +0.000 A 
ATOM      6  C   UNL     1      46.460   5.791  12.170  0.00  0.00    +0.000 A 
ENDROOT
BRANCH   5   7
ATOM      7  C   UNL     1      45.148   4.677  10.306  0.00  0.00    +0.000 A 
ATOM      8  C   UNL     1      45.518   4.762   8.941  0.00  0.00    +0.000 A 
ATOM      9  C   UNL     1      45.299   3.716   8.038  0.00  0.00    +0.000 A 
ATOM     10  C   UNL     1      44.726   2.531   8.476  0.00  0.00    +0.000 A 
ATOM     11  C   UNL     1      44.347   2.408   9.808  0.00  0.00    +0.000 A 
ATOM     12  C   UNL     1      44.528   3.469  10.708  0.00  0.00    +0.000 A 
ATOM     13 CL   UNL     1      43.875   3.185  12.290  0.00  0.00    +0.000 Cl
ENDBRANCH   5   7
BRANCH   1  14
ATOM     14  C   UNL     1      47.734   6.792  14.114  0.00  0.00    +0.000 C 
BRANCH  14  15
ATOM     15  O   UNL     1      48.076   5.425  14.370  0.00  0.00    +0.000 OA
BRANCH  15  19
ATOM     16  C   UNL     1      48.370   4.667  18.397  0.00  0.00    +0.000 A 
ATOM     17  C   UNL     1      47.358   4.058  17.656  0.00  0.00    +0.000 A 
ATOM     18  C   UNL     1      47.268   4.308  16.286  0.00  0.00    +0.000 A 
ATOM     19  C   UNL     1      48.197   5.163  15.716  0.00  0.00    +0.000 A 
ATOM     20  N   UNL     1      49.194   5.753  16.410  0.00  0.00    +0.000 NA
ATOM     21  C   UNL     1      49.260   5.494  17.733  0.00  0.00    +0.000 A 
BRANCH  16  23
ATOM     22  N   UNL     1      48.582   4.281  20.944  0.00  0.00    +0.000 NA
ATOM     23  C   UNL     1      48.493   4.460  19.805  0.00  0.00    +0.000 C 
ENDBRANCH  16  23
ENDBRANCH  15  19
ENDBRANCH  14  15
ENDBRANCH   1  14
TORSDOF 5
ENDMDL
MODEL 7
REMARK VINA RESULT:    -6.289      1.698      1.997
REMARK INTER + INTRA:          -8.886
REMARK INTER:                  -8.267
REMARK INTRA:                  -0.619
REMARK UNBOUND:                -0.758
REMARK  Name = 
REMARK  5 active torsions:
REMARK  status: ('A' for Active; 'I' for Inactive)
REMARK    1  A    between atoms: C_2  and  C_3
REMARK    2  A    between atoms: C_6  and  O_7
REMARK    3  A    between atoms: O_7  and  C_8
REMARK    4  A    between atoms: C_8  and  C_9
REMARK    5  A    between atoms: C_13  and  C_14
REMARK                            x       y       z     vdW  Elec       q    Type
REMARK                         _______ _______ _______ _____ _____    ______ ____
ROOT
ATOM      1  C   UNL     1      45.054   4.676  10.694  0.00  0.00    +0.000 A 
ATOM      2  C   UNL     1      44.155   4.243  11.656  0.00  0.00    +0.000 A 
ATOM      3  N   UNL     1      44.012   4.824  12.859  0.00  0.00    +0.000 NA
ATOM      4  C   UNL     1      44.804   5.893  13.115  0.00  0.00    +0.000 A 
ATOM      5  C   UNL     1      45.771   6.421  12.255  0.00  0.00    +0.000 A 
ATOM      6  C   UNL     1      45.863   5.778  11.009  0.00  0.00    +0.000 A 
ENDROOT
BRANCH   5   7
ATOM      7  C   UNL     1      46.600   7.612  12.598  0.00  0.00    +0.000 A 
ATOM      8  C   UNL     1      46.385   8.826  11.901  0.00  0.00    +0.000 A 
ATOM      9  C   UNL     1      47.109   9.990  12.180  0.00  0.00    +0.000 A 
ATOM     10  C   UNL     1      48.059   9.989  13.191  0.00  0.00    +0.000 A 
ATOM     11  C   UNL     1      48.302   8.818  13.898  0.00  0.00    +0.000 A 
ATOM     12  C   UNL     1      47.606   7.638  13.596  0.00  0.00    +0.000 A 
ATOM     13 CL   UNL     1      48.134   6.246  14.487  0.00  0.00    +0.000 Cl
ENDBRANCH   5   7
BRANCH   1  14
ATOM     14  C   UNL     1      45.093   4.049   9.328  0.00  0.00    +0.000 C 
BRANCH  14  15
ATOM     15  O   UNL     1      45.742   2.773   9.386  0.00  0.00    +0.000 OA
BRANCH  15  19
ATOM     16  C   UNL     1      46.890   1.495   5.654  0.00  0.00    +0.000 A 
ATOM     17  C   UNL     1      46.492   2.820   5.834  0.00  0.00    +0.000 A 
ATOM     18  C   UNL     1      46.114   3.254   7.105  0.00  0.00    +0.000 A 
ATOM     19  C   UNL     1      46.148   2.340   8.145  0.00  0.00    +0.000 A 
ATOM     20  N   UNL     1      46.543   1.056   7.998  0.00  0.00    +0.000 NA
ATOM     21  C   UNL     1      46.906   0.661   6.759  0.00  0.00    +0.000 A 
BRANCH  16  23
ATOM     22  N   UNL     1      47.569   0.579   3.335  0.00  0.00    +0.000 NA
ATOM     23  C   UNL     1      47.267   0.997   4.370  0.00  0.00    +0.000 C 
ENDBRANCH  16  23
ENDBRANCH  15  19
ENDBRANCH  14  15
ENDBRANCH   1  14
TORSDOF 5
ENDMDL
MODEL 8
REMARK VINA RESULT:    -6.001      4.433      7.810
REMARK INTER + INTRA:          -8.513
REMARK INTER:                  -7.847
REMARK INTRA:                  -0.666
REMARK UNBOUND:                -0.758
REMARK  Name = 
REMARK  5 active torsions:
REMARK  status: ('A' for Active; 'I' for Inactive)
REMARK    1  A    between atoms: C_2  and  C_3
REMARK    2  A    between atoms: C_6  and  O_7
REMARK    3  A    between atoms: O_7  and  C_8
REMARK    4  A    between atoms: C_8  and  C_9
REMARK    5  A    between atoms: C_13  and  C_14
REMARK                            x       y       z     vdW  Elec       q    Type
REMARK                         _______ _______ _______ _____ _____    ______ ____
ROOT
ATOM      1  C   UNL     1      48.563   6.676  14.325  0.00  0.00    +0.000 A 
ATOM      2  C   UNL     1      49.217   7.376  13.323  0.00  0.00    +0.000 A 
ATOM      3  N   UNL     1      48.770   7.465  12.059  0.00  0.00    +0.000 NA
ATOM      4  C   UNL     1      47.608   6.826  11.781  0.00  0.00    +0.000 A 
ATOM      5  C   UNL     1      46.856   6.064  12.679  0.00  0.00    +0.000 A 
ATOM      6  C   UNL     1      47.371   6.019  13.986  0.00  0.00    +0.000 A 
ENDROOT
BRANCH   5   7
ATOM      7  C   UNL     1      45.576   5.397  12.305  0.00  0.00    +0.000 A 
ATOM      8  C   UNL     1      45.447   3.998  12.488  0.00  0.00    +0.000 A 
ATOM      9  C   UNL     1      44.272   3.306  12.179  0.00  0.00    +0.000 A 
ATOM     10  C   UNL     1      43.167   3.995  11.701  0.00  0.00    +0.000 A 
ATOM     11  C   UNL     1      43.252   5.368  11.505  0.00  0.00    +0.000 A 
ATOM     12  C   UNL     1      44.442   6.061  11.776  0.00  0.00    +0.000 A 
ATOM     13 CL   UNL     1      44.405   7.741  11.346  0.00  0.00    +0.000 Cl
ENDBRANCH   5   7
BRANCH   1  14
ATOM     14  C   UNL     1      49.059   6.701  15.744  0.00  0.00    +0.000 C 
BRANCH  14  15
ATOM     15  O   UNL     1      48.374   5.716  16.526  0.00  0.00    +0.000 OA
BRANCH  15  19
ATOM     16  C   UNL     1      50.856   2.584  17.480  0.00  0.00    +0.000 A 
ATOM     17  C   UNL     1      51.308   3.894  17.646  0.00  0.00    +0.000 A 
ATOM     18  C   UNL     1      50.458   4.955  17.333  0.00  0.00    +0.000 A 
ATOM     19  C   UNL     1      49.189   4.659  16.862  0.00  0.00    +0.000 A 
ATOM     20  N   UNL     1      48.725   3.400  16.707  0.00  0.00    +0.000 NA
ATOM     21  C   UNL     1      49.566   2.391  17.019  0.00  0.00    +0.000 A 
BRANCH  16  23
ATOM     22  N   UNL     1      52.373   0.553  17.986  0.00  0.00    +0.000 NA
ATOM     23  C   UNL     1      51.694   1.464  17.768  0.00  0.00    +0.000 C 
ENDBRANCH  16  23
ENDBRANCH  15  19
ENDBRANCH  14  15
ENDBRANCH   1  14
TORSDOF 5
ENDMDL
MODEL 9
REMARK VINA RESULT:    -5.919      3.659      7.395
REMARK INTER + INTRA:          -8.408
REMARK INTER:                  -7.531
REMARK INTRA:                  -0.876
REMARK UNBOUND:                -0.758
REMARK  Name = 
REMARK  5 active torsions:
REMARK  status: ('A' for Active; 'I' for Inactive)
REMARK    1  A    between atoms: C_2  and  C_3
REMARK    2  A    between atoms: C_6  and  O_7
REMARK    3  A    between atoms: O_7  and  C_8
REMARK    4  A    between atoms: C_8  and  C_9
REMARK    5  A    between atoms: C_13  and  C_14
REMARK                            x       y       z     vdW  Elec       q    Type
REMARK                         _______ _______ _______ _____ _____    ______ ____
ROOT
ATOM      1  C   UNL     1      46.813   6.888  12.989  0.00  0.00    +0.000 A 
ATOM      2  C   UNL     1      45.959   7.977  12.923  0.00  0.00    +0.000 A 
ATOM      3  N   UNL     1      44.906   8.051  12.090  0.00  0.00    +0.000 NA
ATOM      4  C   UNL     1      44.694   6.982  11.284  0.00  0.00    +0.000 A 
ATOM      5  C   UNL     1      45.485   5.831  11.223  0.00  0.00    +0.000 A 
ATOM      6  C   UNL     1      46.561   5.811  12.127  0.00  0.00    +0.000 A 
ENDROOT
BRANCH   5   7
ATOM      7  C   UNL     1      45.183   4.685  10.319  0.00  0.00    +0.000 A 
ATOM      8  C   UNL     1      45.544   4.772   8.952  0.00  0.00    +0.000 A 
ATOM      9  C   UNL     1      45.310   3.731   8.047  0.00  0.00    +0.000 A 
ATOM     10  C   UNL     1      44.733   2.549   8.485  0.00  0.00    +0.000 A 
ATOM     11  C   UNL     1      44.363   2.423   9.819  0.00  0.00    +0.000 A 
ATOM     12  C   UNL     1      44.558   3.479  10.722  0.00  0.00    +0.000 A 
ATOM     13 CL   UNL     1      43.915   3.194  12.307  0.00  0.00    +0.000 Cl
ENDBRANCH   5   7
BRANCH   1  14
ATOM     14  C   UNL     1      47.910   6.821  14.016  0.00  0.00    +0.000 C 
BRANCH  14  15
ATOM     15  O   UNL     1      49.168   6.568  13.380  0.00  0.00    +0.000 OA
BRANCH  15  19
ATOM     16  C   UNL     1      50.923   9.956  11.858  0.00  0.00    +0.000 A 
ATOM     17  C   UNL     1      50.864   8.803  11.076  0.00  0.00    +0.000 A 
ATOM     18  C   UNL     1      50.256   7.657  11.591  0.00  0.00    +0.000 A 
ATOM     19  C   UNL     1      49.735   7.714  12.873  0.00  0.00    +0.000 A 
ATOM     20  N   UNL     1      49.768   8.823  13.644  0.00  0.00    +0.000 NA
ATOM     21  C   UNL     1      50.359   9.919  13.122  0.00  0.00    +0.000 A 
BRANCH  16  23
ATOM     22  N   UNL     1      52.052  12.121  11.010  0.00  0.00    +0.000 NA
ATOM     23  C   UNL     1      51.552  11.148  11.385  0.00  0.00    +0.000 C 
ENDBRANCH  16  23
ENDBRANCH  15  19
ENDBRANCH  14  15
ENDBRANCH   1  14
TORSDOF 5
ENDMDL
