MODEL 1
REMARK VINA RESULT:    -8.458      0.000      0.000
REMARK INTER + INTRA:         -13.767
REMARK INTER:                 -12.414
REMARK INTRA:                  -1.353
REMARK UNBOUND:                -1.353
REMARK  Name = 
REMARK  8 active torsions:
REMARK  status: ('A' for Active; 'I' for Inactive)
REMARK    1  A    between atoms: C_2  and  C_4
REMARK    2  A    between atoms: C_8  and  C_9
REMARK    3  A    between atoms: C_9  and  N_10
REMARK    4  A    between atoms: N_10  and  C_11
REMARK    5  A    between atoms: C_11  and  C_12
REMARK    6  A    between atoms: C_15  and  C_16
REMARK    7  A    between atoms: C_16  and  N_17
REMARK    8  A    between atoms: C_18  and  C_20
REMARK                            x       y       z     vdW  Elec       q    Type
REMARK                         _______ _______ _______ _____ _____    ______ ____
ROOT
ATOM      1  C   UNL     1      44.532   5.112  12.755  0.00  0.00    +0.000 A 
ATOM      2  C   UNL     1      45.600   4.376  13.289  0.00  0.00    +0.000 A 
ATOM      3  C   UNL     1      46.811   4.999  13.596  0.00  0.00    +0.000 A 
ATOM      4  C   UNL     1      46.974   6.372  13.378  0.00  0.00    +0.000 A 
ATOM      5  C   UNL     1      45.922   7.099  12.803  0.00  0.00    +0.000 A 
ATOM      6  C   UNL     1      44.710   6.476  12.499  0.00  0.00    +0.000 A 
ENDROOT
BRANCH   1   7
ATOM      7  C   UNL     1      43.201   4.448  12.490  0.00  0.00    +0.000 C 
BRANCH   7   8
ATOM      8  N   UNL     1      43.043   4.025  11.100  0.00  0.00    +0.000 NA
ATOM      9  H   UNL     1      42.054   3.869  10.913  0.00  0.00    +0.000 HD
BRANCH   8  10
ATOM     10  C   UNL     1      43.771   2.790  10.801  0.00  0.00    +0.000 C 
BRANCH  10  15
ATOM     11  C   UNL     1      46.321   2.206   8.030  0.00  0.00    +0.000 A 
ATOM     12  C   UNL     1      46.459   3.496   7.503  0.00  0.00    +0.000 A 
ATOM     13  C   UNL     1      45.764   4.562   8.079  0.00  0.00    +0.000 A 
ATOM     14  C   UNL     1      44.920   4.341   9.168  0.00  0.00    +0.000 A 
ATOM     15  C   UNL     1      44.767   3.053   9.699  0.00  0.00    +0.000 A 
ATOM     16  C   UNL     1      45.478   1.990   9.126  0.00  0.00    +0.000 A 
BRANCH  11  18
ATOM     17  N   UNL     1      47.935   1.259   6.465  0.00  0.00    +0.000 N 
ATOM     18  C   UNL     1      46.994   1.026   7.428  0.00  0.00    +0.000 C 
ATOM     19  O   UNL     1      46.743  -0.114   7.796  0.00  0.00    +0.000 OA
ATOM     20  H   UNL     1      48.447   0.451   6.137  0.00  0.00    +0.000 HD
ATOM     21  H   UNL     1      48.340   2.170   6.311  0.00  0.00    +0.000 HD
ENDBRANCH  11  18
ENDBRANCH  10  15
ENDBRANCH   8  10
ENDBRANCH   7   8
ENDBRANCH   1   7
BRANCH   4  22
ATOM     22  C   UNL     1      48.275   7.054  13.705  0.00  0.00    +0.000 C 
BRANCH  22  23
ATOM     23  N   UNL     1      48.277   7.526  15.063  0.00  0.00    +0.000 N 
ATOM     24  C   UNL     1      48.900   6.827  16.061  0.00  0.00    +0.000 C 
ATOM     25  O   UNL     1      49.519   5.790  15.840  0.00  0.00    +0.000 OA
ATOM     26  H   UNL     1      47.609   8.253  15.296  0.00  0.00    +0.000 HD
BRANCH  24  27
ATOM     27  C   UNL     1      48.841   7.416  17.404  0.00  0.00    +0.000 A 
ATOM     28  C   UNL     1      49.435   8.649  17.638  0.00  0.00    +0.000 A 
ATOM     29  S   UNL     1      49.233   9.211  19.235  0.00  0.00    +0.000 S 
ATOM     30  C   UNL     1      48.388   7.804  19.684  0.00  0.00    +0.000 A 
ATOM     31  N   UNL     1      47.940   7.634  20.957  0.00  0.00    +0.000 NA
ATOM     32  C   UNL     1      47.340   6.512  21.165  0.00  0.00    +0.000 A 
ATOM     33  N   UNL     1      47.141   5.544  20.214  0.00  0.00    +0.000 N 
ATOM     34  C   UNL     1      47.555   5.681  18.911  0.00  0.00    +0.000 A 
ATOM     35  O   UNL     1      47.329   4.810  18.078  0.00  0.00    +0.000 OA
ATOM     36  C   UNL     1      48.246   6.925  18.625  0.00  0.00    +0.000 A 
ATOM     37  H   UNL     1      46.656   4.689  20.440  0.00  0.00    +0.000 HD
ENDBRANCH  24  27
ENDBRANCH  22  23
ENDBRANCH   4  22
TORSDOF 8
ENDMDL
MODEL 2
REMARK VINA RESULT:    -8.080      2.094      2.377
REMARK INTER + INTRA:         -13.212
REMARK INTER:                 -11.572
REMARK INTRA:                  -1.640
REMARK UNBOUND:                -1.353
REMARK  Name = 
REMARK  8 active torsions:
REMARK  status: ('A' for Active; 'I' for Inactive)
REMARK    1  A    between atoms: C_2  and  C_4
REMARK    2  A    between atoms: C_8  and  C_9
REMARK    3  A    between atoms: C_9  and  N_10
REMARK    4  A    between atoms: N_10  and  C_11
REMARK    5  A    between atoms: C_11  and  C_12
REMARK    6  A    between atoms: C_15  and  C_16
REMARK    7  A    between atoms: C_16  and  N_17
REMARK    8  A    between atoms: C_18  and  C_20
REMARK                            x       y       z     vdW  Elec       q    Type
REMARK                         _______ _______ _______ _____ _____    ______ ____
ROOT
ATOM      1  C   UNL     1      44.722   5.143  12.667  0.00  0.00    +0.000 A 
ATOM      2  C   UNL     1      45.929   4.615  13.151  0.00  0.00    +0.000 A 
ATOM      3  C   UNL     1      47.068   5.417  13.249  0.00  0.00    +0.000 A 
ATOM      4  C   UNL     1      47.018   6.763  12.869  0.00  0.00    +0.000 A 
ATOM      5  C   UNL     1      45.826   7.279  12.344  0.00  0.00    +0.000 A 
ATOM      6  C   UNL     1      44.686   6.478  12.249  0.00  0.00    +0.000 A 
ENDROOT
BRANCH   1   7
ATOM      7  C   UNL     1      43.475   4.291  12.629  0.00  0.00    +0.000 C 
BRANCH   7   8
ATOM      8  N   UNL     1      43.079   3.923  11.270  0.00  0.00    +0.000 NA
ATOM      9  H   UNL     1      42.068   3.813  11.240  0.00  0.00    +0.000 HD
BRANCH   8  10
ATOM     10  C   UNL     1      43.695   2.672  10.825  0.00  0.00    +0.000 C 
BRANCH  10  15
ATOM     11  C   UNL     1      46.243   2.166   8.036  0.00  0.00    +0.000 A 
ATOM     12  C   UNL     1      46.330   3.459   7.503  0.00  0.00    +0.000 A 
ATOM     13  C   UNL     1      45.603   4.501   8.079  0.00  0.00    +0.000 A 
ATOM     14  C   UNL     1      44.776   4.256   9.176  0.00  0.00    +0.000 A 
ATOM     15  C   UNL     1      44.672   2.965   9.714  0.00  0.00    +0.000 A 
ATOM     16  C   UNL     1      45.417   1.926   9.139  0.00  0.00    +0.000 A 
BRANCH  11  18
ATOM     17  N   UNL     1      47.877   1.271   6.461  0.00  0.00    +0.000 N 
ATOM     18  C   UNL     1      46.953   1.009   7.434  0.00  0.00    +0.000 C 
ATOM     19  O   UNL     1      46.746  -0.138   7.809  0.00  0.00    +0.000 OA
ATOM     20  H   UNL     1      48.414   0.480   6.133  0.00  0.00    +0.000 HD
ATOM     21  H   UNL     1      48.248   2.195   6.300  0.00  0.00    +0.000 HD
ENDBRANCH  11  18
ENDBRANCH  10  15
ENDBRANCH   8  10
ENDBRANCH   7   8
ENDBRANCH   1   7
BRANCH   4  22
ATOM     22  C   UNL     1      48.240   7.636  12.971  0.00  0.00    +0.000 C 
BRANCH  22  23
ATOM     23  N   UNL     1      49.217   7.048  13.849  0.00  0.00    +0.000 N 
ATOM     24  C   UNL     1      49.813   7.777  14.842  0.00  0.00    +0.000 C 
ATOM     25  O   UNL     1      49.515   8.949  15.058  0.00  0.00    +0.000 OA
ATOM     26  H   UNL     1      49.620   6.164  13.559  0.00  0.00    +0.000 HD
BRANCH  24  27
ATOM     27  C   UNL     1      50.785   7.064  15.678  0.00  0.00    +0.000 A 
ATOM     28  C   UNL     1      52.134   7.378  15.581  0.00  0.00    +0.000 A 
ATOM     29  S   UNL     1      53.120   6.494  16.655  0.00  0.00    +0.000 S 
ATOM     30  C   UNL     1      51.786   5.624  17.254  0.00  0.00    +0.000 A 
ATOM     31  N   UNL     1      51.946   4.666  18.206  0.00  0.00    +0.000 NA
ATOM     32  C   UNL     1      50.856   4.067  18.549  0.00  0.00    +0.000 A 
ATOM     33  N   UNL     1      49.618   4.342  18.029  0.00  0.00    +0.000 N 
ATOM     34  C   UNL     1      49.403   5.316  17.083  0.00  0.00    +0.000 A 
ATOM     35  O   UNL     1      48.276   5.560  16.666  0.00  0.00    +0.000 OA
ATOM     36  C   UNL     1      50.601   6.015  16.655  0.00  0.00    +0.000 A 
ATOM     37  H   UNL     1      48.800   3.843  18.346  0.00  0.00    +0.000 HD
ENDBRANCH  24  27
ENDBRANCH  22  23
ENDBRANCH   4  22
TORSDOF 8
ENDMDL
MODEL 3
REMARK VINA RESULT:    -7.971      1.343      1.648
REMARK INTER + INTRA:         -13.052
REMARK INTER:                 -11.754
REMARK INTRA:                  -1.298
REMARK UNBOUND:                -1.353
REMARK  Name = 
REMARK  8 active torsions:
REMARK  status: ('A' for Active; 'I' for Inactive)
REMARK    1  A    between atoms: C_2  and  C_4
REMARK    2  A    between atoms: C_8  and  C_9
REMARK    3  A    between atoms: C_9  and  N_10
REMARK    4  A    between atoms: N_10  and  C_11
REMARK    5  A    between atoms: C_11  and  C_12
REMARK    6  A    between atoms: C_15  and  C_16
REMARK    7  A    between atoms: C_16  and  N_17
REMARK    8  A    between atoms: C_18  and  C_20
REMARK                            x       y       z     vdW  Elec       q    Type
REMARK                         _______ _______ _______ _____ _____    ______ ____
ROOT
ATOM      1  C   UNL     1      44.429   5.332  12.375  0.00  0.00    +0.000 A 
ATOM      2  C   UNL     1      45.159   4.435  13.170  0.00  0.00    +0.000 A 
ATOM      3  C   UNL     1      46.359   4.826  13.766  0.00  0.00    +0.000 A 
ATOM      4  C   UNL     1      46.849   6.123  13.581  0.00  0.00    +0.000 A 
ATOM      5  C   UNL     1      46.144   7.006  12.752  0.00  0.00    +0.000 A 
ATOM      6  C   UNL     1      44.942   6.616  12.158  0.00  0.00    +0.000 A 
ENDROOT
BRANCH   1   7
ATOM      7  C   UNL     1      43.096   4.928  11.791  0.00  0.00    +0.000 C 
BRANCH   7   8
ATOM      8  N   UNL     1      43.205   4.420  10.424  0.00  0.00    +0.000 NA
ATOM      9  H   UNL     1      42.270   4.306  10.039  0.00  0.00    +0.000 HD
BRANCH   8  10
ATOM     10  C   UNL     1      43.894   3.130  10.358  0.00  0.00    +0.000 C 
BRANCH  10  15
ATOM     11  C   UNL     1      46.501   2.094   7.777  0.00  0.00    +0.000 A 
ATOM     12  C   UNL     1      46.908   3.339   7.280  0.00  0.00    +0.000 A 
ATOM     13  C   UNL     1      46.374   4.512   7.815  0.00  0.00    +0.000 A 
ATOM     14  C   UNL     1      45.424   4.448   8.835  0.00  0.00    +0.000 A 
ATOM     15  C   UNL     1      45.002   3.208   9.337  0.00  0.00    +0.000 A 
ATOM     16  C   UNL     1      45.552   2.035   8.804  0.00  0.00    +0.000 A 
BRANCH  11  18
ATOM     17  N   UNL     1      47.693   0.867   6.038  0.00  0.00    +0.000 N 
ATOM     18  C   UNL     1      46.995   0.812   7.212  0.00  0.00    +0.000 C 
ATOM     19  O   UNL     1      46.814  -0.255   7.785  0.00  0.00    +0.000 OA
ATOM     20  H   UNL     1      48.100  -0.003   5.721  0.00  0.00    +0.000 HD
ATOM     21  H   UNL     1      48.068   1.728   5.670  0.00  0.00    +0.000 HD
ENDBRANCH  11  18
ENDBRANCH  10  15
ENDBRANCH   8  10
ENDBRANCH   7   8
ENDBRANCH   1   7
BRANCH   4  22
ATOM     22  C   UNL     1      48.143   6.555  14.218  0.00  0.00    +0.000 C 
BRANCH  22  23
ATOM     23  N   UNL     1      48.060   6.470  15.652  0.00  0.00    +0.000 N 
ATOM     24  C   UNL     1      49.172   6.259  16.420  0.00  0.00    +0.000 C 
ATOM     25  O   UNL     1      50.295   6.175  15.930  0.00  0.00    +0.000 OA
ATOM     26  H   UNL     1      47.137   6.329  16.049  0.00  0.00    +0.000 HD
BRANCH  24  27
ATOM     27  C   UNL     1      48.961   6.201  17.871  0.00  0.00    +0.000 A 
ATOM     28  C   UNL     1      49.310   5.053  18.570  0.00  0.00    +0.000 A 
ATOM     29  S   UNL     1      49.046   5.170  20.250  0.00  0.00    +0.000 S 
ATOM     30  C   UNL     1      48.408   6.740  20.098  0.00  0.00    +0.000 A 
ATOM     31  N   UNL     1      47.959   7.421  21.187  0.00  0.00    +0.000 NA
ATOM     32  C   UNL     1      47.477   8.588  20.925  0.00  0.00    +0.000 A 
ATOM     33  N   UNL     1      47.407   9.140  19.672  0.00  0.00    +0.000 N 
ATOM     34  C   UNL     1      47.868   8.501  18.546  0.00  0.00    +0.000 A 
ATOM     35  O   UNL     1      47.821   9.039  17.445  0.00  0.00    +0.000 OA
ATOM     36  C   UNL     1      48.413   7.177  18.785  0.00  0.00    +0.000 A 
ATOM     37  H   UNL     1      47.025  10.064  19.533  0.00  0.00    +0.000 HD
ENDBRANCH  24  27
ENDBRANCH  22  23
ENDBRANCH   4  22
TORSDOF 8
ENDMDL
MODEL 4
REMARK VINA RESULT:    -7.835      3.399      8.910
REMARK INTER + INTRA:         -12.852
REMARK INTER:                 -10.922
REMARK INTRA:                  -1.930
REMARK UNBOUND:                -1.353
REMARK  Name = 
REMARK  8 active torsions:
REMARK  status: ('A' for Active; 'I' for Inactive)
REMARK    1  A    between atoms: C_2  and  C_4
REMARK    2  A    between atoms: C_8  and  C_9
REMARK    3  A    between atoms: C_9  and  N_10
REMARK    4  A    between atoms: N_10  and  C_11
REMARK    5  A    between atoms: C_11  and  C_12
REMARK    6  A    between atoms: C_15  and  C_16
REMARK    7  A    between atoms: C_16  and  N_17
REMARK    8  A    between atoms: C_18  and  C_20
REMARK                            x       y       z     vdW  Elec       q    Type
REMARK                         _______ _______ _______ _____ _____    ______ ____
ROOT
ATOM      1  C   UNL     1      49.156   8.079  16.026  0.00  0.00    +0.000 A 
ATOM      2  C   UNL     1      49.391   6.946  15.232  0.00  0.00    +0.000 A 
ATOM      3  C   UNL     1      48.881   6.868  13.934  0.00  0.00    +0.000 A 
ATOM      4  C   UNL     1      48.130   7.924  13.407  0.00  0.00    +0.000 A 
ATOM      5  C   UNL     1      47.857   9.037  14.215  0.00  0.00    +0.000 A 
ATOM      6  C   UNL     1      48.369   9.116  15.511  0.00  0.00    +0.000 A 
ENDROOT
BRANCH   1   7
ATOM      7  C   UNL     1      49.768   8.189  17.403  0.00  0.00    +0.000 C 
BRANCH   7   8
ATOM      8  N   UNL     1      48.818   7.891  18.473  0.00  0.00    +0.000 NA
ATOM      9  H   UNL     1      48.809   8.668  19.132  0.00  0.00    +0.000 HD
BRANCH   8  10
ATOM     10  C   UNL     1      49.159   6.669  19.203  0.00  0.00    +0.000 C 
BRANCH  10  15
ATOM     11  C   UNL     1      49.272   3.330  17.369  0.00  0.00    +0.000 A 
ATOM     12  C   UNL     1      47.916   3.126  17.080  0.00  0.00    +0.000 A 
ATOM     13  C   UNL     1      46.975   4.094  17.435  0.00  0.00    +0.000 A 
ATOM     14  C   UNL     1      47.380   5.257  18.092  0.00  0.00    +0.000 A 
ATOM     15  C   UNL     1      48.732   5.469  18.394  0.00  0.00    +0.000 A 
ATOM     16  C   UNL     1      49.673   4.500  18.023  0.00  0.00    +0.000 A 
BRANCH  11  18
ATOM     17  N   UNL     1      51.404   2.260  17.881  0.00  0.00    +0.000 N 
ATOM     18  C   UNL     1      50.311   2.313  17.062  0.00  0.00    +0.000 C 
ATOM     19  O   UNL     1      50.187   1.529  16.130  0.00  0.00    +0.000 OA
ATOM     20  H   UNL     1      52.051   1.502  17.711  0.00  0.00    +0.000 HD
ATOM     21  H   UNL     1      51.428   2.711  18.784  0.00  0.00    +0.000 HD
ENDBRANCH  11  18
ENDBRANCH  10  15
ENDBRANCH   8  10
ENDBRANCH   7   8
ENDBRANCH   1   7
BRANCH   4  22
ATOM     22  C   UNL     1      47.575   7.850  12.010  0.00  0.00    +0.000 C 
BRANCH  22  23
ATOM     23  N   UNL     1      46.886   6.605  11.799  0.00  0.00    +0.000 N 
ATOM     24  C   UNL     1      45.522   6.522  11.871  0.00  0.00    +0.000 C 
ATOM     25  O   UNL     1      44.820   7.509  12.077  0.00  0.00    +0.000 OA
ATOM     26  H   UNL     1      47.446   5.760  11.836  0.00  0.00    +0.000 HD
BRANCH  24  27
ATOM     27  C   UNL     1      44.936   5.200  11.628  0.00  0.00    +0.000 A 
ATOM     28  C   UNL     1      44.255   4.553  12.650  0.00  0.00    +0.000 A 
ATOM     29  S   UNL     1      43.594   3.051  12.187  0.00  0.00    +0.000 S 
ATOM     30  C   UNL     1      44.238   3.188  10.617  0.00  0.00    +0.000 A 
ATOM     31  N   UNL     1      44.054   2.202   9.698  0.00  0.00    +0.000 NA
ATOM     32  C   UNL     1      44.617   2.424   8.559  0.00  0.00    +0.000 A 
ATOM     33  N   UNL     1      45.346   3.545   8.253  0.00  0.00    +0.000 N 
ATOM     34  C   UNL     1      45.539   4.576   9.141  0.00  0.00    +0.000 A 
ATOM     35  O   UNL     1      46.167   5.580   8.822  0.00  0.00    +0.000 OA
ATOM     36  C   UNL     1      44.932   4.372  10.443  0.00  0.00    +0.000 A 
ATOM     37  H   UNL     1      45.755   3.662   7.339  0.00  0.00    +0.000 HD
ENDBRANCH  24  27
ENDBRANCH  22  23
ENDBRANCH   4  22
TORSDOF 8
ENDMDL
MODEL 5
REMARK VINA RESULT:    -7.731      3.558      9.011
REMARK INTER + INTRA:         -12.700
REMARK INTER:                 -11.063
REMARK INTRA:                  -1.637
REMARK UNBOUND:                -1.353
REMARK  Name = 
REMARK  8 active torsions:
REMARK  status: ('A' for Active; 'I' for Inactive)
REMARK    1  A    between atoms: C_2  and  C_4
REMARK    2  A    between atoms: C_8  and  C_9
REMARK    3  A    between atoms: C_9  and  N_10
REMARK    4  A    between atoms: N_10  and  C_11
REMARK    5  A    between atoms: C_11  and  C_12
REMARK    6  A    between atoms: C_15  and  C_16
REMARK    7  A    between atoms: C_16  and  N_17
REMARK    8  A    between atoms: C_18  and  C_20
REMARK                            x       y       z     vdW  Elec       q    Type
REMARK                         _______ _______ _______ _____ _____    ______ ____
ROOT
ATOM      1  C   UNL     1      50.352   7.624  15.310  0.00  0.00    +0.000 A 
ATOM      2  C   UNL     1      50.789   8.227  14.121  0.00  0.00    +0.000 A 
ATOM      3  C   UNL     1      49.956   8.280  13.001  0.00  0.00    +0.000 A 
ATOM      4  C   UNL     1      48.669   7.733  13.053  0.00  0.00    +0.000 A 
ATOM      5  C   UNL     1      48.248   7.091  14.226  0.00  0.00    +0.000 A 
ATOM      6  C   UNL     1      49.080   7.042  15.346  0.00  0.00    +0.000 A 
ENDROOT
BRANCH   1   7
ATOM      7  C   UNL     1      51.229   7.632  16.540  0.00  0.00    +0.000 C 
BRANCH   7   8
ATOM      8  N   UNL     1      50.564   7.073  17.716  0.00  0.00    +0.000 NA
ATOM      9  H   UNL     1      50.417   7.817  18.396  0.00  0.00    +0.000 HD
BRANCH   8  10
ATOM     10  C   UNL     1      51.346   6.013  18.353  0.00  0.00    +0.000 C 
BRANCH  10  15
ATOM     11  C   UNL     1      48.938   3.342  17.089  0.00  0.00    +0.000 A 
ATOM     12  C   UNL     1      49.780   2.226  17.008  0.00  0.00    +0.000 A 
ATOM     13  C   UNL     1      51.113   2.327  17.410  0.00  0.00    +0.000 A 
ATOM     14  C   UNL     1      51.613   3.543  17.878  0.00  0.00    +0.000 A 
ATOM     15  C   UNL     1      50.783   4.671  17.956  0.00  0.00    +0.000 A 
ATOM     16  C   UNL     1      49.442   4.558  17.564  0.00  0.00    +0.000 A 
BRANCH  11  18
ATOM     17  N   UNL     1      47.297   3.433  15.287  0.00  0.00    +0.000 N 
ATOM     18  C   UNL     1      47.526   3.308  16.628  0.00  0.00    +0.000 C 
ATOM     19  O   UNL     1      46.599   3.145  17.410  0.00  0.00    +0.000 OA
ATOM     20  H   UNL     1      46.339   3.313  14.986  0.00  0.00    +0.000 HD
ATOM     21  H   UNL     1      48.027   3.324  14.598  0.00  0.00    +0.000 HD
ENDBRANCH  11  18
ENDBRANCH  10  15
ENDBRANCH   8  10
ENDBRANCH   7   8
ENDBRANCH   1   7
BRANCH   4  22
ATOM     22  C   UNL     1      47.764   7.784  11.851  0.00  0.00    +0.000 C 
BRANCH  22  23
ATOM     23  N   UNL     1      47.022   6.558  11.719  0.00  0.00    +0.000 N 
ATOM     24  C   UNL     1      45.655   6.542  11.772  0.00  0.00    +0.000 C 
ATOM     25  O   UNL     1      44.996   7.572  11.893  0.00  0.00    +0.000 OA
ATOM     26  H   UNL     1      47.542   5.694  11.828  0.00  0.00    +0.000 HD
BRANCH  24  27
ATOM     27  C   UNL     1      45.012   5.233  11.615  0.00  0.00    +0.000 A 
ATOM     28  C   UNL     1      44.327   4.673  12.685  0.00  0.00    +0.000 A 
ATOM     29  S   UNL     1      43.598   3.175  12.320  0.00  0.00    +0.000 S 
ATOM     30  C   UNL     1      44.215   3.197  10.734  0.00  0.00    +0.000 A 
ATOM     31  N   UNL     1      43.973   2.170   9.875  0.00  0.00    +0.000 NA
ATOM     32  C   UNL     1      44.522   2.305   8.716  0.00  0.00    +0.000 A 
ATOM     33  N   UNL     1      45.288   3.376   8.334  0.00  0.00    +0.000 N 
ATOM     34  C   UNL     1      45.540   4.446   9.158  0.00  0.00    +0.000 A 
ATOM     35  O   UNL     1      46.200   5.405   8.771  0.00  0.00    +0.000 OA
ATOM     36  C   UNL     1      44.951   4.341  10.480  0.00  0.00    +0.000 A 
ATOM     37  H   UNL     1      45.683   3.425   7.407  0.00  0.00    +0.000 HD
ENDBRANCH  24  27
ENDBRANCH  22  23
ENDBRANCH   4  22
TORSDOF 8
ENDMDL
MODEL 6
REMARK VINA RESULT:    -7.387      3.878      8.390
REMARK INTER + INTRA:         -12.194
REMARK INTER:                  -9.719
REMARK INTRA:                  -2.475
REMARK UNBOUND:                -1.353
REMARK  Name = 
REMARK  8 active torsions:
REMARK  status: ('A' for Active; 'I' for Inactive)
REMARK    1  A    between atoms: C_2  and  C_4
REMARK    2  A    between atoms: C_8  and  C_9
REMARK    3  A    between atoms: C_9  and  N_10
REMARK    4  A    between atoms: N_10  and  C_11
REMARK    5  A    between atoms: C_11  and  C_12
REMARK    6  A    between atoms: C_15  and  C_16
REMARK    7  A    between atoms: C_16  and  N_17
REMARK    8  A    between atoms: C_18  and  C_20
REMARK                            x       y       z     vdW  Elec       q    Type
REMARK                         _______ _______ _______ _____ _____    ______ ____
ROOT
ATOM      1  C   UNL     1      51.631   7.552  16.859  0.00  0.00    +0.000 A 
ATOM      2  C   UNL     1      51.348   7.372  15.497  0.00  0.00    +0.000 A 
ATOM      3  C   UNL     1      50.219   7.960  14.921  0.00  0.00    +0.000 A 
ATOM      4  C   UNL     1      49.357   8.741  15.697  0.00  0.00    +0.000 A 
ATOM      5  C   UNL     1      49.614   8.885  17.067  0.00  0.00    +0.000 A 
ATOM      6  C   UNL     1      50.744   8.300  17.642  0.00  0.00    +0.000 A 
ENDROOT
BRANCH   1   7
ATOM      7  C   UNL     1      52.889   6.974  17.462  0.00  0.00    +0.000 C 
BRANCH   7   8
ATOM      8  N   UNL     1      52.923   5.513  17.417  0.00  0.00    +0.000 NA
ATOM      9  H   UNL     1      52.463   5.199  16.564  0.00  0.00    +0.000 HD
BRANCH   8  10
ATOM     10  C   UNL     1      52.247   4.899  18.560  0.00  0.00    +0.000 C 
BRANCH  10  15
ATOM     11  C   UNL     1      48.907   3.466  17.412  0.00  0.00    +0.000 A 
ATOM     12  C   UNL     1      49.295   2.208  16.933  0.00  0.00    +0.000 A 
ATOM     13  C   UNL     1      50.629   1.807  17.029  0.00  0.00    +0.000 A 
ATOM     14  C   UNL     1      51.579   2.663  17.587  0.00  0.00    +0.000 A 
ATOM     15  C   UNL     1      51.205   3.928  18.062  0.00  0.00    +0.000 A 
ATOM     16  C   UNL     1      49.863   4.319  17.975  0.00  0.00    +0.000 A 
BRANCH  11  18
ATOM     17  N   UNL     1      47.333   5.320  17.227  0.00  0.00    +0.000 N 
ATOM     18  C   UNL     1      47.514   3.967  17.290  0.00  0.00    +0.000 C 
ATOM     19  O   UNL     1      46.560   3.203  17.218  0.00  0.00    +0.000 OA
ATOM     20  H   UNL     1      46.388   5.635  17.050  0.00  0.00    +0.000 HD
ATOM     21  H   UNL     1      48.089   5.961  17.039  0.00  0.00    +0.000 HD
ENDBRANCH  11  18
ENDBRANCH  10  15
ENDBRANCH   8  10
ENDBRANCH   7   8
ENDBRANCH   1   7
BRANCH   4  22
ATOM     22  C   UNL     1      48.137   9.378  15.086  0.00  0.00    +0.000 C 
BRANCH  22  23
ATOM     23  N   UNL     1      47.282   8.382  14.496  0.00  0.00    +0.000 N 
ATOM     24  C   UNL     1      47.042   8.355  13.149  0.00  0.00    +0.000 C 
ATOM     25  O   UNL     1      47.575   9.147  12.377  0.00  0.00    +0.000 OA
ATOM     26  H   UNL     1      46.681   7.863  15.128  0.00  0.00    +0.000 HD
BRANCH  24  27
ATOM     27  C   UNL     1      46.161   7.286  12.667  0.00  0.00    +0.000 A 
ATOM     28  C   UNL     1      45.065   7.606  11.876  0.00  0.00    +0.000 A 
ATOM     29  S   UNL     1      44.175   6.246  11.360  0.00  0.00    +0.000 S 
ATOM     30  C   UNL     1      45.193   5.184  12.216  0.00  0.00    +0.000 A 
ATOM     31  N   UNL     1      44.966   3.843  12.213  0.00  0.00    +0.000 NA
ATOM     32  C   UNL     1      45.798   3.160  12.924  0.00  0.00    +0.000 A 
ATOM     33  N   UNL     1      46.840   3.696  13.636  0.00  0.00    +0.000 N 
ATOM     34  C   UNL     1      47.122   5.040  13.651  0.00  0.00    +0.000 A 
ATOM     35  O   UNL     1      48.084   5.481  14.271  0.00  0.00    +0.000 OA
ATOM     36  C   UNL     1      46.209   5.857  12.873  0.00  0.00    +0.000 A 
ATOM     37  H   UNL     1      47.462   3.105  14.168  0.00  0.00    +0.000 HD
ENDBRANCH  24  27
ENDBRANCH  22  23
ENDBRANCH   4  22
TORSDOF 8
ENDMDL
MODEL 7
REMARK VINA RESULT:    -6.993      2.729      3.648
REMARK INTER + INTRA:         -11.616
REMARK INTER:                  -9.839
REMARK INTRA:                  -1.777
REMARK UNBOUND:                -1.353
REMARK  Name = 
REMARK  8 active torsions:
REMARK  status: ('A' for Active; 'I' for Inactive)
REMARK    1  A    between atoms: C_2  and  C_4
REMARK    2  A    between atoms: C_8  and  C_9
REMARK    3  A    between atoms: C_9  and  N_10
REMARK    4  A    between atoms: N_10  and  C_11
REMARK    5  A    between atoms: C_11  and  C_12
REMARK    6  A    between atoms: C_15  and  C_16
REMARK    7  A    between atoms: C_16  and  N_17
REMARK    8  A    between atoms: C_18  and  C_20
REMARK                            x       y       z     vdW  Elec       q    Type
REMARK                         _______ _______ _______ _____ _____    ______ ____
ROOT
ATOM      1  C   UNL     1      45.808   8.571  11.883  0.00  0.00    +0.000 A 
ATOM      2  C   UNL     1      46.385   7.301  11.732  0.00  0.00    +0.000 A 
ATOM      3  C   UNL     1      47.685   7.052  12.178  0.00  0.00    +0.000 A 
ATOM      4  C   UNL     1      48.429   8.069  12.786  0.00  0.00    +0.000 A 
ATOM      5  C   UNL     1      47.870   9.350  12.896  0.00  0.00    +0.000 A 
ATOM      6  C   UNL     1      46.569   9.597  12.454  0.00  0.00    +0.000 A 
ENDROOT
BRANCH   1   7
ATOM      7  C   UNL     1      44.378   8.817  11.463  0.00  0.00    +0.000 C 
BRANCH   7   8
ATOM      8  N   UNL     1      43.793   7.686  10.744  0.00  0.00    +0.000 NA
ATOM      9  H   UNL     1      43.332   8.032   9.905  0.00  0.00    +0.000 HD
BRANCH   8  10
ATOM     10  C   UNL     1      42.810   6.957  11.547  0.00  0.00    +0.000 C 
BRANCH  10  15
ATOM     11  C   UNL     1      44.050   3.544  10.391  0.00  0.00    +0.000 A 
ATOM     12  C   UNL     1      44.006   2.814  11.586  0.00  0.00    +0.000 A 
ATOM     13  C   UNL     1      43.528   3.414  12.752  0.00  0.00    +0.000 A 
ATOM     14  C   UNL     1      43.108   4.745  12.734  0.00  0.00    +0.000 A 
ATOM     15  C   UNL     1      43.154   5.489  11.546  0.00  0.00    +0.000 A 
ATOM     16  C   UNL     1      43.622   4.876  10.376  0.00  0.00    +0.000 A 
BRANCH  11  18
ATOM     17  N   UNL     1      44.974   1.661   9.145  0.00  0.00    +0.000 N 
ATOM     18  C   UNL     1      44.596   2.975   9.132  0.00  0.00    +0.000 C 
ATOM     19  O   UNL     1      44.681   3.642   8.109  0.00  0.00    +0.000 OA
ATOM     20  H   UNL     1      45.254   1.270   8.255  0.00  0.00    +0.000 HD
ATOM     21  H   UNL     1      44.698   1.024   9.877  0.00  0.00    +0.000 HD
ENDBRANCH  11  18
ENDBRANCH  10  15
ENDBRANCH   8  10
ENDBRANCH   7   8
ENDBRANCH   1   7
BRANCH   4  22
ATOM     22  C   UNL     1      49.831   7.811  13.269  0.00  0.00    +0.000 C 
BRANCH  22  23
ATOM     23  N   UNL     1      49.834   6.852  14.341  0.00  0.00    +0.000 N 
ATOM     24  C   UNL     1      49.848   7.245  15.651  0.00  0.00    +0.000 C 
ATOM     25  O   UNL     1      49.816   8.429  15.976  0.00  0.00    +0.000 OA
ATOM     26  H   UNL     1      50.068   5.895  14.098  0.00  0.00    +0.000 HD
BRANCH  24  27
ATOM     27  C   UNL     1      49.840   6.174  16.653  0.00  0.00    +0.000 A 
ATOM     28  C   UNL     1      50.842   6.124  17.613  0.00  0.00    +0.000 A 
ATOM     29  S   UNL     1      50.658   4.849  18.728  0.00  0.00    +0.000 S 
ATOM     30  C   UNL     1      49.258   4.286  17.940  0.00  0.00    +0.000 A 
ATOM     31  N   UNL     1      48.601   3.181  18.385  0.00  0.00    +0.000 NA
ATOM     32  C   UNL     1      47.573   2.852  17.679  0.00  0.00    +0.000 A 
ATOM     33  N   UNL     1      47.139   3.530  16.569  0.00  0.00    +0.000 N 
ATOM     34  C   UNL     1      47.756   4.662  16.095  0.00  0.00    +0.000 A 
ATOM     35  O   UNL     1      47.320   5.264  15.120  0.00  0.00    +0.000 OA
ATOM     36  C   UNL     1      48.926   5.072  16.850  0.00  0.00    +0.000 A 
ATOM     37  H   UNL     1      46.320   3.225  16.063  0.00  0.00    +0.000 HD
ENDBRANCH  24  27
ENDBRANCH  22  23
ENDBRANCH   4  22
TORSDOF 8
ENDMDL
MODEL 8
REMARK VINA RESULT:    -6.880      2.869      3.788
REMARK INTER + INTRA:         -11.451
REMARK INTER:                  -9.265
REMARK INTRA:                  -2.186
REMARK UNBOUND:                -1.353
REMARK  Name = 
REMARK  8 active torsions:
REMARK  status: ('A' for Active; 'I' for Inactive)
REMARK    1  A    between atoms: C_2  and  C_4
REMARK    2  A    between atoms: C_8  and  C_9
REMARK    3  A    between atoms: C_9  and  N_10
REMARK    4  A    between atoms: N_10  and  C_11
REMARK    5  A    between atoms: C_11  and  C_12
REMARK    6  A    between atoms: C_15  and  C_16
REMARK    7  A    between atoms: C_16  and  N_17
REMARK    8  A    between atoms: C_18  and  C_20
REMARK                            x       y       z     vdW  Elec       q    Type
REMARK                         _______ _______ _______ _____ _____    ______ ____
ROOT
ATOM      1  C   UNL     1      46.359   8.587  12.392  0.00  0.00    +0.000 A 
ATOM      2  C   UNL     1      47.348   7.857  11.716  0.00  0.00    +0.000 A 
ATOM      3  C   UNL     1      48.553   7.539  12.345  0.00  0.00    +0.000 A 
ATOM      4  C   UNL     1      48.789   7.942  13.663  0.00  0.00    +0.000 A 
ATOM      5  C   UNL     1      47.820   8.709  14.325  0.00  0.00    +0.000 A 
ATOM      6  C   UNL     1      46.614   9.025  13.697  0.00  0.00    +0.000 A 
ENDROOT
BRANCH   1   7
ATOM      7  C   UNL     1      45.029   8.868  11.733  0.00  0.00    +0.000 C 
BRANCH   7   8
ATOM      8  N   UNL     1      44.570   7.768  10.886  0.00  0.00    +0.000 NA
ATOM      9  H   UNL     1      44.089   8.154  10.076  0.00  0.00    +0.000 HD
BRANCH   8  10
ATOM     10  C   UNL     1      43.652   6.867  11.584  0.00  0.00    +0.000 C 
BRANCH  10  15
ATOM     11  C   UNL     1      45.858   4.170  13.130  0.00  0.00    +0.000 A 
ATOM     12  C   UNL     1      45.454   3.037  12.412  0.00  0.00    +0.000 A 
ATOM     13  C   UNL     1      44.505   3.157  11.395  0.00  0.00    +0.000 A 
ATOM     14  C   UNL     1      43.946   4.402  11.102  0.00  0.00    +0.000 A 
ATOM     15  C   UNL     1      44.335   5.543  11.819  0.00  0.00    +0.000 A 
ATOM     16  C   UNL     1      45.298   5.417  12.829  0.00  0.00    +0.000 A 
BRANCH  11  18
ATOM     17  N   UNL     1      46.964   5.203  15.042  0.00  0.00    +0.000 N 
ATOM     18  C   UNL     1      46.824   4.095  14.255  0.00  0.00    +0.000 C 
ATOM     19  O   UNL     1      47.454   3.073  14.494  0.00  0.00    +0.000 OA
ATOM     20  H   UNL     1      47.555   5.100  15.856  0.00  0.00    +0.000 HD
ATOM     21  H   UNL     1      46.301   5.964  15.032  0.00  0.00    +0.000 HD
ENDBRANCH  11  18
ENDBRANCH  10  15
ENDBRANCH   8  10
ENDBRANCH   7   8
ENDBRANCH   1   7
BRANCH   4  22
ATOM     22  C   UNL     1      50.085   7.605  14.350  0.00  0.00    +0.000 C 
BRANCH  22  23
ATOM     23  N   UNL     1      49.974   7.796  15.772  0.00  0.00    +0.000 N 
ATOM     24  C   UNL     1      49.781   6.741  16.621  0.00  0.00    +0.000 C 
ATOM     25  O   UNL     1      49.736   5.581  16.219  0.00  0.00    +0.000 OA
ATOM     26  H   UNL     1      49.802   8.742  16.095  0.00  0.00    +0.000 HD
BRANCH  24  27
ATOM     27  C   UNL     1      49.694   7.062  18.050  0.00  0.00    +0.000 A 
ATOM     28  C   UNL     1      50.636   7.907  18.622  0.00  0.00    +0.000 A 
ATOM     29  S   UNL     1      50.362   8.215  20.276  0.00  0.00    +0.000 S 
ATOM     30  C   UNL     1      49.003   7.191  20.300  0.00  0.00    +0.000 A 
ATOM     31  N   UNL     1      48.301   6.987  21.447  0.00  0.00    +0.000 NA
ATOM     32  C   UNL     1      47.312   6.168  21.328  0.00  0.00    +0.000 A 
ATOM     33  N   UNL     1      46.957   5.535  20.165  0.00  0.00    +0.000 N 
ATOM     34  C   UNL     1      47.622   5.726  18.978  0.00  0.00    +0.000 A 
ATOM     35  O   UNL     1      47.256   5.171  17.947  0.00  0.00    +0.000 OA
ATOM     36  C   UNL     1      48.751   6.635  19.058  0.00  0.00    +0.000 A 
ATOM     37  H   UNL     1      46.166   4.910  20.136  0.00  0.00    +0.000 HD
ENDBRANCH  24  27
ENDBRANCH  22  23
ENDBRANCH   4  22
TORSDOF 8
ENDMDL
MODEL 9
REMARK VINA RESULT:    -6.765      1.933      2.952
REMARK INTER + INTRA:         -11.281
REMARK INTER:                  -9.984
REMARK INTRA:                  -1.297
REMARK UNBOUND:                -1.353
REMARK  Name = 
REMARK  8 active torsions:
REMARK  status: ('A' for Active; 'I' for Inactive)
REMARK    1  A    between atoms: C_2  and  C_4
REMARK    2  A    between atoms: C_8  and  C_9
REMARK    3  A    between atoms: C_9  and  N_10
REMARK    4  A    between atoms: N_10  and  C_11
REMARK    5  A    between atoms: C_11  and  C_12
REMARK    6  A    between atoms: C_15  and  C_16
REMARK    7  A    between atoms: C_16  and  N_17
REMARK    8  A    between atoms: C_18  and  C_20
REMARK                            x       y       z     vdW  Elec       q    Type
REMARK                         _______ _______ _______ _____ _____    ______ ____
ROOT
ATOM      1  C   UNL     1      46.050   7.944  12.519  0.00  0.00    +0.000 A 
ATOM      2  C   UNL     1      46.630   6.669  12.433  0.00  0.00    +0.000 A 
ATOM      3  C   UNL     1      47.767   6.352  13.179  0.00  0.00    +0.000 A 
ATOM      4  C   UNL     1      48.341   7.304  14.029  0.00  0.00    +0.000 A 
ATOM      5  C   UNL     1      47.789   8.592  14.082  0.00  0.00    +0.000 A 
ATOM      6  C   UNL     1      46.650   8.907  13.338  0.00  0.00    +0.000 A 
ENDROOT
BRANCH   1   7
ATOM      7  C   UNL     1      44.780   8.260  11.764  0.00  0.00    +0.000 C 
BRANCH   7   8
ATOM      8  N   UNL     1      44.417   7.221  10.802  0.00  0.00    +0.000 NA
ATOM      9  H   UNL     1      44.172   7.662   9.917  0.00  0.00    +0.000 HD
BRANCH   8  10
ATOM     10  C   UNL     1      43.280   6.414  11.248  0.00  0.00    +0.000 C 
BRANCH  10  15
ATOM     11  C   UNL     1      44.623   3.295   9.516  0.00  0.00    +0.000 A 
ATOM     12  C   UNL     1      44.195   2.288  10.389  0.00  0.00    +0.000 A 
ATOM     13  C   UNL     1      43.430   2.615  11.510  0.00  0.00    +0.000 A 
ATOM     14  C   UNL     1      43.104   3.946  11.771  0.00  0.00    +0.000 A 
ATOM     15  C   UNL     1      43.533   4.966  10.909  0.00  0.00    +0.000 A 
ATOM     16  C   UNL     1      44.288   4.628   9.778  0.00  0.00    +0.000 A 
BRANCH  11  18
ATOM     17  N   UNL     1      46.068   1.782   8.263  0.00  0.00    +0.000 N 
ATOM     18  C   UNL     1      45.481   3.013   8.336  0.00  0.00    +0.000 C 
ATOM     19  O   UNL     1      45.639   3.837   7.444  0.00  0.00    +0.000 OA
ATOM     20  H   UNL     1      46.570   1.578   7.409  0.00  0.00    +0.000 HD
ATOM     21  H   UNL     1      45.775   1.005   8.837  0.00  0.00    +0.000 HD
ENDBRANCH  11  18
ENDBRANCH  10  15
ENDBRANCH   8  10
ENDBRANCH   7   8
ENDBRANCH   1   7
BRANCH   4  22
ATOM     22  C   UNL     1      49.567   6.973  14.837  0.00  0.00    +0.000 C 
BRANCH  22  23
ATOM     23  N   UNL     1      49.269   6.987  16.245  0.00  0.00    +0.000 N 
ATOM     24  C   UNL     1      48.731   5.896  16.871  0.00  0.00    +0.000 C 
ATOM     25  O   UNL     1      48.515   4.844  16.275  0.00  0.00    +0.000 OA
ATOM     26  H   UNL     1      49.244   7.894  16.699  0.00  0.00    +0.000 HD
BRANCH  24  27
ATOM     27  C   UNL     1      48.481   6.029  18.310  0.00  0.00    +0.000 A 
ATOM     28  C   UNL     1      48.673   4.935  19.144  0.00  0.00    +0.000 A 
ATOM     29  S   UNL     1      48.387   5.271  20.790  0.00  0.00    +0.000 S 
ATOM     30  C   UNL     1      47.948   6.879  20.443  0.00  0.00    +0.000 A 
ATOM     31  N   UNL     1      47.561   7.727  21.434  0.00  0.00    +0.000 NA
ATOM     32  C   UNL     1      47.230   8.906  21.028  0.00  0.00    +0.000 A 
ATOM     33  N   UNL     1      47.255   9.316  19.720  0.00  0.00    +0.000 N 
ATOM     34  C   UNL     1      47.660   8.503  18.689  0.00  0.00    +0.000 A 
ATOM     35  O   UNL     1      47.704   8.914  17.534  0.00  0.00    +0.000 OA
ATOM     36  C   UNL     1      48.036   7.160  19.091  0.00  0.00    +0.000 A 
ATOM     37  H   UNL     1      46.992  10.257  19.467  0.00  0.00    +0.000 HD
ENDBRANCH  24  27
ENDBRANCH  22  23
ENDBRANCH   4  22
TORSDOF 8
ENDMDL
